@<TRIPOS>MOLECULE
ZINC03007055_1063
69   72    1
SMALL
USER_CHARGES


@<TRIPOS>ATOM
      1 C1          8.0893   54.5804   14.7106 C.3       1 UNK         0.0000 
      2 C2          6.5489   54.5771   14.7568 C.3       1 UNK         0.0000 
      3 C3          4.5087   53.8840   16.0801 C.3       1 UNK         0.0000 
      4 C4          4.0592   53.1560   17.3681 C.3       1 UNK         0.0000 
      5 C5          4.7272   53.7196   18.6339 C.2       1 UNK         0.0000 
      6 C6          5.7581   54.6671   18.5247 C.2       1 UNK         0.0000 
      7 S7          6.3040   55.2328   20.0535 S.3       1 UNK         0.0000 
      8 C8          5.2311   54.1233   20.8672 C.2       1 UNK         0.0000 
      9 C9          4.4195   53.3731   19.9875 C.2       1 UNK         0.0000 
     10 C10         3.4371   52.3658   20.4569 C.2       1 UNK         0.0000 
     11 O11         3.1873   52.1654   21.6512 O.2       1 UNK         0.0000 
     12 O12         2.8746   51.6705   19.4452 O.3       1 UNK         0.0000 
     13 C13         1.9855   50.5877   19.6782 C.3       1 UNK         0.0000 
     14 C14         0.5584   51.0927   19.9160 C.3       1 UNK         0.0000 
     15 N15         5.1816   54.0258   22.2553 N.am      1 UNK         0.0000 
     16 C16         6.0005   54.5403   23.1924 C.2       1 UNK         0.0000 
     17 O17         7.0664   55.1090   22.9518 O.2       1 UNK         0.0000 
     18 C18         5.5460   54.3046   24.6168 C.ar      1 UNK         0.0000 
     19 C19         4.1966   54.0480   24.9212 C.ar      1 UNK         0.0000 
     20 C20         3.8141   53.7195   26.2176 C.ar      1 UNK         0.0000 
     21 C21         4.7608   53.7209   27.2400 C.ar      1 UNK         0.0000 
     22 C22         6.0905   54.0382   26.9640 C.ar      1 UNK         0.0000 
     23 C23         6.4803   54.3191   25.6584 C.ar      1 UNK         0.0000 
     24 S24         4.3245   53.3586   28.9374 S.o2      1 UNK         0.0000 
     25 O25         4.9216   52.0727   29.2814 O.2       1 UNK         0.0000 
     26 O26         4.7070   54.5538   29.6819 O.2       1 UNK         0.0000 
     27 N27         2.5840   53.1591   29.0927 N.pl3     1 UNK         0.0000 
     28 C28         2.0117   51.8317   28.7386 C.3       1 UNK         0.0000 
     29 C29         0.5006   51.6626   28.9689 C.3       1 UNK         0.0000 
     30 C30        -0.3985   52.4788   28.0336 C.3       1 UNK         0.0000 
     31 C31        -0.4844   53.9734   28.3660 C.3       1 UNK         0.0000 
     32 C32         0.8384   54.7536   28.2805 C.3       1 UNK         0.0000 
     33 C33         1.7974   54.3729   29.3948 C.3       1 UNK         0.0000 
     34 C34         6.3188   55.2129   17.2238 C.3       1 UNK         0.0000 
     35 H35         8.4401   54.7439   13.6889 H         1 UNK         0.0000 
     36 H36         8.5075   53.6295   15.0476 H         1 UNK         0.0000 
     37 H37         8.5206   55.3776   15.3146 H         1 UNK         0.0000 
     38 H38         6.1075   55.5538   14.5432 H         1 UNK         0.0000 
     39 H39         6.1573   53.8443   14.0478 H         1 UNK         0.0000 
     40 H40         4.0284   54.8557   15.9481 H         1 UNK         0.0000 
     41 H41         4.3006   53.2549   15.2104 H         1 UNK         0.0000 
     42 H42         2.9751   53.2117   17.4380 H         1 UNK         0.0000 
     43 H43         4.3048   52.0963   17.2799 H         1 UNK         0.0000 
     44 H44         2.0206   49.9444   18.7984 H         1 UNK         0.0000 
     45 H45         2.3272   49.9755   20.5132 H         1 UNK         0.0000 
     46 H46        -0.1334   50.2605   20.0409 H         1 UNK         0.0000 
     47 H47         0.5033   51.7111   20.8128 H         1 UNK         0.0000 
     48 H48         0.2100   51.6910   19.0726 H         1 UNK         0.0000 
     49 H49         4.4620   53.3962   22.5866 H         1 UNK         0.0000 
     50 H50         3.4331   54.0449   24.1561 H         1 UNK         0.0000 
     51 H51         2.7887   53.4567   26.4058 H         1 UNK         0.0000 
     52 H52         6.8214   54.0471   27.7608 H         1 UNK         0.0000 
     53 H53         7.5190   54.5243   25.4531 H         1 UNK         0.0000 
     54 H54         2.2093   51.6524   27.6825 H         1 UNK         0.0000 
     55 H55         2.5681   51.0655   29.2776 H         1 UNK         0.0000 
     56 H56         0.2571   50.6153   28.7982 H         1 UNK         0.0000 
     57 H57         0.2458   51.8485   30.0137 H         1 UNK         0.0000 
     58 H58        -0.0732   52.3467   26.9990 H         1 UNK         0.0000 
     59 H59        -1.4056   52.0595   28.0792 H         1 UNK         0.0000 
     60 H60        -0.8956   54.0889   29.3707 H         1 UNK         0.0000 
     61 H61        -1.2205   54.4001   27.6831 H         1 UNK         0.0000 
     62 H62         0.7006   55.8304   28.3642 H         1 UNK         0.0000 
     63 H63         1.2890   54.6225   27.3018 H         1 UNK         0.0000 
     64 H64         1.2467   54.1961   30.3208 H         1 UNK         0.0000 
     65 H65         2.4648   55.2073   29.6096 H         1 UNK         0.0000 
     66 H66         7.4015   55.3459   17.2656 H         1 UNK         0.0000 
     67 H67         5.8453   56.1479   16.9151 H         1 UNK         0.0000 
     68 N68         6.0339   54.1321   16.1498 N.4       1 UNK         0.0000 
     69 H69         6.4899   53.2602   16.3876 H         1 UNK         0.0000 
@<TRIPOS>BOND
     1    1    2 1    
     2    1   35 1    
     3    1   36 1    
     4    1   37 1    
     5    2   38 1    
     6    2   39 1    
     7    2   68 1    
     8    3    4 1    
     9    3   40 1    
    10    3   41 1    
    11    3   68 1    
    12    4    5 1    
    13    4   42 1    
    14    4   43 1    
    15    5    9 1    
    16    5    6 2    
    17    6    7 1    
    18    6   34 1    
    19    7    8 1    
    20    8    9 2    
    21    8   15 am   BACKBONE|DICT|INTERRES
    22    9   10 1    
    23   10   11 2    
    24   10   12 1    
    25   12   13 1    
    26   13   14 1    
    27   13   44 1    
    28   13   45 1    
    29   14   46 1    
    30   14   47 1    
    31   14   48 1    
    32   15   16 am   BACKBONE|DICT|INTERRES
    33   15   49 1    
    34   16   17 2    
    35   16   18 1    
    36   18   23 ar   
    37   18   19 ar   
    38   19   20 ar   
    39   19   50 1    
    40   20   21 ar   
    41   20   51 1    
    42   21   22 ar   
    43   21   24 1    
    44   22   23 ar   
    45   22   52 1    
    46   23   53 1    
    47   24   25 2    
    48   24   26 2    
    49   24   27 1    
    50   27   33 1    
    51   27   28 1    
    52   28   29 1    
    53   28   54 1    
    54   28   55 1    
    55   29   30 1    
    56   29   56 1    
    57   29   57 1    
    58   30   31 1    
    59   30   58 1    
    60   30   59 1    
    61   31   32 1    
    62   31   60 1    
    63   31   61 1    
    64   32   33 1    
    65   32   62 1    
    66   32   63 1    
    67   33   64 1    
    68   33   65 1    
    69   34   66 1    
    70   34   67 1    
    71   34   68 1    
    72   68   69 1    
@<TRIPOS>SUBSTRUCTURE
     1 UNK         1 GROUP             0       ****    0 ROOT    
