@<TRIPOS>MOLECULE
ZINC05145747_1416
49   52    1
SMALL
USER_CHARGES


@<TRIPOS>ATOM
      1 C1          5.4915   54.8966   29.0214 C.3       1 UNK         0.0000 
      2 O2          4.3086   54.4941   29.7023 O.3       1 UNK         0.0000 
      3 C3          3.2421   53.8656   29.0786 C.2       1 UNK         0.0000 
      4 O4          2.3026   53.4034   29.7279 O.2       1 UNK         0.0000 
      5 N5          3.3456   53.8718   27.7224 N.am      1 UNK         0.0000 
      6 C6          2.4893   53.2968   26.8508 C.2       1 UNK         0.0000 
      7 O7          1.5341   52.5933   27.2021 O.2       1 UNK         0.0000 
      8 C8          2.7182   53.5710   25.4217 C.2       1 UNK         0.0000 
      9 C9          3.9419   53.9788   24.7919 C.2       1 UNK         0.0000 
     10 C10         3.8151   54.0956   23.3948 C.2       1 UNK         0.0000 
     11 S11         2.2271   53.6964   22.8426 S.3       1 UNK         0.0000 
     12 C12         1.7138   53.3278   24.4578 C.2       1 UNK         0.0000 
     13 N13         0.4264   52.8925   24.7556 N.am      1 UNK         0.0000 
     14 C14        -0.6105   52.5429   23.9750 C.2       1 UNK         0.0000 
     15 O15        -0.6179   52.4969   22.7457 O.2       1 UNK         0.0000 
     16 C16        -1.8521   52.2568   24.7763 C.ar      1 UNK         0.0000 
     17 C17        -1.8102   51.4183   25.9058 C.ar      1 UNK         0.0000 
     18 C18        -2.9452   51.2301   26.6963 C.ar      1 UNK         0.0000 
     19 C19        -4.1290   51.8880   26.3706 C.ar      1 UNK         0.0000 
     20 C20        -4.1789   52.7343   25.2511 C.ar      1 UNK         0.0000 
     21 C21        -3.0555   52.8930   24.4418 C.ar      1 UNK         0.0000 
     22 O22        -5.3306   53.4008   24.8832 O.3       1 UNK         0.0000 
     23 C23        -6.3118   53.4896   25.9219 C.3       1 UNK         0.0000 
     24 C24        -6.4561   52.1341   26.6553 C.3       1 UNK         0.0000 
     25 O25        -5.2035   51.7375   27.2241 O.3       1 UNK         0.0000 
     26 C26         4.9438   54.4055   22.4077 C.3       1 UNK         0.0000 
     27 C27         6.2516   54.7831   23.1492 C.3       1 UNK         0.0000 
     28 C28         6.4458   53.9490   24.4153 C.3       1 UNK         0.0000 
     29 C29         5.3170   54.1705   25.4476 C.3       1 UNK         0.0000 
     30 H30         5.9033   55.6635   29.6638 H         1 UNK         0.0000 
     31 H31         5.3135   55.3573   28.0526 H         1 UNK         0.0000 
     32 H32         6.2057   54.0790   28.9162 H         1 UNK         0.0000 
     33 H33         4.1414   54.3443   27.3307 H         1 UNK         0.0000 
     34 H34         0.2796   52.7619   25.7489 H         1 UNK         0.0000 
     35 H35        -0.8983   50.9093   26.1909 H         1 UNK         0.0000 
     36 H36        -2.8972   50.5883   27.5658 H         1 UNK         0.0000 
     37 H37        -3.1130   53.5493   23.5857 H         1 UNK         0.0000 
     38 H38        -7.2647   53.7985   25.4909 H         1 UNK         0.0000 
     39 H39        -6.0066   54.2534   26.6394 H         1 UNK         0.0000 
     40 H40        -6.7854   51.3748   25.9436 H         1 UNK         0.0000 
     41 H41        -7.2065   52.1991   27.4431 H         1 UNK         0.0000 
     42 H42         5.1395   53.5098   21.8160 H         1 UNK         0.0000 
     43 H43         4.6660   55.1876   21.7000 H         1 UNK         0.0000 
     44 H44         7.0980   54.6265   22.4789 H         1 UNK         0.0000 
     45 H45         6.3045   55.8399   23.4105 H         1 UNK         0.0000 
     46 H46         6.4669   52.9041   24.1121 H         1 UNK         0.0000 
     47 H47         7.4161   54.1657   24.8641 H         1 UNK         0.0000 
     48 H48         5.3925   55.1753   25.8624 H         1 UNK         0.0000 
     49 H49         5.4749   53.4708   26.2684 H         1 UNK         0.0000 
@<TRIPOS>BOND
     1    1    2 1    
     2    1   30 1    
     3    1   31 1    
     4    1   32 1    
     5    2    3 1    
     6    3    4 2    
     7    3    5 am   BACKBONE|DICT|INTERRES
     8    5    6 am   BACKBONE|DICT|INTERRES
     9    5   33 1    
    10    6    7 2    
    11    6    8 1    
    12    8   12 2    
    13    8    9 1    
    14    9   29 1    
    15    9   10 2    
    16   10   11 1    
    17   10   26 1    
    18   11   12 1    
    19   12   13 am   BACKBONE|DICT|INTERRES
    20   13   14 am   BACKBONE|DICT|INTERRES
    21   13   34 1    
    22   14   15 2    
    23   14   16 1    
    24   16   21 ar   
    25   16   17 ar   
    26   17   18 ar   
    27   17   35 1    
    28   18   19 ar   
    29   18   36 1    
    30   19   25 1    
    31   19   20 ar   
    32   20   21 ar   
    33   20   22 1    
    34   21   37 1    
    35   22   23 1    
    36   23   24 1    
    37   23   38 1    
    38   23   39 1    
    39   24   25 1    
    40   24   40 1    
    41   24   41 1    
    42   26   27 1    
    43   26   42 1    
    44   26   43 1    
    45   27   28 1    
    46   27   44 1    
    47   27   45 1    
    48   28   29 1    
    49   28   46 1    
    50   28   47 1    
    51   29   48 1    
    52   29   49 1    
@<TRIPOS>SUBSTRUCTURE
     1 UNK         1 GROUP             0       ****    0 ROOT    
