@<TRIPOS>MOLECULE
ZINC63573012_1156
61   65    1
SMALL
USER_CHARGES


@<TRIPOS>ATOM
      1 C1          4.1950   53.5621   21.4281 C.3       1 UNK         0.0000 
      2 C2          4.6758   54.0166   22.8032 C.ar      1 UNK         0.0000 
      3 C3          5.9844   54.4967   22.9105 C.ar      1 UNK         0.0000 
      4 C4          6.4925   54.8980   24.1409 C.ar      1 UNK         0.0000 
      5 C5          5.6996   54.8259   25.2801 C.ar      1 UNK         0.0000 
      6 C6          4.3886   54.3571   25.1893 C.ar      1 UNK         0.0000 
      7 C7          3.8606   53.9350   23.9530 C.ar      1 UNK         0.0000 
      8 N8          2.5772   53.3599   23.7993 N.am      1 UNK         0.0000 
      9 C9          1.7162   52.8899   24.7350 C.2       1 UNK         0.0000 
     10 O10         1.7210   53.2931   25.8986 O.2       1 UNK         0.0000 
     11 N11         0.9137   51.8546   24.3283 N.am      1 UNK         0.0000 
     12 C12         0.7135   51.4998   22.8864 C.3       1 UNK         0.0000 
     13 C13         0.9108   49.9831   22.6896 C.3       1 UNK         0.0000 
     14 C14        -0.0227   49.2655   23.6330 C.2       1 UNK         0.0000 
     15 C15        -1.0372   48.4005   23.4807 C.2       1 UNK         0.0000 
     16 C16        -1.6433   47.7925   22.2895 C.2       1 UNK         0.0000 
     17 C17        -2.6894   46.9453   22.3870 C.2       1 UNK         0.0000 
     18 C18        -3.1848   46.6625   23.7424 C.2       1 UNK         0.0000 
     19 C19        -2.6208   47.2008   24.8558 C.2       1 UNK         0.0000 
     20 C20        -1.5437   48.0831   24.7408 C.2       1 UNK         0.0000 
     21 N21        -0.8799   48.7151   25.6817 N.pl3     1 UNK         0.0000 
     22 C22         0.1470   49.6089   25.0902 C.3       1 UNK         0.0000 
     23 H23         1.1047   49.2432   25.4559 H         1 UNK         0.0000 
     24 C24         0.0488   51.1612   25.3443 C.3       1 UNK         0.0000 
     25 H25         0.4831   51.3124   26.3349 H         1 UNK         0.0000 
     26 C26        -1.4003   51.6602   25.5286 C.ar      1 UNK         0.0000 
     27 C27        -2.0903   51.2976   26.6915 C.ar      1 UNK         0.0000 
     28 C28        -3.4135   51.6808   26.8816 C.ar      1 UNK         0.0000 
     29 C29        -4.0607   52.4783   25.9286 C.ar      1 UNK         0.0000 
     30 C30        -3.3537   52.8971   24.8036 C.ar      1 UNK         0.0000 
     31 C31        -2.0350   52.4976   24.6035 C.ar      1 UNK         0.0000 
     32 O32        -5.3721   52.8993   26.0284 O.3       1 UNK         0.0000 
     33 C33        -6.2111   52.3135   27.0197 C.3       1 UNK         0.0000 
     34 O34        -3.2042   46.4237   21.2407 O.3       1 UNK         0.0000 
     35 C35        -4.3568   45.5915   21.3257 C.3       1 UNK         0.0000 
     36 Cl36        6.3572   55.2966   26.8045 Cl        1 UNK         0.0000 
     37 H37         3.4920   54.2845   21.0148 H         1 UNK         0.0000 
     38 H38         5.0202   53.4424   20.7245 H         1 UNK         0.0000 
     39 H39         3.6981   52.5934   21.4855 H         1 UNK         0.0000 
     40 H40         6.6190   54.5597   22.0383 H         1 UNK         0.0000 
     41 H41         7.5041   55.2659   24.2064 H         1 UNK         0.0000 
     42 H42         3.8162   54.3098   26.1012 H         1 UNK         0.0000 
     43 H43         2.3939   53.0699   22.8527 H         1 UNK         0.0000 
     44 H44        -0.2966   51.7526   22.5721 H         1 UNK         0.0000 
     45 H45         1.3913   52.0118   22.2048 H         1 UNK         0.0000 
     46 H46         0.7152   49.7131   21.6515 H         1 UNK         0.0000 
     47 H47         1.9481   49.7053   22.8869 H         1 UNK         0.0000 
     48 H48        -1.2703   48.0117   21.2997 H         1 UNK         0.0000 
     49 H49        -4.0393   46.0184   23.8786 H         1 UNK         0.0000 
     50 H50        -3.0323   46.9644   25.8283 H         1 UNK         0.0000 
     51 H51        -1.6139   50.6866   27.4459 H         1 UNK         0.0000 
     52 H52        -3.9149   51.3497   27.7776 H         1 UNK         0.0000 
     53 H53        -3.8379   53.5337   24.0783 H         1 UNK         0.0000 
     54 H54        -1.5262   52.8632   23.7286 H         1 UNK         0.0000 
     55 H55        -7.2151   52.7287   26.9315 H         1 UNK         0.0000 
     56 H56        -6.2880   51.2334   26.8845 H         1 UNK         0.0000 
     57 H57        -5.8594   52.5167   28.0314 H         1 UNK         0.0000 
     58 H58        -4.6453   45.2791   20.3222 H         1 UNK         0.0000 
     59 H59        -4.1629   44.6880   21.9057 H         1 UNK         0.0000 
     60 H60        -5.2062   46.1230   21.7580 H         1 UNK         0.0000 
     61 H61        -1.0564   48.6189   26.6897 H         1 UNK         0.0000 
@<TRIPOS>BOND
     1    1    2 1    
     2    1   37 1    
     3    1   38 1    
     4    1   39 1    
     5    2    7 ar   
     6    2    3 ar   
     7    3    4 ar   
     8    3   40 1    
     9    4    5 ar   
    10    4   41 1    
    11    5    6 ar   
    12    5   36 1    
    13    6    7 ar   
    14    6   42 1    
    15    7    8 1    
    16    8    9 am   BACKBONE|DICT|INTERRES
    17    8   43 1    
    18    9   10 2    
    19    9   11 am   BACKBONE|DICT|INTERRES
    20   11   24 1    
    21   11   12 1    
    22   12   13 1    
    23   12   44 1    
    24   12   45 1    
    25   13   14 1    
    26   13   46 1    
    27   13   47 1    
    28   14   22 1    
    29   14   15 2    
    30   15   20 1    
    31   15   16 1    
    32   16   17 2    
    33   16   48 1    
    34   17   18 1    
    35   17   34 1    
    36   18   19 2    
    37   18   49 1    
    38   19   20 1    
    39   19   50 1    
    40   20   21 2    
    41   21   22 1    
    42   21   61 1    
    43   22   23 1    
    44   22   24 1    
    45   24   25 1    
    46   24   26 1    
    47   26   31 ar   
    48   26   27 ar   
    49   27   28 ar   
    50   27   51 1    
    51   28   29 ar   
    52   28   52 1    
    53   29   30 ar   
    54   29   32 1    
    55   30   31 ar   
    56   30   53 1    
    57   31   54 1    
    58   32   33 1    
    59   33   55 1    
    60   33   56 1    
    61   33   57 1    
    62   34   35 1    
    63   35   58 1    
    64   35   59 1    
    65   35   60 1    
@<TRIPOS>SUBSTRUCTURE
     1 UNK         1 GROUP             0       ****    0 ROOT    
