@<TRIPOS>MOLECULE
ZINC14474067_2348
58   62    1
SMALL
USER_CHARGES


@<TRIPOS>ATOM
      1 C1          0.2301   56.2467   17.2667 C.3       1 UNK         0.0000 
      2 C2         -0.8912   55.2418   17.0867 C.ar      1 UNK         0.0000 
      3 C3         -2.1021   55.6561   16.5278 C.ar      1 UNK         0.0000 
      4 C4         -3.1428   54.7436   16.3414 C.ar      1 UNK         0.0000 
      5 C5         -2.9734   53.4140   16.7342 C.ar      1 UNK         0.0000 
      6 C6         -1.7689   52.9928   17.2984 C.ar      1 UNK         0.0000 
      7 C7         -0.7245   53.9061   17.4678 C.ar      1 UNK         0.0000 
      8 N8         -1.6261   51.6540   17.6685 N.pl3     1 UNK         0.0000 
      9 S9         -1.4794   51.1571   19.3564 S.o2      1 UNK         0.0000 
     10 O10        -2.2726   52.0967   20.1587 O.2       1 UNK         0.0000 
     11 O11        -1.7492   49.7163   19.3817 O.2       1 UNK         0.0000 
     12 C12         0.2468   51.3701   19.7594 C.ar      1 UNK         0.0000 
     13 C13         1.2040   50.6208   19.0781 C.ar      1 UNK         0.0000 
     14 C14         2.5553   50.8252   19.3360 C.ar      1 UNK         0.0000 
     15 C15         2.9659   51.7802   20.2657 C.ar      1 UNK         0.0000 
     16 C16         2.0025   52.5145   20.9949 C.ar      1 UNK         0.0000 
     17 C17         0.6478   52.2948   20.7245 C.ar      1 UNK         0.0000 
     18 C18         2.4796   53.5808   21.9900 C.3       1 UNK         0.0000 
     19 H19         2.7044   54.4967   21.4553 H         1 UNK         0.0000 
     20 C20         1.6913   53.8759   23.2577 C.2       1 UNK         0.0000 
     21 C21         2.5363   54.1019   24.2842 C.2       1 UNK         0.0000 
     22 C22         3.9785   53.8874   23.8608 C.3       1 UNK         0.0000 
     23 C23         3.7675   53.0957   22.5750 C.3       1 UNK         0.0000 
     24 H24         3.5044   52.0966   22.8817 H         1 UNK         0.0000 
     25 C25         4.8739   52.8989   21.5091 C.3       1 UNK         0.0000 
     26 H26         5.7029   52.3771   21.9890 H         1 UNK         0.0000 
     27 N27         4.3561   51.9599   20.4821 N.pl3     1 UNK         0.0000 
     28 C28         5.4703   54.2173   20.9742 C.ar      1 UNK         0.0000 
     29 C29         5.0601   54.7243   19.7313 C.ar      1 UNK         0.0000 
     30 C30         5.6648   55.8549   19.1848 C.ar      1 UNK         0.0000 
     31 C31         6.6922   56.4966   19.8710 C.ar      1 UNK         0.0000 
     32 C32         7.1024   56.0167   21.1136 C.ar      1 UNK         0.0000 
     33 C33         6.4900   54.8967   21.6735 C.ar      1 UNK         0.0000 
     34 O34         6.9631   54.4468   22.8818 O.3       1 UNK         0.0000 
     35 C35        -4.4589   55.2020   15.7408 C.3       1 UNK         0.0000 
     36 H36         1.1306   55.7927   17.6817 H         1 UNK         0.0000 
     37 H37        -0.0957   57.0579   17.9194 H         1 UNK         0.0000 
     38 H38         0.4905   56.6925   16.3062 H         1 UNK         0.0000 
     39 H39        -2.2293   56.6871   16.2288 H         1 UNK         0.0000 
     40 H40        -3.7780   52.7053   16.5987 H         1 UNK         0.0000 
     41 H41         0.2128   53.5817   17.8981 H         1 UNK         0.0000 
     42 H42        -1.5292   50.9500   16.9530 H         1 UNK         0.0000 
     43 H43         0.9082   49.8925   18.3365 H         1 UNK         0.0000 
     44 H44         3.2813   50.2393   18.7952 H         1 UNK         0.0000 
     45 H45        -0.0938   52.8796   21.2472 H         1 UNK         0.0000 
     46 H46         0.6181   53.9810   23.2817 H         1 UNK         0.0000 
     47 H47         2.2678   54.3933   25.2886 H         1 UNK         0.0000 
     48 H48         4.5471   53.3074   24.5885 H         1 UNK         0.0000 
     49 H49         4.5023   54.8299   23.7056 H         1 UNK         0.0000 
     50 H50         5.0233   51.5828   19.8170 H         1 UNK         0.0000 
     51 H51         4.2771   54.2333   19.1708 H         1 UNK         0.0000 
     52 H52         5.3444   56.2255   18.2217 H         1 UNK         0.0000 
     53 H53         7.1718   57.3573   19.4279 H         1 UNK         0.0000 
     54 H54         7.9152   56.4967   21.6372 H         1 UNK         0.0000 
     55 H55         7.7665   54.8968   23.1669 H         1 UNK         0.0000 
     56 H56        -5.2855   54.5685   16.0651 H         1 UNK         0.0000 
     57 H57        -4.6980   56.2150   16.0671 H         1 UNK         0.0000 
     58 H58        -4.4085   55.1923   14.6517 H         1 UNK         0.0000 
@<TRIPOS>BOND
     1    1    2 1    
     2    1   36 1    
     3    1   37 1    
     4    1   38 1    
     5    2    7 ar   
     6    2    3 ar   
     7    3    4 ar   
     8    3   39 1    
     9    4    5 ar   
    10    4   35 1    
    11    5    6 ar   
    12    5   40 1    
    13    6    7 ar   
    14    6    8 1    
    15    7   41 1    
    16    8    9 1    
    17    8   42 1    
    18    9   10 2    
    19    9   11 2    
    20    9   12 1    
    21   12   17 ar   
    22   12   13 ar   
    23   13   14 ar   
    24   13   43 1    
    25   14   15 ar   
    26   14   44 1    
    27   15   27 1    
    28   15   16 ar   
    29   16   17 ar   
    30   16   18 1    
    31   17   45 1    
    32   18   19 1    
    33   18   23 1    
    34   18   20 1    
    35   20   21 2    
    36   20   46 1    
    37   21   22 1    
    38   21   47 1    
    39   22   23 1    
    40   22   48 1    
    41   22   49 1    
    42   23   24 1    
    43   23   25 1    
    44   25   26 1    
    45   25   27 1    
    46   25   28 1    
    47   27   50 1    
    48   28   33 ar   
    49   28   29 ar   
    50   29   30 ar   
    51   29   51 1    
    52   30   31 ar   
    53   30   52 1    
    54   31   32 ar   
    55   31   53 1    
    56   32   33 ar   
    57   32   54 1    
    58   33   34 1    
    59   34   55 1    
    60   35   56 1    
    61   35   57 1    
    62   35   58 1    
@<TRIPOS>SUBSTRUCTURE
     1 UNK         1 GROUP             0       ****    0 ROOT    
