ZINC20569457_5147
                    3D
 Schrodinger Suite 2024-2.
 44 46  0  0  1  0            999 V2000
   -2.7775   49.5213   25.6352 C   0  0  0  0  0  0
   -1.8998   50.7692   25.8138 C   0  0  2  0  0  0
   -2.5372   51.6036   26.1142 H   0  0  0  0  0  0
   -1.1310   51.1452   24.5304 C   0  0  0  0  0  0
   -0.1844   52.3597   24.7255 C   0  0  1  0  0  0
   -0.8180   53.2404   24.8323 H   0  0  0  0  0  0
    0.5125   52.1857   26.0162 N   0  0  0  0  0  0
    0.0870   51.3945   27.0651 C   0  0  0  0  0  0
    0.9720   51.6332   28.0981 C   0  0  0  0  0  0
    1.8971   52.5703   27.6144 C   0  0  0  0  0  0
    1.5608   52.9392   26.3890 N   0  0  0  0  0  0
    3.1015   53.0363   28.3189 C   0  0  0  0  0  0
    3.4014   52.7083   29.4701 O   0  0  0  0  0  0
    3.8509   53.8241   27.5100 O   0  0  0  0  0  0
    5.2154   54.1736   27.7747 C   0  0  0  0  0  0
    5.9314   54.4962   26.4429 C   0  0  0  0  0  0
    7.0954   54.8969   26.4757 O   0  0  0  0  0  0
    5.2186   54.2873   25.3107 N   0  0  0  0  0  0
    5.5354   54.4965   23.9600 C   0  0  0  0  0  0
    6.7043   55.1168   23.5017 C   0  0  0  0  0  0
    6.9047   55.3056   22.1372 C   0  0  0  0  0  0
    5.9309   54.8967   21.2292 C   0  0  0  0  0  0
    4.7702   54.2689   21.6730 C   0  0  0  0  0  0
    4.5778   54.0655   23.0362 C   0  0  0  0  0  0
    6.2283   55.2071   19.1852 I   0  0  0  0  0  0
   -0.9438   50.4968   26.8816 N   0  0  0  0  0  0
    0.7448   52.6185   23.5135 C   0  0  0  0  0  0
    0.0811   52.4964   22.3626 F   0  0  0  0  0  0
    1.2494   53.8523   23.5494 F   0  0  0  0  0  0
    1.7588   51.7540   23.4645 F   0  0  0  0  0  0
   -3.5205   49.6696   24.8515 H   0  0  0  0  0  0
   -2.1859   48.6418   25.3712 H   0  0  0  0  0  0
   -3.3183   49.2827   26.5535 H   0  0  0  0  0  0
   -1.8377   51.3676   23.7297 H   0  0  0  0  0  0
   -0.5703   50.2833   24.1612 H   0  0  0  0  0  0
    0.9795   51.1458   29.0613 H   0  0  0  0  0  0
    5.7492   53.3790   28.3003 H   0  0  0  0  0  0
    5.2338   55.0676   28.3974 H   0  0  0  0  0  0
    4.2984   53.9023   25.4678 H   0  0  0  0  0  0
    7.4719   55.4652   24.1763 H   0  0  0  0  0  0
    7.8111   55.7785   21.7892 H   0  0  0  0  0  0
    4.0227   53.9449   20.9626 H   0  0  0  0  0  0
    3.6762   53.5738   23.3684 H   0  0  0  0  0  0
   -1.2327   49.8043   27.5800 H   0  0  0  0  0  0
  1  2  1  0  0  0
  1 31  1  0  0  0
  1 32  1  0  0  0
  1 33  1  0  0  0
  2  3  1  0  0  0
  2 26  1  0  0  0
  2  4  1  0  0  0
  4  5  1  0  0  0
  4 34  1  0  0  0
  4 35  1  0  0  0
  5  6  1  0  0  0
  5  7  1  0  0  0
  5 27  1  0  0  0
  7 11  1  0  0  0
  7  8  1  0  0  0
  8  9  2  0  0  0
  8 26  1  0  0  0
  9 10  1  0  0  0
  9 36  1  0  0  0
 10 11  2  0  0  0
 10 12  1  0  0  0
 12 13  2  0  0  0
 12 14  1  0  0  0
 14 15  1  0  0  0
 15 16  1  0  0  0
 15 37  1  0  0  0
 15 38  1  0  0  0
 16 17  2  0  0  0
 16 18  1  0  0  0
 18 19  1  0  0  0
 18 39  1  0  0  0
 19 24  2  0  0  0
 19 20  1  0  0  0
 20 21  2  0  0  0
 20 40  1  0  0  0
 21 22  1  0  0  0
 21 41  1  0  0  0
 22 23  2  0  0  0
 22 25  1  0  0  0
 23 24  1  0  0  0
 23 42  1  0  0  0
 24 43  1  0  0  0
 26 44  1  0  0  0
 27 28  1  0  0  0
 27 29  1  0  0  0
 27 30  1  0  0  0
M  END
> <i_i_glide_confnum>
64

> <i_i_glide_lignum>
5148

> <i_i_glide_posenum>
362

> <i_i_glide_rotatable_bonds>
7

> <i_m_Source_File_Index>
1000

> <b_m_subgroup_collapsed>
0

> <r_i_docking_score>
-6.5309

> <r_i_glide_ecoul>
-8.09581

> <r_i_glide_eff_state_penalty>
0

> <r_i_glide_einternal>
6.36191

> <r_i_glide_emodel>
-62.3095

> <r_i_glide_energy>
-46.6177

> <r_i_glide_erotb>
0.39628

> <r_i_glide_esite>
-0.1

> <r_i_glide_evdw>
-38.5219

> <r_i_glide_gscore>
-6.5309

> <r_i_glide_hbond>
-0.456

> <r_i_glide_ligand_efficiency>
-0.233246

> <r_i_glide_ligand_efficiency_ln>
-1.50752

> <r_i_glide_ligand_efficiency_sa>
-0.708273

> <r_i_glide_lipo>
-1.96823

> <r_i_glide_metal>
0

> <r_i_glide_rewards>
-1.26249

> <s_i_glide_gridfile>
wee1_glide-grid

> <s_m_Source_File>
wee1_decoys_glide_SP.sdf

> <s_m_Source_Path>
/Users/zhangxujun/Desktop

> <s_m_entry_id>
1275

> <s_m_entry_name>
wee1_decoys_glide_SP.1000

> <s_m_subgroup_title>
wee1_decoys_glide_SP

> <s_m_subgroupid>
wee1_decoys_glide_SP


$$$$
