ZINC67481832_255
                    3D
 Schrodinger Suite 2024-2.
 69 71  0  0  1  0            999 V2000
    2.3082   51.1783   18.3927 C   0  0  0  0  0  0
    1.5008   52.2995   19.0813 C   0  0  0  0  0  0
    0.8306   53.2112   18.0271 C   0  0  0  0  0  0
    0.4976   51.6982   20.0883 C   0  0  0  0  0  0
   -0.6610   51.4500   19.7497 O   0  0  0  0  0  0
    0.9708   51.4317   21.3213 N   0  0  0  0  0  0
    0.2387   50.7499   22.3923 C   0  0  0  0  0  0
    1.1384   50.2322   23.5423 C   0  0  0  0  0  0
    0.3471   49.5001   24.6536 C   0  0  0  0  0  0
   -0.7393   50.3936   25.1084 N   0  0  0  0  0  0
   -1.7342   50.6614   24.0538 C   0  0  0  0  0  0
   -1.0345   51.4575   22.9248 C   0  0  0  0  0  0
   -0.6325   51.2472   26.1656 C   0  0  0  0  0  0
   -1.3793   52.2169   26.3167 O   0  0  0  0  0  0
    0.2749   50.8973   27.0991 N   0  0  0  0  0  0
    0.3524   51.3960   28.4776 C   0  0  0  0  0  0
    0.5190   52.9230   28.6681 C   0  0  1  0  0  0
   -0.1249   53.4747   27.9816 H   0  0  0  0  0  0
    0.1790   53.3683   30.0931 C   0  0  0  0  0  0
    0.8872   54.6997   30.3336 C   0  0  0  0  0  0
    1.8442   54.9050   29.1554 C   0  0  0  0  0  0
    1.9198   53.5330   28.4491 N   0  3  2  0  0  0
    2.3370   53.6052   26.9601 C   0  0  0  0  0  0
    3.7280   54.2599   26.7679 C   0  0  0  0  0  0
    4.8599   53.5461   27.5541 C   0  0  0  0  0  0
    6.2255   54.2349   27.3468 C   0  0  0  0  0  0
    6.5804   54.3383   25.8486 C   0  0  0  0  0  0
    5.4559   54.9963   25.0255 C   0  0  0  0  0  0
    4.0985   54.3060   25.2670 C   0  0  0  0  0  0
    2.8400   50.5546   19.1131 H   0  0  0  0  0  0
    3.0647   51.5853   17.7195 H   0  0  0  0  0  0
    1.6694   50.5188   17.8013 H   0  0  0  0  0  0
    2.2052   52.9150   19.6431 H   0  0  0  0  0  0
    0.3037   54.0510   18.4817 H   0  0  0  0  0  0
    1.5747   53.6333   17.3509 H   0  0  0  0  0  0
    0.1094   52.6627   17.4186 H   0  0  0  0  0  0
    1.9080   51.7320   21.5408 H   0  0  0  0  0  0
   -0.1459   49.8358   21.9307 H   0  0  0  0  0  0
    1.8969   49.5543   23.1495 H   0  0  0  0  0  0
    1.6748   51.0672   23.9954 H   0  0  0  0  0  0
   -0.1373   48.6151   24.2386 H   0  0  0  0  0  0
    0.9511   49.0901   25.4632 H   0  0  0  0  0  0
   -2.0692   49.6926   23.6795 H   0  0  0  0  0  0
   -2.6461   51.1182   24.4439 H   0  0  0  0  0  0
   -0.7769   52.4479   23.3033 H   0  0  0  0  0  0
   -1.7528   51.6115   22.1194 H   0  0  0  0  0  0
    0.7732   50.0369   26.9290 H   0  0  0  0  0  0
   -0.5491   51.0514   28.9907 H   0  0  0  0  0  0
    1.1867   50.8967   28.9669 H   0  0  0  0  0  0
   -0.8952   53.3882   30.2679 H   0  0  0  0  0  0
    0.5652   52.6382   30.8070 H   0  0  0  0  0  0
    0.1831   55.5258   30.4131 H   0  0  0  0  0  0
    1.4136   54.6836   31.2816 H   0  0  0  0  0  0
    1.4347   55.6066   28.4246 H   0  0  0  0  0  0
    2.8537   55.2213   29.4221 H   0  0  0  0  0  0
    2.3381   52.5694   26.6165 H   0  0  0  0  0  0
    1.5386   54.1427   26.4457 H   0  0  0  0  0  0
    3.6888   55.2965   27.1068 H   0  0  0  0  0  0
    4.6274   53.5062   28.6181 H   0  0  0  0  0  0
    4.9201   52.5002   27.2470 H   0  0  0  0  0  0
    6.2064   55.2331   27.7901 H   0  0  0  0  0  0
    7.0046   53.6824   27.8752 H   0  0  0  0  0  0
    7.5044   54.8965   25.7147 H   0  0  0  0  0  0
    6.7758   53.3388   25.4560 H   0  0  0  0  0  0
    5.3845   56.0529   25.2871 H   0  0  0  0  0  0
    5.7053   54.9621   23.9648 H   0  0  0  0  0  0
    4.1156   53.2969   24.8556 H   0  0  0  0  0  0
    3.3154   54.8189   24.7050 H   0  0  0  0  0  0
    2.5958   52.9581   28.9321 H   0  0  0  0  0  0
  1  2  1  0  0  0
  1 30  1  0  0  0
  1 31  1  0  0  0
  1 32  1  0  0  0
  2  3  1  0  0  0
  2  4  1  0  0  0
  2 33  1  0  0  0
  3 34  1  0  0  0
  3 35  1  0  0  0
  3 36  1  0  0  0
  4  5  2  0  0  0
  4  6  1  0  0  0
  6  7  1  0  0  0
  6 37  1  0  0  0
  7 12  1  0  0  0
  7  8  1  0  0  0
  7 38  1  0  0  0
  8  9  1  0  0  0
  8 39  1  0  0  0
  8 40  1  0  0  0
  9 10  1  0  0  0
  9 41  1  0  0  0
  9 42  1  0  0  0
 10 11  1  0  0  0
 10 13  1  0  0  0
 11 12  1  0  0  0
 11 43  1  0  0  0
 11 44  1  0  0  0
 12 45  1  0  0  0
 12 46  1  0  0  0
 13 14  2  0  0  0
 13 15  1  0  0  0
 15 16  1  0  0  0
 15 47  1  0  0  0
 16 17  1  0  0  0
 16 48  1  0  0  0
 16 49  1  0  0  0
 17 18  1  0  0  0
 17 22  1  0  0  0
 17 19  1  0  0  0
 19 20  1  0  0  0
 19 50  1  0  0  0
 19 51  1  0  0  0
 20 21  1  0  0  0
 20 52  1  0  0  0
 20 53  1  0  0  0
 21 22  1  0  0  0
 21 54  1  0  0  0
 21 55  1  0  0  0
 22 23  1  0  0  0
 22 69  1  0  0  0
 23 24  1  0  0  0
 23 56  1  0  0  0
 23 57  1  0  0  0
 24 29  1  0  0  0
 24 25  1  0  0  0
 24 58  1  0  0  0
 25 26  1  0  0  0
 25 59  1  0  0  0
 25 60  1  0  0  0
 26 27  1  0  0  0
 26 61  1  0  0  0
 26 62  1  0  0  0
 27 28  1  0  0  0
 27 63  1  0  0  0
 27 64  1  0  0  0
 28 29  1  0  0  0
 28 65  1  0  0  0
 28 66  1  0  0  0
 29 67  1  0  0  0
 29 68  1  0  0  0
M  CHG  1  22   1
M  END
> <i_i_glide_confnum>
132

> <i_i_glide_lignum>
256

> <i_i_glide_posenum>
239

> <i_i_glide_rotatable_bonds>
9

> <i_m_Source_File_Index>
2697

> <b_m_subgroup_collapsed>
0

> <r_i_docking_score>
-4.42563

> <r_i_glide_ecoul>
-0.584017

> <r_i_glide_eff_state_penalty>
0

> <r_i_glide_einternal>
1.49334

> <r_i_glide_emodel>
-45.5581

> <r_i_glide_energy>
-34.5297

> <r_i_glide_erotb>
1.00891

> <r_i_glide_esite>
-0.123246

> <r_i_glide_evdw>
-33.9456

> <r_i_glide_gscore>
-4.42563

> <r_i_glide_hbond>
0

> <r_i_glide_ligand_efficiency>
-0.158058

> <r_i_glide_ligand_efficiency_ln>
-1.02156

> <r_i_glide_ligand_efficiency_sa>
-0.479957

> <r_i_glide_lipo>
-2.72518

> <r_i_glide_metal>
0

> <r_i_glide_rewards>
-0.801228

> <s_i_glide_gridfile>
wee1_glide-grid

> <s_m_Source_File>
wee1_decoys_glide_SP.sdf

> <s_m_Source_Path>
/Users/zhangxujun/Desktop

> <s_m_entry_id>
2972

> <s_m_entry_name>
wee1_decoys_glide_SP.2697

> <s_m_subgroup_title>
wee1_decoys_glide_SP

> <s_m_subgroupid>
wee1_decoys_glide_SP


$$$$
