@<TRIPOS>MOLECULE
ZINC20570485_681
48   52    1
SMALL
USER_CHARGES


@<TRIPOS>ATOM
      1 C1          0.3944   52.9422   28.4783 C.3       1 UNK         0.0000 
      2 C2          1.8180   53.3753   28.2164 C.2       1 UNK         0.0000 
      3 N3          2.2768   53.5579   27.0058 N.2       1 UNK         0.0000 
      4 C4          3.5864   53.9181   27.0294 C.ar      1 UNK         0.0000 
      5 C5          4.1880   54.0360   28.2973 C.ar      1 UNK         0.0000 
      6 S6          2.9762   53.6556   29.5101 S.3       1 UNK         0.0000 
      7 C7          5.5357   54.3944   28.4315 C.ar      1 UNK         0.0000 
      8 C8          6.3150   54.6108   27.2888 C.ar      1 UNK         0.0000 
      9 C9          5.7409   54.4967   26.0123 C.ar      1 UNK         0.0000 
     10 C10         4.3737   54.1588   25.8826 C.ar      1 UNK         0.0000 
     11 S11         3.9296   54.0969   24.1869 S.3       1 UNK         0.0000 
     12 C12         5.6118   54.4893   23.8110 C.2       1 UNK         0.0000 
     13 N13         6.3990   54.6743   24.8361 N.2       1 UNK         0.0000 
     14 N14         6.1219   54.6369   22.5266 N.am      1 UNK         0.0000 
     15 C15         5.4706   54.4979   21.3505 C.2       1 UNK         0.0000 
     16 O16         4.2957   54.1469   21.2396 O.2       1 UNK         0.0000 
     17 C17         6.3005   54.7444   20.1114 C.ar      1 UNK         0.0000 
     18 C18         7.4233   55.5880   20.1262 C.ar      1 UNK         0.0000 
     19 C19         8.1918   55.7607   18.9766 C.ar      1 UNK         0.0000 
     20 C20         7.8521   55.0942   17.7974 C.ar      1 UNK         0.0000 
     21 C21         6.7396   54.2422   17.7573 C.ar      1 UNK         0.0000 
     22 C22         5.9720   54.0866   18.9146 C.ar      1 UNK         0.0000 
     23 N23         6.3229   53.5202   16.6260 N.pl3     1 UNK         0.0000 
     24 S24         7.1634   53.3907   15.0641 S.o2      1 UNK         0.0000 
     25 O25         7.8430   54.6579   14.7807 O.2       1 UNK         0.0000 
     26 O26         6.1689   52.8597   14.1258 O.2       1 UNK         0.0000 
     27 C27         8.4242   52.1273   15.2483 C.ar      1 UNK         0.0000 
     28 C28         9.2950   52.1496   16.3391 C.ar      1 UNK         0.0000 
     29 C29        10.2888   51.1810   16.4489 C.ar      1 UNK         0.0000 
     30 C30        10.4120   50.1978   15.4732 C.ar      1 UNK         0.0000 
     31 C31         9.5424   50.1644   14.3862 C.ar      1 UNK         0.0000 
     32 C32         8.5468   51.1351   14.2702 C.ar      1 UNK         0.0000 
     33 F33        11.3932   49.2785   15.5782 F         1 UNK         0.0000 
     34 H34         0.1749   51.9842   28.0064 H         1 UNK         0.0000 
     35 H35         0.1889   52.8236   29.5424 H         1 UNK         0.0000 
     36 H36        -0.3237   53.6659   28.0907 H         1 UNK         0.0000 
     37 H37         5.9882   54.4963   29.4037 H         1 UNK         0.0000 
     38 H38         7.3584   54.8658   27.4077 H         1 UNK         0.0000 
     39 H39         7.0992   54.8783   22.4798 H         1 UNK         0.0000 
     40 H40         7.7210   56.1078   21.0254 H         1 UNK         0.0000 
     41 H41         9.0571   56.4065   18.9996 H         1 UNK         0.0000 
     42 H42         8.4831   55.2503   16.9388 H         1 UNK         0.0000 
     43 H43         5.1158   53.4234   18.8856 H         1 UNK         0.0000 
     44 H44         5.5212   52.9187   16.7348 H         1 UNK         0.0000 
     45 H45         9.2182   52.9100   17.1016 H         1 UNK         0.0000 
     46 H46        10.9715   51.1929   17.2815 H         1 UNK         0.0000 
     47 H47         9.6491   49.3997   13.6318 H         1 UNK         0.0000 
     48 H48         7.8820   51.1122   13.4178 H         1 UNK         0.0000 
@<TRIPOS>BOND
     1    1    2 1    
     2    1   34 1    
     3    1   35 1    
     4    1   36 1    
     5    2    6 1    
     6    2    3 2    
     7    3    4 1    
     8    4   10 ar   
     9    4    5 ar   
    10    5    6 1    
    11    5    7 ar   
    12    7    8 ar   
    13    7   37 1    
    14    8    9 ar   
    15    8   38 1    
    16    9   13 1    
    17    9   10 ar   
    18   10   11 1    
    19   11   12 1    
    20   12   13 2    
    21   12   14 am   BACKBONE|DICT|INTERRES
    22   14   15 am   BACKBONE|DICT|INTERRES
    23   14   39 1    
    24   15   16 2    
    25   15   17 1    
    26   17   22 ar   
    27   17   18 ar   
    28   18   19 ar   
    29   18   40 1    
    30   19   20 ar   
    31   19   41 1    
    32   20   21 ar   
    33   20   42 1    
    34   21   22 ar   
    35   21   23 1    
    36   22   43 1    
    37   23   24 1    
    38   23   44 1    
    39   24   25 2    
    40   24   26 2    
    41   24   27 1    
    42   27   32 ar   
    43   27   28 ar   
    44   28   29 ar   
    45   28   45 1    
    46   29   30 ar   
    47   29   46 1    
    48   30   31 ar   
    49   30   33 1    
    50   31   32 ar   
    51   31   47 1    
    52   32   48 1    
@<TRIPOS>SUBSTRUCTURE
     1 UNK         1 GROUP             0       ****    0 ROOT    
