@<TRIPOS>MOLECULE
ZINC02208082_932
64   68    1
SMALL
USER_CHARGES


@<TRIPOS>ATOM
      1 C1          5.7206   54.5992   24.6415 C.3       1 UNK         0.0000 
      2 C2          4.5882   54.0968   23.7777 C.2       1 UNK         0.0000 
      3 C3          3.2703   53.8037   24.1270 C.2       1 UNK         0.0000 
      4 C4          2.4594   53.2969   23.0915 C.2       1 UNK         0.0000 
      5 C5          3.1700   53.3177   21.8915 C.2       1 UNK         0.0000 
      6 S6          4.8162   53.8067   22.0816 S.3       1 UNK         0.0000 
      7 C7          1.0428   52.9877   23.2856 C.2       1 UNK         0.0000 
      8 O8          0.4331   53.6966   24.0817 O.2       1 UNK         0.0000 
      9 N9          0.4769   51.8531   22.7519 N.am      1 UNK         0.0000 
     10 C10        -0.8218   51.2131   23.1506 C.3       1 UNK         0.0000 
     11 H11        -1.3892   51.0335   22.2375 H         1 UNK         0.0000 
     12 C12        -1.8195   52.0067   24.0300 C.ar      1 UNK         0.0000 
     13 C13        -1.9364   51.7842   25.4125 C.ar      1 UNK         0.0000 
     14 C14        -2.9253   52.4227   26.1530 C.ar      1 UNK         0.0000 
     15 C15        -3.8044   53.2969   25.5228 C.ar      1 UNK         0.0000 
     16 C16        -3.6937   53.5440   24.1582 C.ar      1 UNK         0.0000 
     17 C17        -2.7041   52.8966   23.4184 C.ar      1 UNK         0.0000 
     18 C18        -0.5675   49.8379   23.7329 C.2       1 UNK         0.0000 
     19 C19        -1.1318   48.5890   23.5170 C.2       1 UNK         0.0000 
     20 C20        -0.5975   47.7382   24.4816 C.2       1 UNK         0.0000 
     21 C21         0.3044   48.4967   25.2047 C.2       1 UNK         0.0000 
     22 O22         0.3434   49.7632   24.7361 O.3       1 UNK         0.0000 
     23 N23         1.1018   51.2801   21.6230 N.am      1 UNK         0.0000 
     24 C24         0.6247   51.4659   20.3668 C.2       1 UNK         0.0000 
     25 O25        -0.4580   52.0254   20.1513 O.2       1 UNK         0.0000 
     26 C26         1.4840   50.9264   19.1555 C.3       1 UNK         0.0000 
     27 C27         0.7492   49.7886   18.3900 C.ar      1 UNK         0.0000 
     28 C28         1.1043   49.5102   17.0604 C.ar      1 UNK         0.0000 
     29 C29         0.5054   48.4678   16.3596 C.ar      1 UNK         0.0000 
     30 C30        -0.4505   47.6756   16.9865 C.ar      1 UNK         0.0000 
     31 C31        -0.8005   47.9108   18.3124 C.ar      1 UNK         0.0000 
     32 C32        -0.1969   48.9517   19.0123 C.ar      1 UNK         0.0000 
     33 C33         1.7986   52.1503   18.2427 C.ar      1 UNK         0.0000 
     34 C34         3.1038   52.6562   18.1138 C.ar      1 UNK         0.0000 
     35 C35         3.3628   53.7673   17.3172 C.ar      1 UNK         0.0000 
     36 C36         2.3206   54.3857   16.6338 C.ar      1 UNK         0.0000 
     37 C37         1.0221   53.8973   16.7358 C.ar      1 UNK         0.0000 
     38 C38         0.7653   52.7858   17.5326 C.ar      1 UNK         0.0000 
     39 O39         2.6899   50.3561   19.6791 O.3       1 UNK         0.0000 
     40 H40         5.4098   54.7470   25.6759 H         1 UNK         0.0000 
     41 H41         6.5538   53.8960   24.6554 H         1 UNK         0.0000 
     42 H42         6.1096   55.5525   24.2830 H         1 UNK         0.0000 
     43 H43         2.9077   53.9326   25.1371 H         1 UNK         0.0000 
     44 H44         2.8169   53.1023   20.8950 H         1 UNK         0.0000 
     45 H45        -1.2817   51.1007   25.9311 H         1 UNK         0.0000 
     46 H46        -3.0135   52.2271   27.2114 H         1 UNK         0.0000 
     47 H47        -4.5731   53.7912   26.0983 H         1 UNK         0.0000 
     48 H48        -4.3736   54.2333   23.6809 H         1 UNK         0.0000 
     49 H49        -2.6274   53.0670   22.3577 H         1 UNK         0.0000 
     50 H50        -1.8902   48.3456   22.7881 H         1 UNK         0.0000 
     51 H51        -0.8446   46.7015   24.6497 H         1 UNK         0.0000 
     52 H52         0.9598   48.2904   26.0373 H         1 UNK         0.0000 
     53 H53         2.0409   50.9545   21.8048 H         1 UNK         0.0000 
     54 H54         1.8681   50.0923   16.5630 H         1 UNK         0.0000 
     55 H55         0.7933   48.2710   15.3374 H         1 UNK         0.0000 
     56 H56        -0.9153   46.8661   16.4429 H         1 UNK         0.0000 
     57 H57        -1.5320   47.2835   18.7995 H         1 UNK         0.0000 
     58 H58        -0.4746   49.0911   20.0463 H         1 UNK         0.0000 
     59 H59         3.9363   52.1978   18.6277 H         1 UNK         0.0000 
     60 H60         4.3705   54.1463   17.2305 H         1 UNK         0.0000 
     61 H61         2.5224   55.2490   16.0170 H         1 UNK         0.0000 
     62 H62         0.2175   54.3781   16.1996 H         1 UNK         0.0000 
     63 H63        -0.2470   52.4155   17.6008 H         1 UNK         0.0000 
     64 H64         3.2542   50.1097   18.9323 H         1 UNK         0.0000 
@<TRIPOS>BOND
     1    1    2 1    
     2    1   40 1    
     3    1   41 1    
     4    1   42 1    
     5    2    6 1    
     6    2    3 2    
     7    3    4 1    
     8    3   43 1    
     9    4    5 2    
    10    4    7 1    
    11    5    6 1    
    12    5   44 1    
    13    7    8 2    
    14    7    9 am   BACKBONE|DICT|INTERRES
    15    9   10 1    
    16    9   23 1    
    17   10   11 1    
    18   10   12 1    
    19   10   18 1    
    20   12   17 ar   
    21   12   13 ar   
    22   13   14 ar   
    23   13   45 1    
    24   14   15 ar   
    25   14   46 1    
    26   15   16 ar   
    27   15   47 1    
    28   16   17 ar   
    29   16   48 1    
    30   17   49 1    
    31   18   22 1    
    32   18   19 2    
    33   19   20 1    
    34   19   50 1    
    35   20   21 2    
    36   20   51 1    
    37   21   22 1    
    38   21   52 1    
    39   23   24 am   BACKBONE|DICT|INTERRES
    40   23   53 1    
    41   24   25 2    
    42   24   26 1    
    43   26   27 1    
    44   26   33 1    
    45   26   39 1    
    46   27   32 ar   
    47   27   28 ar   
    48   28   29 ar   
    49   28   54 1    
    50   29   30 ar   
    51   29   55 1    
    52   30   31 ar   
    53   30   56 1    
    54   31   32 ar   
    55   31   57 1    
    56   32   58 1    
    57   33   38 ar   
    58   33   34 ar   
    59   34   35 ar   
    60   34   59 1    
    61   35   36 ar   
    62   35   60 1    
    63   36   37 ar   
    64   36   61 1    
    65   37   38 ar   
    66   37   62 1    
    67   38   63 1    
    68   39   64 1    
@<TRIPOS>SUBSTRUCTURE
     1 UNK         1 GROUP             0       ****    0 ROOT    
