@<TRIPOS>MOLECULE
ZINC39974291_4555
67   69    1
SMALL
USER_CHARGES


@<TRIPOS>ATOM
      1 C1          6.6884   54.9743   25.2184 C.3       1 UNK         0.0000 
      2 C2          5.4739   54.4952   24.4468 C.ar      1 UNK         0.0000 
      3 C3          5.5742   54.2121   23.0846 C.ar      1 UNK         0.0000 
      4 C4          4.4559   53.7891   22.3586 C.ar      1 UNK         0.0000 
      5 C5          3.2181   53.6296   23.0103 C.ar      1 UNK         0.0000 
      6 C6          3.1284   53.8741   24.3950 C.ar      1 UNK         0.0000 
      7 C7          4.2550   54.3118   25.0972 C.ar      1 UNK         0.0000 
      8 C8          1.8334   53.6795   25.1689 C.3       1 UNK         0.0000 
      9 N9          2.0850   53.2811   22.2578 N.pl3     1 UNK         0.0000 
     10 S10         1.5812   51.6056   21.9684 S.o2      1 UNK         0.0000 
     11 O11         2.7636   50.7456   22.0806 O.2       1 UNK         0.0000 
     12 O12         0.7723   51.6366   20.7460 O.2       1 UNK         0.0000 
     13 C13         0.4560   51.1990   23.2950 C.ar      1 UNK         0.0000 
     14 C14         0.6600   50.0825   24.1091 C.ar      1 UNK         0.0000 
     15 C15        -0.2313   49.8189   25.1492 C.ar      1 UNK         0.0000 
     16 C16        -1.3177   50.6698   25.3831 C.ar      1 UNK         0.0000 
     17 C17        -1.4962   51.7982   24.5713 C.ar      1 UNK         0.0000 
     18 C18        -0.6314   52.0396   23.5134 C.ar      1 UNK         0.0000 
     19 N19        -2.1387   50.3412   26.4816 N.pl3     1 UNK         0.0000 
     20 C20        -3.4307   50.6233   26.8373 C.2       1 UNK         0.0000 
     21 S21        -4.5469   51.4745   25.9098 S.2       1 UNK         0.0000 
     22 N22        -3.7028   50.0967   28.0722 N.pl3     1 UNK         0.0000 
     23 C23        -5.0095   50.1055   28.7553 C.3       1 UNK         0.0000 
     24 H24        -5.4592   51.0753   28.5472 H         1 UNK         0.0000 
     25 C25        -6.0004   49.0240   28.2307 C.3       1 UNK         0.0000 
     26 C26        -7.3604   49.0056   28.9680 C.3       1 UNK         0.0000 
     27 H27        -7.8700   49.9492   28.7756 H         1 UNK         0.0000 
     28 C28        -7.0832   48.8718   30.4810 C.3       1 UNK         0.0000 
     29 C29        -6.2812   50.0786   31.0396 C.3       1 UNK         0.0000 
     30 C30        -4.9021   50.0583   30.3091 C.3       1 UNK         0.0000 
     31 C31        -7.0155   51.4281   30.8367 C.3       1 UNK         0.0000 
     32 C32        -6.0509   49.8062   32.5441 C.3       1 UNK         0.0000 
     33 C33        -8.2646   47.8709   28.4548 C.3       1 UNK         0.0000 
     34 C34         4.6054   53.5371   20.8613 C.3       1 UNK         0.0000 
     35 H35         6.5887   54.7825   26.2874 H         1 UNK         0.0000 
     36 H36         7.5713   54.4352   24.8809 H         1 UNK         0.0000 
     37 H37         6.8535   56.0392   25.0508 H         1 UNK         0.0000 
     38 H38         6.5242   54.3430   22.5863 H         1 UNK         0.0000 
     39 H39         4.1853   54.5093   26.1574 H         1 UNK         0.0000 
     40 H40         1.8803   54.0991   26.1731 H         1 UNK         0.0000 
     41 H41         1.0022   54.1522   24.6465 H         1 UNK         0.0000 
     42 H42         1.6190   52.6178   25.2691 H         1 UNK         0.0000 
     43 H43         1.6141   54.0056   21.7336 H         1 UNK         0.0000 
     44 H44         1.5043   49.4258   23.9467 H         1 UNK         0.0000 
     45 H45        -0.0667   48.9549   25.7804 H         1 UNK         0.0000 
     46 H46        -2.2825   52.5124   24.7429 H         1 UNK         0.0000 
     47 H47        -0.7874   52.8983   22.8809 H         1 UNK         0.0000 
     48 H48        -1.6957   49.6656   27.0987 H         1 UNK         0.0000 
     49 H49        -2.9913   49.4997   28.4863 H         1 UNK         0.0000 
     50 H50        -5.5299   48.0467   28.3531 H         1 UNK         0.0000 
     51 H51        -6.1693   49.1243   27.1584 H         1 UNK         0.0000 
     52 H52        -6.5880   47.9216   30.6929 H         1 UNK         0.0000 
     53 H53        -8.0399   48.7962   31.0005 H         1 UNK         0.0000 
     54 H54        -4.2828   50.8822   30.6686 H         1 UNK         0.0000 
     55 H55        -4.3666   49.1469   30.5843 H         1 UNK         0.0000 
     56 H56        -7.0997   51.7346   29.7958 H         1 UNK         0.0000 
     57 H57        -6.4984   52.2301   31.3604 H         1 UNK         0.0000 
     58 H58        -8.0270   51.3854   31.2418 H         1 UNK         0.0000 
     59 H59        -5.6958   48.7941   32.7320 H         1 UNK         0.0000 
     60 H60        -5.3202   50.4959   32.9675 H         1 UNK         0.0000 
     61 H61        -6.9730   49.9247   33.1145 H         1 UNK         0.0000 
     62 H62        -7.8127   46.8919   28.6205 H         1 UNK         0.0000 
     63 H63        -9.2324   47.8786   28.9582 H         1 UNK         0.0000 
     64 H64        -8.4570   47.9726   27.3861 H         1 UNK         0.0000 
     65 H65         5.5795   53.8470   20.4821 H         1 UNK         0.0000 
     66 H66         4.4620   52.4797   20.6361 H         1 UNK         0.0000 
     67 H67         3.8491   54.0941   20.3061 H         1 UNK         0.0000 
@<TRIPOS>BOND
     1    1    2 1    
     2    1   35 1    
     3    1   36 1    
     4    1   37 1    
     5    2    7 ar   
     6    2    3 ar   
     7    3    4 ar   
     8    3   38 1    
     9    4    5 ar   
    10    4   34 1    
    11    5    6 ar   
    12    5    9 1    
    13    6    7 ar   
    14    6    8 1    
    15    7   39 1    
    16    8   40 1    
    17    8   41 1    
    18    8   42 1    
    19    9   10 1    
    20    9   43 1    
    21   10   11 2    
    22   10   12 2    
    23   10   13 1    
    24   13   18 ar   
    25   13   14 ar   
    26   14   15 ar   
    27   14   44 1    
    28   15   16 ar   
    29   15   45 1    
    30   16   17 ar   
    31   16   19 1    
    32   17   18 ar   
    33   17   46 1    
    34   18   47 1    
    35   19   20 1    
    36   19   48 1    
    37   20   21 2    
    38   20   22 1    
    39   22   23 1    
    40   22   49 1    
    41   23   24 1    
    42   23   30 1    
    43   23   25 1    
    44   25   26 1    
    45   25   50 1    
    46   25   51 1    
    47   26   27 1    
    48   26   28 1    
    49   26   33 1    
    50   28   29 1    
    51   28   52 1    
    52   28   53 1    
    53   29   30 1    
    54   29   31 1    
    55   29   32 1    
    56   30   54 1    
    57   30   55 1    
    58   31   56 1    
    59   31   57 1    
    60   31   58 1    
    61   32   59 1    
    62   32   60 1    
    63   32   61 1    
    64   33   62 1    
    65   33   63 1    
    66   33   64 1    
    67   34   65 1    
    68   34   66 1    
    69   34   67 1    
@<TRIPOS>SUBSTRUCTURE
     1 UNK         1 GROUP             0       ****    0 ROOT    
