@<TRIPOS>MOLECULE
ZINC39970884_5512
65   68    1
SMALL
USER_CHARGES


@<TRIPOS>ATOM
      1 C1          1.9487   53.9669   22.9385 C.3       1 UNK         0.0000 
      2 C2          3.3360   54.0926   23.5272 C.ar      1 UNK         0.0000 
      3 C3          4.5862   53.9382   22.9081 C.ar      1 UNK         0.0000 
      4 C4          5.5346   54.0968   23.9228 C.ar      1 UNK         0.0000 
      5 N5          4.7834   54.3404   25.0532 N.pl3     1 UNK         0.0000 
      6 N6          3.4681   54.3752   24.7996 N.2       1 UNK         0.0000 
      7 C7          5.2651   54.6204   26.4122 C.3       1 UNK         0.0000 
      8 C8          4.4598   54.0326   27.5736 C.ar      1 UNK         0.0000 
      9 C9          5.0214   53.0266   28.3622 C.ar      1 UNK         0.0000 
     10 C10         4.3030   52.4930   29.4281 C.ar      1 UNK         0.0000 
     11 C11         3.0267   52.9663   29.7119 C.ar      1 UNK         0.0000 
     12 C12         2.4622   53.9788   28.9419 C.ar      1 UNK         0.0000 
     13 C13         3.1798   54.5123   27.8742 C.ar      1 UNK         0.0000 
     14 F14         2.3370   52.4429   30.7496 F         1 UNK         0.0000 
     15 C15         7.0490   54.0127   23.9406 C.3       1 UNK         0.0000 
     16 N16         4.7706   53.5774   21.5805 N.pl3     1 UNK         0.0000 
     17 C17         5.5040   54.2341   20.6288 C.2       1 UNK         0.0000 
     18 S18         6.3063   55.6964   20.8481 S.2       1 UNK         0.0000 
     19 N19         5.4878   53.5208   19.4614 N.pl3     1 UNK         0.0000 
     20 C20         6.1251   53.6842   18.2192 C.ar      1 UNK         0.0000 
     21 C21         5.3928   53.2997   17.0951 C.ar      1 UNK         0.0000 
     22 C22         5.9952   53.2794   15.8425 C.ar      1 UNK         0.0000 
     23 C23         7.3375   53.6362   15.7155 C.ar      1 UNK         0.0000 
     24 C24         8.0703   54.0478   16.8309 C.ar      1 UNK         0.0000 
     25 C25         7.4641   54.0749   18.0833 C.ar      1 UNK         0.0000 
     26 S26         8.1337   53.4732   14.1217 S.o2      1 UNK         0.0000 
     27 O27         7.1363   53.8868   13.1284 O.2       1 UNK         0.0000 
     28 O28         9.4219   54.1716   14.2056 O.2       1 UNK         0.0000 
     29 N29         8.4173   51.7093   13.9484 N.pl3     1 UNK         0.0000 
     30 C30         9.1846   51.0754   15.0558 C.3       1 UNK         0.0000 
     31 C31        10.6912   51.4226   14.9785 C.3       1 UNK         0.0000 
     32 C32        11.2778   51.1782   13.5598 C.3       1 UNK         0.0000 
     33 C33        10.3671   51.6738   12.4033 C.3       1 UNK         0.0000 
     34 C34         8.9194   51.1872   12.6387 C.3       1 UNK         0.0000 
     35 H35         8.9490   50.0977   12.7095 H         1 UNK         0.0000 
     36 C36         7.9273   51.5211   11.5105 C.3       1 UNK         0.0000 
     37 H37         1.9711   53.6966   21.8836 H         1 UNK         0.0000 
     38 H38         1.3630   53.2021   23.4490 H         1 UNK         0.0000 
     39 H39         1.3905   54.8971   23.0141 H         1 UNK         0.0000 
     40 H40         5.3128   55.6968   26.5209 H         1 UNK         0.0000 
     41 H41         6.2962   54.2765   26.4898 H         1 UNK         0.0000 
     42 H42         6.0078   52.6438   28.1429 H         1 UNK         0.0000 
     43 H43         4.7302   51.7055   30.0303 H         1 UNK         0.0000 
     44 H44         1.4719   54.3443   29.1704 H         1 UNK         0.0000 
     45 H45         2.7377   55.2987   27.2806 H         1 UNK         0.0000 
     46 H46         7.4568   53.6998   22.9807 H         1 UNK         0.0000 
     47 H47         7.5002   54.9761   24.1773 H         1 UNK         0.0000 
     48 H48         7.4119   53.2966   24.6752 H         1 UNK         0.0000 
     49 H49         4.1140   52.8927   21.2362 H         1 UNK         0.0000 
     50 H50         4.8567   52.7318   19.4509 H         1 UNK         0.0000 
     51 H51         4.3683   52.9680   17.1918 H         1 UNK         0.0000 
     52 H52         5.4317   52.9464   14.9827 H         1 UNK         0.0000 
     53 H53         9.1144   54.3110   16.7392 H         1 UNK         0.0000 
     54 H54         8.0613   54.3374   18.9433 H         1 UNK         0.0000 
     55 H55         8.6920   51.2497   16.0129 H         1 UNK         0.0000 
     56 H56         9.1181   49.9949   14.9114 H         1 UNK         0.0000 
     57 H57        10.8540   52.4572   15.2789 H         1 UNK         0.0000 
     58 H58        11.2402   50.8268   15.7087 H         1 UNK         0.0000 
     59 H59        12.2668   51.6322   13.4775 H         1 UNK         0.0000 
     60 H60        11.4374   50.1060   13.4305 H         1 UNK         0.0000 
     61 H61        10.4124   52.7615   12.3578 H         1 UNK         0.0000 
     62 H62        10.7502   51.2945   11.4544 H         1 UNK         0.0000 
     63 H63         8.1581   50.9367   10.6202 H         1 UNK         0.0000 
     64 H64         6.8989   51.2921   11.7922 H         1 UNK         0.0000 
     65 H65         7.9798   52.5684   11.2138 H         1 UNK         0.0000 
@<TRIPOS>BOND
     1    1    2 1    
     2    1   37 1    
     3    1   38 1    
     4    1   39 1    
     5    2    6 ar   
     6    2    3 ar   
     7    3    4 ar   
     8    3   16 1    
     9    4    5 ar   
    10    4   15 1    
    11    5    6 ar   
    12    5    7 1    
    13    7    8 1    
    14    7   40 1    
    15    7   41 1    
    16    8   13 ar   
    17    8    9 ar   
    18    9   10 ar   
    19    9   42 1    
    20   10   11 ar   
    21   10   43 1    
    22   11   12 ar   
    23   11   14 1    
    24   12   13 ar   
    25   12   44 1    
    26   13   45 1    
    27   15   46 1    
    28   15   47 1    
    29   15   48 1    
    30   16   17 1    
    31   16   49 1    
    32   17   18 2    
    33   17   19 1    
    34   19   20 1    
    35   19   50 1    
    36   20   25 ar   
    37   20   21 ar   
    38   21   22 ar   
    39   21   51 1    
    40   22   23 ar   
    41   22   52 1    
    42   23   24 ar   
    43   23   26 1    
    44   24   25 ar   
    45   24   53 1    
    46   25   54 1    
    47   26   27 2    
    48   26   28 2    
    49   26   29 1    
    50   29   34 1    
    51   29   30 1    
    52   30   31 1    
    53   30   55 1    
    54   30   56 1    
    55   31   32 1    
    56   31   57 1    
    57   31   58 1    
    58   32   33 1    
    59   32   59 1    
    60   32   60 1    
    61   33   34 1    
    62   33   61 1    
    63   33   62 1    
    64   34   35 1    
    65   34   36 1    
    66   36   63 1    
    67   36   64 1    
    68   36   65 1    
@<TRIPOS>SUBSTRUCTURE
     1 UNK         1 GROUP             0       ****    0 ROOT    
