@<TRIPOS>MOLECULE
ZINC39678242_644
74   78    1
SMALL
USER_CHARGES


@<TRIPOS>ATOM
      1 C1          6.3104   54.5015   25.7031 C.ar      1 UNK         0.0000 
      2 C2          6.4497   54.4420   27.0872 C.ar      1 UNK         0.0000 
      3 C3          5.3287   54.2445   27.8910 C.ar      1 UNK         0.0000 
      4 C4          4.0490   54.1112   27.3288 C.ar      1 UNK         0.0000 
      5 C5          3.9246   54.1139   25.9221 C.ar      1 UNK         0.0000 
      6 C6          5.0534   54.3431   25.1254 C.ar      1 UNK         0.0000 
      7 C7          2.5657   54.0196   25.2327 C.3       1 UNK         0.0000 
      8 N8          2.3043   52.7255   24.6211 N.am      1 UNK         0.0000 
      9 C9          1.5710   52.5446   23.5169 C.2       1 UNK         0.0000 
     10 O10         1.1045   53.4912   22.8871 O.2       1 UNK         0.0000 
     11 C11         1.3937   51.0776   23.0504 C.3       1 UNK         0.0000 
     12 H12         2.3194   50.5391   23.2564 H         1 UNK         0.0000 
     13 C13         1.1572   51.0676   21.5203 C.3       1 UNK         0.0000 
     14 N14         0.2579   49.9310   21.3155 N.am      1 UNK         0.0000 
     15 C15        -0.0805   49.2653   22.5695 C.3       1 UNK         0.0000 
     16 C16         0.1775   50.3206   23.6676 C.3       1 UNK         0.0000 
     17 C17         0.5033   49.7032   25.0490 C.3       1 UNK         0.0000 
     18 C18        -0.6063   48.7429   25.5036 C.3       1 UNK         0.0000 
     19 N19        -1.9045   49.5612   25.6682 N.4       1 UNK         0.0000 
     20 C20        -2.3046   50.3734   24.4096 C.3       1 UNK         0.0000 
     21 C21        -1.0884   51.2029   23.9243 C.3       1 UNK         0.0000 
     22 C22        -0.4062   49.6789   20.1612 C.2       1 UNK         0.0000 
     23 O23        -1.2910   48.8261   20.0696 O.2       1 UNK         0.0000 
     24 C24        -0.0355   50.4960   18.9447 C.ar      1 UNK         0.0000 
     25 C25         1.2495   50.3336   18.4047 C.ar      1 UNK         0.0000 
     26 C26         1.6448   51.0420   17.2757 C.ar      1 UNK         0.0000 
     27 C27         0.7600   51.9213   16.6633 C.ar      1 UNK         0.0000 
     28 C28        -0.5196   52.0935   17.1844 C.ar      1 UNK         0.0000 
     29 C29        -0.9446   51.3892   18.3227 C.ar      1 UNK         0.0000 
     30 C30        -2.3443   51.6985   18.8873 C.3       1 UNK         0.0000 
     31 F31        -2.7901   52.8886   18.4804 F         1 UNK         0.0000 
     32 F32        -3.2139   50.7538   18.5335 F         1 UNK         0.0000 
     33 F33        -2.3216   51.7859   20.2187 F         1 UNK         0.0000 
     34 N34         2.9387   53.9029   28.1419 N.pl3     1 UNK         0.0000 
     35 C35         2.7997   54.6576   29.3978 C.3       1 UNK         0.0000 
     36 C36         1.3490   54.6414   29.9268 C.3       1 UNK         0.0000 
     37 C37         0.8361   53.2101   30.1365 C.3       1 UNK         0.0000 
     38 C38         1.0718   52.3851   28.8648 C.3       1 UNK         0.0000 
     39 C39         2.5232   52.5060   28.3542 C.3       1 UNK         0.0000 
     40 H40         7.1739   54.6618   25.0733 H         1 UNK         0.0000 
     41 H41         7.4223   54.5538   27.5443 H         1 UNK         0.0000 
     42 H42         5.4628   54.2054   28.9618 H         1 UNK         0.0000 
     43 H43         4.9575   54.3888   24.0497 H         1 UNK         0.0000 
     44 H44         1.7529   54.1806   25.9384 H         1 UNK         0.0000 
     45 H45         2.4905   54.8303   24.4999 H         1 UNK         0.0000 
     46 H46         2.6201   51.9189   25.1376 H         1 UNK         0.0000 
     47 H47         0.5894   51.9445   21.2017 H         1 UNK         0.0000 
     48 H48         2.0972   50.9618   20.9759 H         1 UNK         0.0000 
     49 H49         0.6760   48.4973   22.7259 H         1 UNK         0.0000 
     50 H50        -1.0545   48.7807   22.6227 H         1 UNK         0.0000 
     51 H51         1.4152   49.1079   24.9778 H         1 UNK         0.0000 
     52 H52         0.7048   50.4675   25.8007 H         1 UNK         0.0000 
     53 H53        -0.8128   47.9335   24.8016 H         1 UNK         0.0000 
     54 H54        -0.4055   48.3060   26.4812 H         1 UNK         0.0000 
     55 H55        -2.6485   48.9368   25.9526 H         1 UNK         0.0000 
     56 H56        -2.6692   49.6573   23.6728 H         1 UNK         0.0000 
     57 H57        -3.1406   51.0063   24.7114 H         1 UNK         0.0000 
     58 H58        -0.8824   52.0107   24.6287 H         1 UNK         0.0000 
     59 H59        -1.3731   51.7018   22.9954 H         1 UNK         0.0000 
     60 H60         1.9617   49.6519   18.8517 H         1 UNK         0.0000 
     61 H61         2.6426   50.9030   16.8794 H         1 UNK         0.0000 
     62 H62         1.0698   52.4717   15.7866 H         1 UNK         0.0000 
     63 H63        -1.1789   52.7914   16.6900 H         1 UNK         0.0000 
     64 H64         3.4907   54.2567   30.1410 H         1 UNK         0.0000 
     65 H65         3.0881   55.6954   29.2181 H         1 UNK         0.0000 
     66 H66         1.2990   55.1870   30.8705 H         1 UNK         0.0000 
     67 H67         0.7045   55.1945   29.2422 H         1 UNK         0.0000 
     68 H68        -0.2225   53.2127   30.4009 H         1 UNK         0.0000 
     69 H69         1.3591   52.7492   30.9758 H         1 UNK         0.0000 
     70 H70         0.3798   52.6717   28.0729 H         1 UNK         0.0000 
     71 H71         0.8507   51.3365   29.0703 H         1 UNK         0.0000 
     72 H72         2.5871   51.9768   27.4042 H         1 UNK         0.0000 
     73 H73         3.2213   52.0162   29.0341 H         1 UNK         0.0000 
     74 H74        -1.7719   50.1854   26.4527 H         1 UNK         0.0000 
@<TRIPOS>BOND
     1    1    6 ar   
     2    1    2 ar   
     3    1   40 1    
     4    2    3 ar   
     5    2   41 1    
     6    3    4 ar   
     7    3   42 1    
     8    4    5 ar   
     9    4   34 1    
    10    5    6 ar   
    11    5    7 1    
    12    6   43 1    
    13    7    8 1    
    14    7   44 1    
    15    7   45 1    
    16    8    9 am   BACKBONE|DICT|INTERRES
    17    8   46 1    
    18    9   10 2    
    19    9   11 1    
    20   11   12 1    
    21   11   16 1    
    22   11   13 1    
    23   13   14 1    
    24   13   47 1    
    25   13   48 1    
    26   14   15 1    
    27   14   22 am   BACKBONE|DICT|INTERRES
    28   15   16 1    
    29   15   49 1    
    30   15   50 1    
    31   16   21 1    
    32   16   17 1    
    33   17   18 1    
    34   17   51 1    
    35   17   52 1    
    36   18   19 1    
    37   18   53 1    
    38   18   54 1    
    39   19   20 1    
    40   19   55 1    
    41   19   74 1    
    42   20   21 1    
    43   20   56 1    
    44   20   57 1    
    45   21   58 1    
    46   21   59 1    
    47   22   23 2    
    48   22   24 1    
    49   24   29 ar   
    50   24   25 ar   
    51   25   26 ar   
    52   25   60 1    
    53   26   27 ar   
    54   26   61 1    
    55   27   28 ar   
    56   27   62 1    
    57   28   29 ar   
    58   28   63 1    
    59   29   30 1    
    60   30   31 1    
    61   30   32 1    
    62   30   33 1    
    63   34   39 1    
    64   34   35 1    
    65   35   36 1    
    66   35   64 1    
    67   35   65 1    
    68   36   37 1    
    69   36   66 1    
    70   36   67 1    
    71   37   38 1    
    72   37   68 1    
    73   37   69 1    
    74   38   39 1    
    75   38   70 1    
    76   38   71 1    
    77   39   72 1    
    78   39   73 1    
@<TRIPOS>SUBSTRUCTURE
     1 UNK         1 GROUP             0       ****    0 ROOT    
