@<TRIPOS>MOLECULE
ZINC04235469_1013
61   65    1
SMALL
USER_CHARGES


@<TRIPOS>ATOM
      1 C1          4.4372   53.9325   28.0732 C.ar      1 UNK         0.0000 
      2 C2          3.8047   54.4960   26.9678 C.ar      1 UNK         0.0000 
      3 C3          4.5550   54.8486   25.8489 C.ar      1 UNK         0.0000 
      4 C4          5.9358   54.6091   25.8230 C.ar      1 UNK         0.0000 
      5 C5          6.5587   54.0718   26.9472 C.ar      1 UNK         0.0000 
      6 C6          5.8137   53.7254   28.0682 C.ar      1 UNK         0.0000 
      7 O7          6.7431   54.9260   24.7499 O.3       1 UNK         0.0000 
      8 C8          6.3664   54.7473   23.4315 C.ar      1 UNK         0.0000 
      9 C9          7.0969   55.4481   22.4701 C.ar      1 UNK         0.0000 
     10 C10         6.7666   55.3495   21.1226 C.ar      1 UNK         0.0000 
     11 C11         5.7134   54.5168   20.7235 C.ar      1 UNK         0.0000 
     12 C12         4.9963   53.7918   21.6731 C.ar      1 UNK         0.0000 
     13 C13         5.3369   53.8887   23.0185 C.ar      1 UNK         0.0000 
     14 N14         5.3263   54.3995   19.3865 N.am      1 UNK         0.0000 
     15 C15         6.1613   54.4193   18.2675 C.2       1 UNK         0.0000 
     16 O16         7.3904   54.4276   18.2930 O.2       1 UNK         0.0000 
     17 O17         5.4762   54.4204   17.0832 O.3       1 UNK         0.0000 
     18 C18         4.0672   54.6523   16.9402 C.3       1 UNK         0.0000 
     19 H19         3.5256   53.9135   17.5344 H         1 UNK         0.0000 
     20 C20         3.6621   54.5226   15.4786 C.3       1 UNK         0.0000 
     21 O21         2.4349   55.2455   15.4218 O.3       1 UNK         0.0000 
     22 C22         2.4636   56.3441   16.3409 C.3       1 UNK         0.0000 
     23 H23         1.5423   56.3458   16.9286 H         1 UNK         0.0000 
     24 C24         3.6546   56.0824   17.2660 C.3       1 UNK         0.0000 
     25 H25         3.4054   56.1928   18.3231 H         1 UNK         0.0000 
     26 O26         4.6263   57.0661   16.9034 O.3       1 UNK         0.0000 
     27 C27         3.9614   58.2284   16.4281 C.3       1 UNK         0.0000 
     28 C28         2.7511   57.6855   15.6682 C.3       1 UNK         0.0000 
     29 H29         3.0826   57.4802   14.6464 H         1 UNK         0.0000 
     30 N30         1.6226   58.6189   15.6814 N.am      1 UNK         0.0000 
     31 C31         0.5586   58.5646   14.8637 C.2       1 UNK         0.0000 
     32 O32         0.4082   57.6983   14.0026 O.2       1 UNK         0.0000 
     33 C33        -0.4927   59.6198   15.0940 C.ar      1 UNK         0.0000 
     34 C34        -0.1359   60.9278   15.4504 C.ar      1 UNK         0.0000 
     35 C35        -1.1206   61.8832   15.6837 C.ar      1 UNK         0.0000 
     36 C36        -2.4728   61.5448   15.5732 C.ar      1 UNK         0.0000 
     37 C37        -2.8298   60.2452   15.1997 C.ar      1 UNK         0.0000 
     38 C38        -1.8458   59.2915   14.9528 C.ar      1 UNK         0.0000 
     39 C39        -3.5591   62.5691   15.9006 C.3       1 UNK         0.0000 
     40 F40        -3.9723   63.1537   14.7754 F         1 UNK         0.0000 
     41 F41        -4.6065   61.9765   16.4816 F         1 UNK         0.0000 
     42 F42        -3.1121   63.5100   16.7373 F         1 UNK         0.0000 
     43 H43         3.8562   53.6580   28.9416 H         1 UNK         0.0000 
     44 H44         2.7364   54.6587   26.9791 H         1 UNK         0.0000 
     45 H45         4.0621   55.2952   24.9980 H         1 UNK         0.0000 
     46 H46         7.6232   53.9040   26.9480 H         1 UNK         0.0000 
     47 H47         6.3074   53.2970   28.9231 H         1 UNK         0.0000 
     48 H48         7.9027   56.0966   22.7776 H         1 UNK         0.0000 
     49 H49         7.3306   55.9181   20.3978 H         1 UNK         0.0000 
     50 H50         4.1865   53.1434   21.3701 H         1 UNK         0.0000 
     51 H51         4.7874   53.2987   23.7364 H         1 UNK         0.0000 
     52 H52         4.3535   54.2071   19.2167 H         1 UNK         0.0000 
     53 H53         4.3932   54.9507   14.7906 H         1 UNK         0.0000 
     54 H54         3.5217   53.4852   15.1745 H         1 UNK         0.0000 
     55 H55         4.6009   58.8696   15.8185 H         1 UNK         0.0000 
     56 H56         3.6877   58.8549   17.2795 H         1 UNK         0.0000 
     57 H57         1.6006   59.2931   16.4370 H         1 UNK         0.0000 
     58 H58         0.9027   61.2119   15.5531 H         1 UNK         0.0000 
     59 H59        -0.8232   62.8845   15.9627 H         1 UNK         0.0000 
     60 H60        -3.8696   59.9669   15.0994 H         1 UNK         0.0000 
     61 H61        -2.1425   58.2920   14.6668 H         1 UNK         0.0000 
@<TRIPOS>BOND
     1    1    6 ar   
     2    1    2 ar   
     3    1   43 1    
     4    2    3 ar   
     5    2   44 1    
     6    3    4 ar   
     7    3   45 1    
     8    4    5 ar   
     9    4    7 1    
    10    5    6 ar   
    11    5   46 1    
    12    6   47 1    
    13    7    8 1    
    14    8   13 ar   
    15    8    9 ar   
    16    9   10 ar   
    17    9   48 1    
    18   10   11 ar   
    19   10   49 1    
    20   11   12 ar   
    21   11   14 1    
    22   12   13 ar   
    23   12   50 1    
    24   13   51 1    
    25   14   15 am   BACKBONE|DICT|INTERRES
    26   14   52 1    
    27   15   16 2    
    28   15   17 1    
    29   17   18 1    
    30   18   19 1    
    31   18   24 1    
    32   18   20 1    
    33   20   21 1    
    34   20   53 1    
    35   20   54 1    
    36   21   22 1    
    37   22   23 1    
    38   22   28 1    
    39   22   24 1    
    40   24   25 1    
    41   24   26 1    
    42   26   27 1    
    43   27   28 1    
    44   27   55 1    
    45   27   56 1    
    46   28   29 1    
    47   28   30 1    
    48   30   31 am   BACKBONE|DICT|INTERRES
    49   30   57 1    
    50   31   32 2    
    51   31   33 1    
    52   33   38 ar   
    53   33   34 ar   
    54   34   35 ar   
    55   34   58 1    
    56   35   36 ar   
    57   35   59 1    
    58   36   37 ar   
    59   36   39 1    
    60   37   38 ar   
    61   37   60 1    
    62   38   61 1    
    63   39   40 1    
    64   39   41 1    
    65   39   42 1    
@<TRIPOS>SUBSTRUCTURE
     1 UNK         1 GROUP             0       ****    0 ROOT    
