@<TRIPOS>MOLECULE
ZINC12564597_3512
47   50    1
SMALL
USER_CHARGES


@<TRIPOS>ATOM
      1 C1          0.3965   51.8187   26.9156 C.3       1 UNK         0.0000 
      2 C2          1.6417   52.6866   27.0883 C.2       1 UNK         0.0000 
      3 C3          2.3184   53.3523   26.1130 C.2       1 UNK         0.0000 
      4 C4          3.4941   54.2850   26.5289 C.3       1 UNK         0.0000 
      5 H5          3.1043   55.2969   26.5056 H         1 UNK         0.0000 
      6 N6          3.8542   54.0118   27.9479 N.am      1 UNK         0.0000 
      7 C7          3.0124   53.5335   28.8960 C.2       1 UNK         0.0000 
      8 O8          3.1043   53.8413   30.0814 O.2       1 UNK         0.0000 
      9 N9          1.9938   52.7934   28.4001 N.am      1 UNK         0.0000 
     10 C10         4.7560   54.2587   25.6602 C.2       1 UNK         0.0000 
     11 C11         6.1123   54.0964   25.9234 C.2       1 UNK         0.0000 
     12 C12         6.7817   54.2108   24.7044 C.2       1 UNK         0.0000 
     13 C13         5.8288   54.4499   23.7363 C.2       1 UNK         0.0000 
     14 O14         4.6056   54.4964   24.3286 O.3       1 UNK         0.0000 
     15 C15         5.8998   54.6737   22.2680 C.ar      1 UNK         0.0000 
     16 C16         4.8405   54.2780   21.4471 C.ar      1 UNK         0.0000 
     17 C17         4.9061   54.4967   20.0734 C.ar      1 UNK         0.0000 
     18 C18         6.0255   55.1203   19.5257 C.ar      1 UNK         0.0000 
     19 C19         7.0823   55.5235   20.3393 C.ar      1 UNK         0.0000 
     20 C20         7.0213   55.2967   21.7118 C.ar      1 UNK         0.0000 
     21 F21         6.0862   55.3401   18.1934 F         1 UNK         0.0000 
     22 C22         1.9312   53.3353   24.7101 C.2       1 UNK         0.0000 
     23 O23         1.7388   54.3724   24.0762 O.2       1 UNK         0.0000 
     24 N24         1.9038   52.0935   24.1873 N.am      1 UNK         0.0000 
     25 C25         1.7456   51.6574   22.8623 C.ar      1 UNK         0.0000 
     26 C26         1.9067   50.2841   22.6566 C.ar      1 UNK         0.0000 
     27 C27         1.8319   49.7530   21.3733 C.ar      1 UNK         0.0000 
     28 C28         1.5796   50.5934   20.2930 C.ar      1 UNK         0.0000 
     29 C29         1.3990   51.9607   20.4870 C.ar      1 UNK         0.0000 
     30 C30         1.4819   52.4965   21.7697 C.ar      1 UNK         0.0000 
     31 Br31        1.4818   49.8671   18.5377 Br        1 UNK         0.0000 
     32 H32        -0.0893   51.9537   25.9486 H         1 UNK         0.0000 
     33 H33         0.6531   50.7605   27.0189 H         1 UNK         0.0000 
     34 H34        -0.3564   52.0543   27.6714 H         1 UNK         0.0000 
     35 H35         4.7084   54.4231   28.2929 H         1 UNK         0.0000 
     36 H36         1.4533   52.3132   29.1022 H         1 UNK         0.0000 
     37 H37         6.5641   53.9004   26.8850 H         1 UNK         0.0000 
     38 H38         7.8409   54.1174   24.5201 H         1 UNK         0.0000 
     39 H39         3.9683   53.8014   21.8713 H         1 UNK         0.0000 
     40 H40         4.0901   54.1916   19.4356 H         1 UNK         0.0000 
     41 H41         7.9467   56.0021   19.9013 H         1 UNK         0.0000 
     42 H42         7.8423   55.6134   22.3401 H         1 UNK         0.0000 
     43 H43         2.0658   51.3535   24.8502 H         1 UNK         0.0000 
     44 H44         2.1159   49.6210   23.4849 H         1 UNK         0.0000 
     45 H45         1.9794   48.6944   21.2146 H         1 UNK         0.0000 
     46 H46         1.2098   52.6102   19.6440 H         1 UNK         0.0000 
     47 H47         1.3581   53.5622   21.8786 H         1 UNK         0.0000 
@<TRIPOS>BOND
     1    1    2 1    
     2    1   32 1    
     3    1   33 1    
     4    1   34 1    
     5    2    9 1    
     6    2    3 2    
     7    3    4 1    
     8    3   22 1    
     9    4    5 1    
    10    4    6 1    
    11    4   10 1    
    12    6    7 am   BACKBONE|DICT|INTERRES
    13    6   35 1    
    14    7    8 2    
    15    7    9 am   BACKBONE|DICT|INTERRES
    16    9   36 1    
    17   10   14 1    
    18   10   11 2    
    19   11   12 1    
    20   11   37 1    
    21   12   13 2    
    22   12   38 1    
    23   13   14 1    
    24   13   15 1    
    25   15   20 ar   
    26   15   16 ar   
    27   16   17 ar   
    28   16   39 1    
    29   17   18 ar   
    30   17   40 1    
    31   18   19 ar   
    32   18   21 1    
    33   19   20 ar   
    34   19   41 1    
    35   20   42 1    
    36   22   23 2    
    37   22   24 am   BACKBONE|DICT|INTERRES
    38   24   25 1    
    39   24   43 1    
    40   25   30 ar   
    41   25   26 ar   
    42   26   27 ar   
    43   26   44 1    
    44   27   28 ar   
    45   27   45 1    
    46   28   29 ar   
    47   28   31 1    
    48   29   30 ar   
    49   29   46 1    
    50   30   47 1    
@<TRIPOS>SUBSTRUCTURE
     1 UNK         1 GROUP             0       ****    0 ROOT    
