@<TRIPOS>MOLECULE
ZINC60044323_2940
69   72    1
SMALL
USER_CHARGES


@<TRIPOS>ATOM
      1 C1          6.7043   55.0217   25.7631 C.ar      1 UNK         0.0000 
      2 C2          6.7946   54.9001   27.1490 C.ar      1 UNK         0.0000 
      3 C3          5.7937   54.2693   27.8712 C.ar      1 UNK         0.0000 
      4 C4          4.7158   53.7135   27.1905 C.ar      1 UNK         0.0000 
      5 C5          4.6512   53.7959   25.7947 C.ar      1 UNK         0.0000 
      6 C6          5.6305   54.4700   25.0803 C.ar      1 UNK         0.0000 
      7 C7          3.7187   52.8602   27.9498 C.3       1 UNK         0.0000 
      8 N8          2.3369   53.4281   28.3353 N.4       1 UNK         0.0000 
      9 C9          2.3898   54.3746   29.5601 C.3       1 UNK         0.0000 
     10 C10         1.2179   54.0588   30.5120 C.3       1 UNK         0.0000 
     11 C11        -0.1700   53.6905   29.9650 C.3       1 UNK         0.0000 
     12 C12        -0.2933   52.7838   31.1869 C.3       1 UNK         0.0000 
     13 C13         1.2354   52.6993   31.2281 C.3       1 UNK         0.0000 
     14 C14         1.6085   54.0995   27.2039 C.3       1 UNK         0.0000 
     15 C15         1.3038   53.2005   25.9847 C.2       1 UNK         0.0000 
     16 O16         1.5038   53.6968   24.8777 O.2       1 UNK         0.0000 
     17 N17         0.7787   51.9673   26.1657 N.am      1 UNK         0.0000 
     18 C18         0.5175   51.0012   25.1652 C.ar      1 UNK         0.0000 
     19 C19        -0.3490   49.9527   25.4837 C.ar      1 UNK         0.0000 
     20 C20        -0.6245   48.9514   24.5483 C.ar      1 UNK         0.0000 
     21 C21        -0.0203   48.9751   23.2890 C.ar      1 UNK         0.0000 
     22 C22         0.8800   49.9936   22.9667 C.ar      1 UNK         0.0000 
     23 C23         1.1333   51.0024   23.8988 C.ar      1 UNK         0.0000 
     24 S24         1.7698   50.0210   21.3980 S.o2      1 UNK         0.0000 
     25 O25         3.0984   50.4966   21.7972 O.2       1 UNK         0.0000 
     26 O26         1.6975   48.6419   20.9014 O.2       1 UNK         0.0000 
     27 N27         0.7365   51.2078   20.6116 N.2       1 UNK         0.0000 
     28 C28         0.7111   51.2348   19.3388 C.2       1 UNK         0.0000 
     29 C29        -0.1157   52.2536   18.5608 C.3       1 UNK         0.0000 
     30 C30         0.6656   53.1731   17.5930 C.3       1 UNK         0.0000 
     31 C31         0.9906   52.5535   16.2225 C.3       1 UNK         0.0000 
     32 C32         1.8934   51.3078   16.2441 C.3       1 UNK         0.0000 
     33 C33         1.3783   50.1319   17.0906 C.3       1 UNK         0.0000 
     34 N34         1.4361   50.3694   18.5273 N.pl3     1 UNK         0.0000 
     35 H35         7.4797   55.5167   25.1943 H         1 UNK         0.0000 
     36 H36         7.6430   55.2966   27.6817 H         1 UNK         0.0000 
     37 H37         5.8865   54.1836   28.9435 H         1 UNK         0.0000 
     38 H38         3.8780   53.2983   25.2346 H         1 UNK         0.0000 
     39 H39         5.5776   54.5252   24.0025 H         1 UNK         0.0000 
     40 H40         3.3934   52.0963   27.2812 H         1 UNK         0.0000 
     41 H41         4.1369   52.3855   28.8408 H         1 UNK         0.0000 
     42 H42         3.3443   54.2124   30.0653 H         1 UNK         0.0000 
     43 H43         2.3926   55.4016   29.1911 H         1 UNK         0.0000 
     44 H44         1.1303   54.8926   31.2189 H         1 UNK         0.0000 
     45 H45        -0.8957   54.4967   29.9160 H         1 UNK         0.0000 
     46 H46        -0.2002   53.0970   29.0518 H         1 UNK         0.0000 
     47 H47        -0.7127   53.2969   32.0578 H         1 UNK         0.0000 
     48 H48        -0.8201   51.8411   31.0195 H         1 UNK         0.0000 
     49 H49         1.6095   51.8672   30.6292 H         1 UNK         0.0000 
     50 H50         1.6761   52.6633   32.2259 H         1 UNK         0.0000 
     51 H51         0.7071   54.5517   27.6247 H         1 UNK         0.0000 
     52 H52         2.2877   54.8966   26.9073 H         1 UNK         0.0000 
     53 H53         0.5150   51.6915   27.0995 H         1 UNK         0.0000 
     54 H54        -0.8222   49.8955   26.4571 H         1 UNK         0.0000 
     55 H55        -1.2993   48.1490   24.8104 H         1 UNK         0.0000 
     56 H56        -0.2312   48.1876   22.5804 H         1 UNK         0.0000 
     57 H57         1.8577   51.7523   23.6252 H         1 UNK         0.0000 
     58 H58        -0.9353   51.7513   18.0468 H         1 UNK         0.0000 
     59 H59        -0.6146   52.8961   19.2819 H         1 UNK         0.0000 
     60 H60         0.0852   54.0834   17.4310 H         1 UNK         0.0000 
     61 H61         1.5869   53.5153   18.0699 H         1 UNK         0.0000 
     62 H62         1.4659   53.3135   15.6007 H         1 UNK         0.0000 
     63 H63         0.0563   52.3081   15.7156 H         1 UNK         0.0000 
     64 H64         2.8959   51.5750   16.5844 H         1 UNK         0.0000 
     65 H65         2.0285   50.9573   15.2208 H         1 UNK         0.0000 
     66 H66         1.9043   49.2122   16.8310 H         1 UNK         0.0000 
     67 H67         0.3313   49.9478   16.8447 H         1 UNK         0.0000 
     68 H68         2.0059   49.6874   19.0100 H         1 UNK         0.0000 
     69 H69         1.8034   52.6296   28.6502 H         1 UNK         0.0000 
@<TRIPOS>BOND
     1    1    6 ar   
     2    1    2 ar   
     3    1   35 1    
     4    2    3 ar   
     5    2   36 1    
     6    3    4 ar   
     7    3   37 1    
     8    4    5 ar   
     9    4    7 1    
    10    5    6 ar   
    11    5   38 1    
    12    6   39 1    
    13    7    8 1    
    14    7   40 1    
    15    7   41 1    
    16    8    9 1    
    17    8   14 1    
    18    8   69 1    
    19    9   10 1    
    20    9   42 1    
    21    9   43 1    
    22   10   13 1    
    23   10   11 1    
    24   10   44 1    
    25   11   12 1    
    26   11   45 1    
    27   11   46 1    
    28   12   13 1    
    29   12   47 1    
    30   12   48 1    
    31   13   49 1    
    32   13   50 1    
    33   14   15 1    
    34   14   51 1    
    35   14   52 1    
    36   15   16 2    
    37   15   17 am   BACKBONE|DICT|INTERRES
    38   17   18 1    
    39   17   53 1    
    40   18   23 ar   
    41   18   19 ar   
    42   19   20 ar   
    43   19   54 1    
    44   20   21 ar   
    45   20   55 1    
    46   21   22 ar   
    47   21   56 1    
    48   22   23 ar   
    49   22   24 1    
    50   23   57 1    
    51   24   25 2    
    52   24   26 2    
    53   24   27 1    
    54   27   28 2    
    55   28   34 1    
    56   28   29 1    
    57   29   30 1    
    58   29   58 1    
    59   29   59 1    
    60   30   31 1    
    61   30   60 1    
    62   30   61 1    
    63   31   32 1    
    64   31   62 1    
    65   31   63 1    
    66   32   33 1    
    67   32   64 1    
    68   32   65 1    
    69   33   34 1    
    70   33   66 1    
    71   33   67 1    
    72   34   68 1    
@<TRIPOS>SUBSTRUCTURE
     1 UNK         1 GROUP             0       ****    0 ROOT    
