@<TRIPOS>MOLECULE
ZINC35684919_2022
50   53    1
SMALL
USER_CHARGES


@<TRIPOS>ATOM
      1 C1          5.8889   53.5509   28.3314 C.3       1 UNK         0.0000 
      2 C2          4.4538   53.6990   27.8792 C.ar      1 UNK         0.0000 
      3 C3          3.9704   54.1207   26.6197 C.ar      1 UNK         0.0000 
      4 N4          2.6544   54.0659   26.5556 N.2       1 UNK         0.0000 
      5 N5          2.2447   53.5963   27.7384 N.pl3     1 UNK         0.0000 
      6 C6          3.3058   53.3729   28.6008 C.ar      1 UNK         0.0000 
      7 N7          3.1384   52.8732   29.8677 N.2       1 UNK         0.0000 
      8 C8          1.9574   52.6860   30.3047 C.2       1 UNK         0.0000 
      9 C9          0.6519   53.0209   29.5662 C.3       1 UNK         0.0000 
     10 C10         0.8749   53.0877   28.0034 C.3       1 UNK         0.0000 
     11 H11         0.1289   53.6968   27.5135 H         1 UNK         0.0000 
     12 C12         0.7035   51.7037   27.3426 C.2       1 UNK         0.0000 
     13 O13         1.4748   50.8130   27.6817 O.2       1 UNK         0.0000 
     14 N14        -0.2371   51.5755   26.3776 N.am      1 UNK         0.0000 
     15 C15        -0.3117   50.5054   25.4714 C.ar      1 UNK         0.0000 
     16 C16        -1.2434   49.4796   25.6816 C.ar      1 UNK         0.0000 
     17 C17        -1.3381   48.3916   24.7982 C.ar      1 UNK         0.0000 
     18 C18        -0.4930   48.3708   23.6841 C.ar      1 UNK         0.0000 
     19 C19         0.3979   49.4130   23.4395 C.ar      1 UNK         0.0000 
     20 C20         0.4837   50.5072   24.3129 C.ar      1 UNK         0.0000 
     21 O21         1.2951   51.5995   24.0587 O.3       1 UNK         0.0000 
     22 C22         1.5928   51.9018   22.6968 C.3       1 UNK         0.0000 
     23 C23        -2.3246   47.2817   25.0183 C.2       1 UNK         0.0000 
     24 O24        -2.0954   46.1681   24.4825 O.co2     1 UNK         0.0000 
     25 O25        -3.3558   47.5368   25.6791 O.co2     1 UNK         0.0000 
     26 O26         1.8038   52.0969   31.5302 O.3       1 UNK         0.0000 
     27 C27         4.7739   54.4700   25.4030 C.ar      1 UNK         0.0000 
     28 C28         5.9332   55.2490   25.4743 C.ar      1 UNK         0.0000 
     29 C29         6.7018   55.4671   24.3332 C.ar      1 UNK         0.0000 
     30 C30         6.3043   54.9185   23.1143 C.ar      1 UNK         0.0000 
     31 C31         5.1515   54.1433   23.0290 C.ar      1 UNK         0.0000 
     32 C32         4.3833   53.9387   24.1698 C.ar      1 UNK         0.0000 
     33 Cl33        7.1887   55.2972   21.6821 Cl        1 UNK         0.0000 
     34 H34         6.1067   52.4967   28.4820 H         1 UNK         0.0000 
     35 H35         6.6342   53.9135   27.6295 H         1 UNK         0.0000 
     36 H36         6.0615   54.0596   29.2788 H         1 UNK         0.0000 
     37 H37        -0.1230   52.2960   29.8255 H         1 UNK         0.0000 
     38 H38         0.3042   53.9900   29.9248 H         1 UNK         0.0000 
     39 H39        -0.8951   52.3243   26.2335 H         1 UNK         0.0000 
     40 H40        -1.8944   49.5181   26.5422 H         1 UNK         0.0000 
     41 H41        -0.5409   47.5496   22.9847 H         1 UNK         0.0000 
     42 H42         1.0159   49.3633   22.5567 H         1 UNK         0.0000 
     43 H43         1.9233   52.9358   22.6113 H         1 UNK         0.0000 
     44 H44         2.3929   51.2619   22.3220 H         1 UNK         0.0000 
     45 H45         0.7203   51.7966   22.0487 H         1 UNK         0.0000 
     46 H46         0.8763   52.0869   31.7813 H         1 UNK         0.0000 
     47 H47         6.2377   55.6911   26.4112 H         1 UNK         0.0000 
     48 H48         7.5830   56.0890   24.3832 H         1 UNK         0.0000 
     49 H49         4.8396   53.7262   22.0823 H         1 UNK         0.0000 
     50 H50         3.5009   53.3205   24.1125 H         1 UNK         0.0000 
@<TRIPOS>BOND
     1    1    2 1    
     2    1   34 1    
     3    1   35 1    
     4    1   36 1    
     5    2    6 ar   
     6    2    3 ar   
     7    3    4 ar   
     8    3   27 1    
     9    4    5 ar   
    10    5   10 1    
    11    5    6 ar   
    12    6    7 1    
    13    7    8 2    
    14    8    9 1    
    15    8   26 1    
    16    9   10 1    
    17    9   37 1    
    18    9   38 1    
    19   10   11 1    
    20   10   12 1    
    21   12   13 2    
    22   12   14 am   BACKBONE|DICT|INTERRES
    23   14   15 1    
    24   14   39 1    
    25   15   20 ar   
    26   15   16 ar   
    27   16   17 ar   
    28   16   40 1    
    29   17   18 ar   
    30   17   23 1    
    31   18   19 ar   
    32   18   41 1    
    33   19   20 ar   
    34   19   42 1    
    35   20   21 1    
    36   21   22 1    
    37   22   43 1    
    38   22   44 1    
    39   22   45 1    
    40   23   24 2    
    41   23   25 1    
    42   26   46 1    
    43   27   32 ar   
    44   27   28 ar   
    45   28   29 ar   
    46   28   47 1    
    47   29   30 ar   
    48   29   48 1    
    49   30   31 ar   
    50   30   33 1    
    51   31   32 ar   
    52   31   49 1    
    53   32   50 1    
@<TRIPOS>SUBSTRUCTURE
     1 UNK         1 GROUP             0       ****    0 ROOT    
