@<TRIPOS>MOLECULE
ZINC09427999_2443
60   63    1
SMALL
USER_CHARGES


@<TRIPOS>ATOM
      1 C1          6.6377   57.7498   19.3255 C.3       1 UNK         0.0000 
      2 C2          7.3341   56.4985   18.8257 C.ar      1 UNK         0.0000 
      3 C3          8.7099   56.5347   18.5752 C.ar      1 UNK         0.0000 
      4 C4          9.3642   55.4086   18.0890 C.ar      1 UNK         0.0000 
      5 C5          8.6462   54.2392   17.8468 C.ar      1 UNK         0.0000 
      6 C6          7.2733   54.1822   18.1056 C.ar      1 UNK         0.0000 
      7 C7          6.6068   55.3143   18.6161 C.ar      1 UNK         0.0000 
      8 O8          5.2458   55.3367   18.8794 O.3       1 UNK         0.0000 
      9 C9          4.6507   54.4559   19.8560 C.3       1 UNK         0.0000 
     10 C10         5.2550   54.5420   21.2790 C.2       1 UNK         0.0000 
     11 O11         6.4150   54.9073   21.4502 O.2       1 UNK         0.0000 
     12 N12         4.4081   54.2179   22.2816 N.am      1 UNK         0.0000 
     13 C13         4.6400   54.2172   23.6630 C.2       1 UNK         0.0000 
     14 C14         3.6827   53.9141   24.6577 C.2       1 UNK         0.0000 
     15 C15         4.2480   53.9883   25.9707 C.2       1 UNK         0.0000 
     16 C16         5.6148   54.3143   25.9501 C.2       1 UNK         0.0000 
     17 S17         6.2110   54.5517   24.3562 S.3       1 UNK         0.0000 
     18 C18         6.5016   54.5123   27.1714 C.3       1 UNK         0.0000 
     19 C19         5.8441   53.8272   28.3805 C.3       1 UNK         0.0000 
     20 C20         4.3629   54.2184   28.5116 C.3       1 UNK         0.0000 
     21 C21         3.5149   53.7612   27.3024 C.3       1 UNK         0.0000 
     22 C22         2.2874   53.6135   24.3421 C.2       1 UNK         0.0000 
     23 O23         1.7426   54.0387   23.3198 O.2       1 UNK         0.0000 
     24 N24         1.6867   52.7572   25.1891 N.am      1 UNK         0.0000 
     25 C25         0.3663   52.1494   25.0236 C.3       1 UNK         0.0000 
     26 H26        -0.4341   52.8939   24.9945 H         1 UNK         0.0000 
     27 C27         0.1014   51.2111   26.2299 C.3       1 UNK         0.0000 
     28 C28        -1.0851   50.2806   25.9375 C.3       1 UNK         0.0000 
     29 S29        -1.0153   49.9654   24.0963 S.o2      1 UNK         0.0000 
     30 O30        -0.4594   48.6361   23.8143 O.2       1 UNK         0.0000 
     31 O31        -2.2846   50.3854   23.4980 O.2       1 UNK         0.0000 
     32 C32         0.2904   51.2630   23.7599 C.3       1 UNK         0.0000 
     33 C33         6.5357   52.8968   17.7838 C.3       1 UNK         0.0000 
     34 H34         5.7569   57.9512   18.7137 H         1 UNK         0.0000 
     35 H35         6.3057   57.6006   20.3513 H         1 UNK         0.0000 
     36 H36         7.2755   58.6323   19.2707 H         1 UNK         0.0000 
     37 H37         9.2774   57.4381   18.7590 H         1 UNK         0.0000 
     38 H38        10.4281   55.4384   17.9059 H         1 UNK         0.0000 
     39 H39         9.1663   53.3734   17.4603 H         1 UNK         0.0000 
     40 H40         3.5933   54.7170   19.8982 H         1 UNK         0.0000 
     41 H41         4.6617   53.4208   19.5232 H         1 UNK         0.0000 
     42 H42         3.4536   53.9949   22.0242 H         1 UNK         0.0000 
     43 H43         7.5041   54.1097   27.0114 H         1 UNK         0.0000 
     44 H44         6.6230   55.5777   27.3746 H         1 UNK         0.0000 
     45 H45         5.9301   52.7447   28.2852 H         1 UNK         0.0000 
     46 H46         6.3935   54.1002   29.2803 H         1 UNK         0.0000 
     47 H47         3.9495   53.7962   29.4305 H         1 UNK         0.0000 
     48 H48         4.2823   55.2968   28.6249 H         1 UNK         0.0000 
     49 H49         2.5549   54.2834   27.3210 H         1 UNK         0.0000 
     50 H50         3.2973   52.6971   27.4248 H         1 UNK         0.0000 
     51 H51         2.1758   52.5267   26.0413 H         1 UNK         0.0000 
     52 H52         0.9856   50.6034   26.4324 H         1 UNK         0.0000 
     53 H53        -0.0560   51.7871   27.1425 H         1 UNK         0.0000 
     54 H54        -1.1058   49.3287   26.4793 H         1 UNK         0.0000 
     55 H55        -2.0188   50.8020   26.1469 H         1 UNK         0.0000 
     56 H56         0.2119   51.7301   22.7785 H         1 UNK         0.0000 
     57 H57         1.2082   50.6704   23.7493 H         1 UNK         0.0000 
     58 H58         5.5637   53.1103   17.3340 H         1 UNK         0.0000 
     59 H59         7.0814   52.2742   17.0704 H         1 UNK         0.0000 
     60 H60         6.3732   52.3202   18.6927 H         1 UNK         0.0000 
@<TRIPOS>BOND
     1    1    2 1    
     2    1   34 1    
     3    1   35 1    
     4    1   36 1    
     5    2    7 ar   
     6    2    3 ar   
     7    3    4 ar   
     8    3   37 1    
     9    4    5 ar   
    10    4   38 1    
    11    5    6 ar   
    12    5   39 1    
    13    6    7 ar   
    14    6   33 1    
    15    7    8 1    
    16    8    9 1    
    17    9   10 1    
    18    9   40 1    
    19    9   41 1    
    20   10   11 2    
    21   10   12 am   BACKBONE|DICT|INTERRES
    22   12   13 am   BACKBONE|DICT|INTERRES
    23   12   42 1    
    24   13   17 1    
    25   13   14 2    
    26   14   15 1    
    27   14   22 1    
    28   15   21 1    
    29   15   16 2    
    30   16   17 1    
    31   16   18 1    
    32   18   19 1    
    33   18   43 1    
    34   18   44 1    
    35   19   20 1    
    36   19   45 1    
    37   19   46 1    
    38   20   21 1    
    39   20   47 1    
    40   20   48 1    
    41   21   49 1    
    42   21   50 1    
    43   22   23 2    
    44   22   24 am   BACKBONE|DICT|INTERRES
    45   24   25 1    
    46   24   51 1    
    47   25   26 1    
    48   25   32 1    
    49   25   27 1    
    50   27   28 1    
    51   27   52 1    
    52   27   53 1    
    53   28   29 1    
    54   28   54 1    
    55   28   55 1    
    56   29   30 2    
    57   29   31 2    
    58   29   32 1    
    59   32   56 1    
    60   32   57 1    
    61   33   58 1    
    62   33   59 1    
    63   33   60 1    
@<TRIPOS>SUBSTRUCTURE
     1 UNK         1 GROUP             0       ****    0 ROOT    
