@<TRIPOS>MOLECULE
ZINC22510964_6113
63   67    1
SMALL
USER_CHARGES


@<TRIPOS>ATOM
      1 C1          1.0397   55.3189   14.5798 C.3       1 UNK         0.0000 
      2 C2          1.9906   56.4209   15.0345 C.ar      1 UNK         0.0000 
      3 C3          1.4739   57.7025   15.2580 C.ar      1 UNK         0.0000 
      4 C4          2.3056   58.7362   15.6816 C.ar      1 UNK         0.0000 
      5 C5          3.6600   58.4965   15.8876 C.ar      1 UNK         0.0000 
      6 C6          4.1842   57.2264   15.6648 C.ar      1 UNK         0.0000 
      7 C7          3.3628   56.1727   15.2368 C.ar      1 UNK         0.0000 
      8 N8          3.8573   54.8726   15.0222 N.pl3     1 UNK         0.0000 
      9 S9          5.4947   54.3039   15.4008 S.o2      1 UNK         0.0000 
     10 O10         6.4575   55.2889   14.8959 O.2       1 UNK         0.0000 
     11 O11         5.5453   52.9080   14.9529 O.2       1 UNK         0.0000 
     12 C12         5.5569   54.2935   17.1876 C.ar      1 UNK         0.0000 
     13 C13         6.2449   55.2941   17.8751 C.ar      1 UNK         0.0000 
     14 C14         6.2478   55.3043   19.2661 C.ar      1 UNK         0.0000 
     15 C15         5.5653   54.3044   19.9759 C.ar      1 UNK         0.0000 
     16 C16         4.8812   53.3061   19.2787 C.ar      1 UNK         0.0000 
     17 C17         4.8789   53.2970   17.8880 C.ar      1 UNK         0.0000 
     18 N18         5.5043   54.2235   21.3783 N.am      1 UNK         0.0000 
     19 C19         6.2047   54.8966   22.3183 C.2       1 UNK         0.0000 
     20 O20         7.1051   55.6965   22.0683 O.2       1 UNK         0.0000 
     21 C21         5.8008   54.6280   23.7564 C.ar      1 UNK         0.0000 
     22 C22         4.6102   53.9550   24.0663 C.ar      1 UNK         0.0000 
     23 C23         4.2578   53.7102   25.3878 C.ar      1 UNK         0.0000 
     24 C24         5.0472   54.1872   26.4357 C.ar      1 UNK         0.0000 
     25 C25         6.2223   54.8802   26.1386 C.ar      1 UNK         0.0000 
     26 C26         6.5957   55.0974   24.8122 C.ar      1 UNK         0.0000 
     27 C27         4.6916   53.9258   27.9059 C.3       1 UNK         0.0000 
     28 N28         3.2794   53.6722   28.2320 N.pl3     1 UNK         0.0000 
     29 C29         2.3824   54.6885   27.7010 C.3       1 UNK         0.0000 
     30 C30         1.0685   54.5347   28.4339 C.3       1 UNK         0.0000 
     31 C31         1.4748   53.6917   29.6035 C.ar      1 UNK         0.0000 
     32 C32         2.8094   53.2798   29.4884 C.ar      1 UNK         0.0000 
     33 C33         3.3752   52.4674   30.4710 C.ar      1 UNK         0.0000 
     34 C34         2.6113   52.0967   31.5785 C.ar      1 UNK         0.0000 
     35 C35         1.2773   52.4951   31.6818 C.ar      1 UNK         0.0000 
     36 C36         0.7036   53.2883   30.6931 C.ar      1 UNK         0.0000 
     37 H37         0.0160   55.6747   14.4587 H         1 UNK         0.0000 
     38 H38         1.3684   54.9075   13.6242 H         1 UNK         0.0000 
     39 H39         1.0331   54.5037   15.3048 H         1 UNK         0.0000 
     40 H40         0.4236   57.9045   15.1077 H         1 UNK         0.0000 
     41 H41         1.9041   59.7222   15.8675 H         1 UNK         0.0000 
     42 H42         4.3047   59.2964   16.2217 H         1 UNK         0.0000 
     43 H43         5.2377   57.0917   15.8375 H         1 UNK         0.0000 
     44 H44         3.1868   54.1596   14.7840 H         1 UNK         0.0000 
     45 H45         6.7714   56.0690   17.3377 H         1 UNK         0.0000 
     46 H46         6.7777   56.1016   19.7608 H         1 UNK         0.0000 
     47 H47         4.3538   52.5200   19.8001 H         1 UNK         0.0000 
     48 H48         4.3573   52.5082   17.3620 H         1 UNK         0.0000 
     49 H49         4.8498   53.5420   21.7250 H         1 UNK         0.0000 
     50 H50         3.9468   53.5845   23.2998 H         1 UNK         0.0000 
     51 H51         3.3725   53.1257   25.5863 H         1 UNK         0.0000 
     52 H52         6.8462   55.2488   26.9403 H         1 UNK         0.0000 
     53 H53         7.5045   55.6437   24.6039 H         1 UNK         0.0000 
     54 H54         5.0520   54.7416   28.5355 H         1 UNK         0.0000 
     55 H55         5.2643   53.0519   28.2178 H         1 UNK         0.0000 
     56 H56         2.7811   55.6955   27.8339 H         1 UNK         0.0000 
     57 H57         2.2033   54.4984   26.6446 H         1 UNK         0.0000 
     58 H58         0.3273   54.0292   27.8135 H         1 UNK         0.0000 
     59 H59         0.7044   55.5210   28.7174 H         1 UNK         0.0000 
     60 H60         4.3903   52.1091   30.3764 H         1 UNK         0.0000 
     61 H61         3.0452   51.4834   32.3549 H         1 UNK         0.0000 
     62 H62         0.6891   52.1856   32.5360 H         1 UNK         0.0000 
     63 H63        -0.3307   53.5857   30.7883 H         1 UNK         0.0000 
@<TRIPOS>BOND
     1    1    2 1    
     2    1   37 1    
     3    1   38 1    
     4    1   39 1    
     5    2    7 ar   
     6    2    3 ar   
     7    3    4 ar   
     8    3   40 1    
     9    4    5 ar   
    10    4   41 1    
    11    5    6 ar   
    12    5   42 1    
    13    6    7 ar   
    14    6   43 1    
    15    7    8 1    
    16    8    9 1    
    17    8   44 1    
    18    9   10 2    
    19    9   11 2    
    20    9   12 1    
    21   12   17 ar   
    22   12   13 ar   
    23   13   14 ar   
    24   13   45 1    
    25   14   15 ar   
    26   14   46 1    
    27   15   16 ar   
    28   15   18 1    
    29   16   17 ar   
    30   16   47 1    
    31   17   48 1    
    32   18   19 am   BACKBONE|DICT|INTERRES
    33   18   49 1    
    34   19   20 2    
    35   19   21 1    
    36   21   26 ar   
    37   21   22 ar   
    38   22   23 ar   
    39   22   50 1    
    40   23   24 ar   
    41   23   51 1    
    42   24   25 ar   
    43   24   27 1    
    44   25   26 ar   
    45   25   52 1    
    46   26   53 1    
    47   27   28 1    
    48   27   54 1    
    49   27   55 1    
    50   28   32 1    
    51   28   29 1    
    52   29   30 1    
    53   29   56 1    
    54   29   57 1    
    55   30   31 1    
    56   30   58 1    
    57   30   59 1    
    58   31   36 ar   
    59   31   32 ar   
    60   32   33 ar   
    61   33   34 ar   
    62   33   60 1    
    63   34   35 ar   
    64   34   61 1    
    65   35   36 ar   
    66   35   62 1    
    67   36   63 1    
@<TRIPOS>SUBSTRUCTURE
     1 UNK         1 GROUP             0       ****    0 ROOT    
