ZINC09813896_2038
                    3D
 Schrodinger Suite 2024-2.
 42 45  0  0  1  0            999 V2000
    4.9889   54.4661   27.1717 C   0  0  0  0  0  0
    4.6391   54.4967   28.5282 C   0  0  0  0  0  0
    3.3108   54.2578   28.8553 C   0  0  0  0  0  0
    2.3759   53.9844   27.8999 C   0  0  0  0  0  0
    2.6994   53.9255   26.5497 C   0  0  0  0  0  0
    4.0344   54.1834   26.1646 C   0  0  0  0  0  0
    4.4697   54.1476   24.7106 C   0  0  0  0  0  0
    5.6126   54.5028   24.4122 O   0  0  0  0  0  0
    3.5524   53.6967   23.8207 N   0  0  0  0  0  0
    3.7164   53.4738   22.4552 C   0  0  0  0  0  0
    2.8234   52.7989   21.7694 N   0  0  0  0  0  0
    3.1980   52.5809   20.5148 C   0  0  0  0  0  0
    4.4370   53.1168   20.1723 C   0  0  0  0  0  0
    5.1052   53.9664   21.5263 S   0  0  0  0  0  0
    2.2428   51.8517   19.5778 C   0  0  0  0  0  0
    1.8819   50.3946   19.9210 C   0  0  0  0  0  0
    1.9183   49.9875   21.0840 O   0  0  0  0  0  0
    1.5080   49.6410   18.8662 N   0  0  0  0  0  0
    1.0235   48.3240   18.9010 C   0  0  0  0  0  0
    1.5340   47.4276   17.9585 C   0  0  0  0  0  0
    1.0670   46.1160   17.9011 C   0  0  0  0  0  0
    0.0651   45.6939   18.7738 C   0  0  0  0  0  0
   -0.4897   46.5955   19.6819 C   0  0  0  0  0  0
   -0.0239   47.9105   19.7455 C   0  0  0  0  0  0
   -0.6184   48.7673   20.6081 F   0  0  0  0  0  0
   -0.5492   43.8928   18.7274 Br  0  0  0  0  0  0
    1.1728   53.7670   28.4963 O   0  0  0  0  0  0
    1.3472   54.1356   29.8376 C   0  0  0  0  0  0
    2.7276   54.2095   30.0814 O   0  0  0  0  0  0
    6.0206   54.6582   26.9093 H   0  0  0  0  0  0
    5.3842   54.7103   29.2802 H   0  0  0  0  0  0
    1.9230   53.6948   25.8341 H   0  0  0  0  0  0
    2.6800   53.3646   24.1977 H   0  0  0  0  0  0
    4.9469   53.0730   19.2199 H   0  0  0  0  0  0
    2.6620   51.8690   18.5694 H   0  0  0  0  0  0
    1.3042   52.4018   19.5150 H   0  0  0  0  0  0
    1.8096   49.9699   17.9592 H   0  0  0  0  0  0
    2.3026   47.7341   17.2665 H   0  0  0  0  0  0
    1.4934   45.4303   17.1822 H   0  0  0  0  0  0
   -1.2845   46.2788   20.3413 H   0  0  0  0  0  0
    0.8724   53.4117   30.5017 H   0  0  0  0  0  0
    0.9004   55.1179   29.9992 H   0  0  0  0  0  0
  1  6  2  0  0  0
  1  2  1  0  0  0
  1 30  1  0  0  0
  2  3  2  0  0  0
  2 31  1  0  0  0
  3 29  1  0  0  0
  3  4  1  0  0  0
  4  5  2  0  0  0
  4 27  1  0  0  0
  5  6  1  0  0  0
  5 32  1  0  0  0
  6  7  1  0  0  0
  7  8  2  0  0  0
  7  9  1  0  0  0
  9 10  1  0  0  0
  9 33  1  0  0  0
 10 14  1  0  0  0
 10 11  2  0  0  0
 11 12  1  0  0  0
 12 13  2  0  0  0
 12 15  1  0  0  0
 13 14  1  0  0  0
 13 34  1  0  0  0
 15 16  1  0  0  0
 15 35  1  0  0  0
 15 36  1  0  0  0
 16 17  2  0  0  0
 16 18  1  0  0  0
 18 19  1  0  0  0
 18 37  1  0  0  0
 19 24  2  0  0  0
 19 20  1  0  0  0
 20 21  2  0  0  0
 20 38  1  0  0  0
 21 22  1  0  0  0
 21 39  1  0  0  0
 22 23  2  0  0  0
 22 26  1  0  0  0
 23 24  1  0  0  0
 23 40  1  0  0  0
 24 25  1  0  0  0
 27 28  1  0  0  0
 28 29  1  0  0  0
 28 41  1  0  0  0
 28 42  1  0  0  0
M  END
> <i_i_glide_confnum>
13

> <i_i_glide_lignum>
2039

> <i_i_glide_posenum>
387

> <i_i_glide_rotatable_bonds>
7

> <i_m_Source_File_Index>
808

> <b_m_subgroup_collapsed>
0

> <r_i_docking_score>
-5.06915

> <r_i_glide_ecoul>
-4.83098

> <r_i_glide_eff_state_penalty>
0

> <r_i_glide_einternal>
4.3273

> <r_i_glide_emodel>
-58.4899

> <r_i_glide_energy>
-45.0573

> <r_i_glide_erotb>
0.531467

> <r_i_glide_esite>
-0.0783211

> <r_i_glide_evdw>
-40.2263

> <r_i_glide_gscore>
-5.06915

> <r_i_glide_hbond>
-0.32

> <r_i_glide_ligand_efficiency>
-0.174798

> <r_i_glide_ligand_efficiency_ln>
-1.16071

> <r_i_glide_ligand_efficiency_sa>
-0.537036

> <r_i_glide_lipo>
-1.70882

> <r_i_glide_metal>
0

> <r_i_glide_rewards>
-0.757517

> <s_i_glide_gridfile>
wee1_glide-grid

> <s_m_Source_File>
wee1_decoys_glide_SP.sdf

> <s_m_Source_Path>
/Users/zhangxujun/Desktop

> <s_m_entry_id>
1083

> <s_m_entry_name>
wee1_decoys_glide_SP.808

> <s_m_subgroup_title>
wee1_decoys_glide_SP

> <s_m_subgroupid>
wee1_decoys_glide_SP


$$$$
