@<TRIPOS>MOLECULE
ZINC08763398_2896
51   54    1
SMALL
USER_CHARGES


@<TRIPOS>ATOM
      1 C1          2.7045   50.0661   21.5868 C.3       1 UNK         0.0000 
      2 C2          1.6118   50.5821   20.6701 C.2       1 UNK         0.0000 
      3 C3          0.4471   49.8543   20.4053 C.2       1 UNK         0.0000 
      4 S4         -0.5435   50.6475   19.2355 S.3       1 UNK         0.0000 
      5 C5          0.5552   51.9873   19.1358 C.2       1 UNK         0.0000 
      6 C6          1.6837   51.8002   19.9485 C.2       1 UNK         0.0000 
      7 C7          2.8337   52.8077   20.0426 C.3       1 UNK         0.0000 
      8 H8          2.4779   53.6967   19.5584 H         1 UNK         0.0000 
      9 C9          3.2338   53.2337   21.4770 C.ar      1 UNK         0.0000 
     10 C10         2.2353   53.4808   22.4329 C.ar      1 UNK         0.0000 
     11 C11         2.5587   53.9094   23.7197 C.ar      1 UNK         0.0000 
     12 C12         3.8925   54.0969   24.0744 C.ar      1 UNK         0.0000 
     13 C13         4.8994   53.8504   23.1431 C.ar      1 UNK         0.0000 
     14 C14         4.5732   53.4186   21.8577 C.ar      1 UNK         0.0000 
     15 Br15        6.7220   54.0982   23.6286 Br        1 UNK         0.0000 
     16 N16         3.9348   52.4954   19.1263 N.pl3     1 UNK         0.0000 
     17 C17         4.8477   53.4181   18.5535 C.ar      1 UNK         0.0000 
     18 C18         4.7882   54.8079   18.7264 C.ar      1 UNK         0.0000 
     19 C19         5.7558   55.6163   18.1207 C.ar      1 UNK         0.0000 
     20 C20         6.7676   55.0258   17.3555 C.ar      1 UNK         0.0000 
     21 C21         6.7904   53.6364   17.2025 C.ar      1 UNK         0.0000 
     22 N22         0.3047   53.1147   18.3516 N.am      1 UNK         0.0000 
     23 C23        -0.8219   53.4514   17.6814 C.2       1 UNK         0.0000 
     24 O24        -1.8356   52.7599   17.5757 O.2       1 UNK         0.0000 
     25 C25        -0.7912   54.7781   17.1152 C.2       1 UNK         0.0000 
     26 C26        -1.7648   55.4838   16.4142 C.2       1 UNK         0.0000 
     27 C27        -1.2468   56.7548   16.1587 C.2       1 UNK         0.0000 
     28 C28         0.0236   56.7753   16.7074 C.2       1 UNK         0.0000 
     29 O29         0.3032   55.5761   17.2816 O.3       1 UNK         0.0000 
     30 C30        -0.0046   48.5453   20.9995 C.3       1 UNK         0.0000 
     31 H31         3.6921   50.4059   21.2768 H         1 UNK         0.0000 
     32 H32         2.5542   50.3850   22.6182 H         1 UNK         0.0000 
     33 H33         2.7560   48.9769   21.5881 H         1 UNK         0.0000 
     34 H34         1.1948   53.3576   22.1694 H         1 UNK         0.0000 
     35 H35         1.7754   54.0996   24.4389 H         1 UNK         0.0000 
     36 H36         4.1467   54.4272   25.0709 H         1 UNK         0.0000 
     37 H37         5.3793   53.2328   21.1661 H         1 UNK         0.0000 
     38 H38         4.0728   51.5167   18.8846 H         1 UNK         0.0000 
     39 H39         4.0077   55.2634   19.3173 H         1 UNK         0.0000 
     40 H40         5.7211   56.6899   18.2416 H         1 UNK         0.0000 
     41 H41         7.5213   55.6403   16.8834 H         1 UNK         0.0000 
     42 H42         7.5289   53.0915   16.6294 H         1 UNK         0.0000 
     43 H43         1.0261   53.8223   18.3693 H         1 UNK         0.0000 
     44 H44        -2.7427   55.1197   16.1324 H         1 UNK         0.0000 
     45 H45        -1.7384   57.5636   15.6375 H         1 UNK         0.0000 
     46 H46         0.7956   57.5301   16.7683 H         1 UNK         0.0000 
     47 H47         0.2801   48.4967   22.0508 H         1 UNK         0.0000 
     48 H48        -1.0879   48.4222   20.9632 H         1 UNK         0.0000 
     49 H49         0.4387   47.6961   20.4786 H         1 UNK         0.0000 
     50 N50         5.8347   52.8969   17.8002 N.pl3     1 UNK         0.0000 
     51 H51         5.8411   51.8784   17.6990 H         1 UNK         0.0000 
@<TRIPOS>BOND
     1    1    2 1    
     2    1   31 1    
     3    1   32 1    
     4    1   33 1    
     5    2    6 1    
     6    2    3 2    
     7    3    4 1    
     8    3   30 1    
     9    4    5 1    
    10    5    6 2    
    11    5   22 am   BACKBONE|DICT|INTERRES
    12    6    7 1    
    13    7    8 1    
    14    7    9 1    
    15    7   16 1    
    16    9   14 ar   
    17    9   10 ar   
    18   10   11 ar   
    19   10   34 1    
    20   11   12 ar   
    21   11   35 1    
    22   12   13 ar   
    23   12   36 1    
    24   13   14 ar   
    25   13   15 1    
    26   14   37 1    
    27   16   17 1    
    28   16   38 1    
    29   17   18 ar   
    30   17   50 ar   
    31   18   19 ar   
    32   18   39 1    
    33   19   20 ar   
    34   19   40 1    
    35   20   21 ar   
    36   20   41 1    
    37   21   42 1    
    38   21   50 ar   
    39   22   23 am   BACKBONE|DICT|INTERRES
    40   22   43 1    
    41   23   24 2    
    42   23   25 1    
    43   25   29 1    
    44   25   26 2    
    45   26   27 1    
    46   26   44 1    
    47   27   28 2    
    48   27   45 1    
    49   28   29 1    
    50   28   46 1    
    51   30   47 1    
    52   30   48 1    
    53   30   49 1    
    54   50   51 1    
@<TRIPOS>SUBSTRUCTURE
     1 UNK         1 GROUP             0       ****    0 ROOT    
