@<TRIPOS>MOLECULE
ZINC39683654_1292
63   66    1
SMALL
USER_CHARGES


@<TRIPOS>ATOM
      1 C1          6.9783   53.9278   28.1744 C.3       1 UNK         0.0000 
      2 O2          6.1152   53.9082   27.0510 O.3       1 UNK         0.0000 
      3 C3          4.7553   53.6972   27.2088 C.ar      1 UNK         0.0000 
      4 C4          4.1965   53.3049   28.4382 C.ar      1 UNK         0.0000 
      5 C5          2.8253   53.1161   28.5755 C.ar      1 UNK         0.0000 
      6 C6          1.9895   53.3239   27.4867 C.ar      1 UNK         0.0000 
      7 C7          2.5272   53.6974   26.2582 C.ar      1 UNK         0.0000 
      8 C8          3.9133   53.8641   26.0832 C.ar      1 UNK         0.0000 
      9 C9          4.5172   54.2443   24.7338 C.2       1 UNK         0.0000 
     10 O10         5.4946   54.9978   24.7164 O.2       1 UNK         0.0000 
     11 N11         4.0488   53.7015   23.5736 N.am      1 UNK         0.0000 
     12 C12         4.7548   53.9163   22.3093 C.3       1 UNK         0.0000 
     13 C13         3.6796   53.6166   21.2568 C.3       1 UNK         0.0000 
     14 H14         3.1045   54.5283   21.1452 H         1 UNK         0.0000 
     15 C15         2.8411   52.4623   21.8782 C.3       1 UNK         0.0000 
     16 C16         2.8391   52.8979   23.3667 C.3       1 UNK         0.0000 
     17 C17         3.4725   51.0470   21.6816 C.3       1 UNK         0.0000 
     18 C18         2.7043   49.9425   22.4506 C.3       1 UNK         0.0000 
     19 N19         1.2268   49.9505   21.9994 N.4       1 UNK         0.0000 
     20 C20         0.5509   51.3402   22.0437 C.3       1 UNK         0.0000 
     21 C21         1.4296   52.3313   21.2534 C.3       1 UNK         0.0000 
     22 C22         4.3452   53.2985   19.9013 C.2       1 UNK         0.0000 
     23 O23         5.5042   52.8964   19.8343 O.2       1 UNK         0.0000 
     24 N24         3.5948   53.5469   18.8194 N.am      1 UNK         0.0000 
     25 C25         4.0061   53.3224   17.4325 C.3       1 UNK         0.0000 
     26 C26         2.8498   52.8182   16.5391 C.3       1 UNK         0.0000 
     27 C27         1.4782   53.4506   16.7998 C.ar      1 UNK         0.0000 
     28 C28         0.4650   52.6605   17.3565 C.ar      1 UNK         0.0000 
     29 C29        -0.8022   53.1925   17.5939 C.ar      1 UNK         0.0000 
     30 C30        -1.0668   54.5253   17.2818 C.ar      1 UNK         0.0000 
     31 C31        -0.0633   55.3241   16.7349 C.ar      1 UNK         0.0000 
     32 C32         1.2053   54.7949   16.4897 C.ar      1 UNK         0.0000 
     33 Br33        2.5236   55.9441   15.7314 Br        1 UNK         0.0000 
     34 H34         7.9044   54.4207   27.8864 H         1 UNK         0.0000 
     35 H35         6.5658   54.4924   29.0117 H         1 UNK         0.0000 
     36 H36         7.2153   52.9113   28.4816 H         1 UNK         0.0000 
     37 H37         4.8181   53.1309   29.3012 H         1 UNK         0.0000 
     38 H38         2.4091   52.8176   29.5265 H         1 UNK         0.0000 
     39 H39         0.9209   53.2015   27.5954 H         1 UNK         0.0000 
     40 H40         1.8264   53.8917   25.4649 H         1 UNK         0.0000 
     41 H41         5.5510   53.1706   22.2763 H         1 UNK         0.0000 
     42 H42         5.1706   54.9170   22.1823 H         1 UNK         0.0000 
     43 H43         2.0021   53.5897   23.4588 H         1 UNK         0.0000 
     44 H44         2.6806   52.0923   24.0780 H         1 UNK         0.0000 
     45 H45         3.5553   50.7818   20.6246 H         1 UNK         0.0000 
     46 H46         4.5004   51.0649   22.0424 H         1 UNK         0.0000 
     47 H47         3.0808   48.9431   22.2221 H         1 UNK         0.0000 
     48 H48         2.7034   50.0625   23.5333 H         1 UNK         0.0000 
     49 H49         1.1897   49.6092   21.0480 H         1 UNK         0.0000 
     50 H50        -0.4372   51.2113   21.5984 H         1 UNK         0.0000 
     51 H51         0.4346   51.6034   23.0965 H         1 UNK         0.0000 
     52 H52         0.9294   53.2964   21.2901 H         1 UNK         0.0000 
     53 H53         1.4790   52.0807   20.1921 H         1 UNK         0.0000 
     54 H54         2.6934   53.9863   18.9544 H         1 UNK         0.0000 
     55 H55         4.8099   52.5799   17.3996 H         1 UNK         0.0000 
     56 H56         4.3943   54.2745   17.0686 H         1 UNK         0.0000 
     57 H57         2.7736   51.7358   16.6695 H         1 UNK         0.0000 
     58 H58         3.1099   52.9521   15.4884 H         1 UNK         0.0000 
     59 H59         0.6567   51.6246   17.5969 H         1 UNK         0.0000 
     60 H60        -1.5792   52.5693   18.0121 H         1 UNK         0.0000 
     61 H61        -2.0482   54.9391   17.4573 H         1 UNK         0.0000 
     62 H62        -0.2694   56.3572   16.4963 H         1 UNK         0.0000 
     63 H63         0.6991   49.2959   22.5619 H         1 UNK         0.0000 
@<TRIPOS>BOND
     1    1    2 1    
     2    1   34 1    
     3    1   35 1    
     4    1   36 1    
     5    2    3 1    
     6    3    8 ar   
     7    3    4 ar   
     8    4    5 ar   
     9    4   37 1    
    10    5    6 ar   
    11    5   38 1    
    12    6    7 ar   
    13    6   39 1    
    14    7    8 ar   
    15    7   40 1    
    16    8    9 1    
    17    9   10 2    
    18    9   11 am   BACKBONE|DICT|INTERRES
    19   11   16 1    
    20   11   12 1    
    21   12   13 1    
    22   12   41 1    
    23   12   42 1    
    24   13   14 1    
    25   13   15 1    
    26   13   22 1    
    27   15   21 1    
    28   15   16 1    
    29   15   17 1    
    30   16   43 1    
    31   16   44 1    
    32   17   18 1    
    33   17   45 1    
    34   17   46 1    
    35   18   19 1    
    36   18   47 1    
    37   18   48 1    
    38   19   20 1    
    39   19   49 1    
    40   19   63 1    
    41   20   21 1    
    42   20   50 1    
    43   20   51 1    
    44   21   52 1    
    45   21   53 1    
    46   22   23 2    
    47   22   24 am   BACKBONE|DICT|INTERRES
    48   24   25 1    
    49   24   54 1    
    50   25   26 1    
    51   25   55 1    
    52   25   56 1    
    53   26   27 1    
    54   26   57 1    
    55   26   58 1    
    56   27   32 ar   
    57   27   28 ar   
    58   28   29 ar   
    59   28   59 1    
    60   29   30 ar   
    61   29   60 1    
    62   30   31 ar   
    63   30   61 1    
    64   31   32 ar   
    65   31   62 1    
    66   32   33 1    
@<TRIPOS>SUBSTRUCTURE
     1 UNK         1 GROUP             0       ****    0 ROOT    
