@<TRIPOS>MOLECULE
ZINC39629787_1274
69   72    1
SMALL
USER_CHARGES


@<TRIPOS>ATOM
      1 C1         -0.0971   53.3640   28.5048 C.3       1 UNK         0.0000 
      2 C2          0.0879   52.2865   27.4195 C.3       1 UNK         0.0000 
      3 C3          0.6582   50.9982   28.0447 C.3       1 UNK         0.0000 
      4 C4         -1.2087   52.0623   26.5680 C.3       1 UNK         0.0000 
      5 H5         -1.4652   53.0063   26.0924 H         1 UNK         0.0000 
      6 C6         -1.0053   50.9628   25.4820 C.2       1 UNK         0.0000 
      7 O7         -1.4363   49.8251   25.6802 O.2       1 UNK         0.0000 
      8 N8         -0.3270   51.2611   24.3489 N.am      1 UNK         0.0000 
      9 C9          0.2105   52.5733   23.9974 C.3       1 UNK         0.0000 
     10 C10         1.5359   52.1666   23.3453 C.3       1 UNK         0.0000 
     11 H11         2.2200   52.0023   24.1813 H         1 UNK         0.0000 
     12 C12         1.2569   50.8656   22.5611 C.3       1 UNK         0.0000 
     13 C13         0.2745   50.1849   23.5529 C.3       1 UNK         0.0000 
     14 C14         2.5600   50.0778   22.2704 C.3       1 UNK         0.0000 
     15 C15         2.2273   48.6888   21.7939 C.3       1 UNK         0.0000 
     16 N16         1.4074   48.7942   20.4817 N.4       1 UNK         0.0000 
     17 C17         0.1639   49.7176   20.5418 C.3       1 UNK         0.0000 
     18 C18         0.5700   51.0684   21.1751 C.3       1 UNK         0.0000 
     19 C19         2.1486   53.3422   22.5748 C.2       1 UNK         0.0000 
     20 O20         1.8821   54.4966   22.8853 O.2       1 UNK         0.0000 
     21 N21         3.0527   53.0161   21.6402 N.am      1 UNK         0.0000 
     22 C22         4.0038   53.9003   20.9910 C.3       1 UNK         0.0000 
     23 C23         5.1462   54.3772   21.8794 C.ar      1 UNK         0.0000 
     24 C24         5.2063   54.0981   23.2571 C.ar      1 UNK         0.0000 
     25 C25         6.1752   54.6918   24.0510 C.ar      1 UNK         0.0000 
     26 C26         7.1043   55.5269   23.4529 C.ar      1 UNK         0.0000 
     27 C27         7.1381   55.6969   22.0720 C.ar      1 UNK         0.0000 
     28 C28         6.1431   55.1453   21.2828 C.ar      1 UNK         0.0000 
     29 O29        -2.2563   51.6964   27.4813 O.3       1 UNK         0.0000 
     30 C30        -3.5784   51.6376   27.0808 C.ar      1 UNK         0.0000 
     31 C31        -4.4446   50.9458   27.9278 C.ar      1 UNK         0.0000 
     32 C32        -5.7992   50.8458   27.6229 C.ar      1 UNK         0.0000 
     33 C33        -6.2897   51.4446   26.4645 C.ar      1 UNK         0.0000 
     34 C34        -5.4371   52.1415   25.6091 C.ar      1 UNK         0.0000 
     35 C35        -4.0816   52.2391   25.9151 C.ar      1 UNK         0.0000 
     36 H36        -0.7876   53.0299   29.2811 H         1 UNK         0.0000 
     37 H37         0.8483   53.6047   28.9927 H         1 UNK         0.0000 
     38 H38        -0.4879   54.2870   28.0817 H         1 UNK         0.0000 
     39 H39         0.8678   52.6684   26.7620 H         1 UNK         0.0000 
     40 H40        -0.0957   50.5023   28.6570 H         1 UNK         0.0000 
     41 H41         0.9796   50.2873   27.2815 H         1 UNK         0.0000 
     42 H42         1.5240   51.2009   28.6749 H         1 UNK         0.0000 
     43 H43        -0.4207   53.0048   23.2196 H         1 UNK         0.0000 
     44 H44         0.3913   53.2762   24.8094 H         1 UNK         0.0000 
     45 H45         0.9052   49.6370   24.2574 H         1 UNK         0.0000 
     46 H46        -0.4130   49.4441   23.1497 H         1 UNK         0.0000 
     47 H47         3.2561   50.5502   21.5821 H         1 UNK         0.0000 
     48 H48         3.1012   49.9393   23.2060 H         1 UNK         0.0000 
     49 H49         3.1044   48.0966   21.5673 H         1 UNK         0.0000 
     50 H50         1.6763   48.2266   22.6003 H         1 UNK         0.0000 
     51 H51         2.0266   49.1498   19.7633 H         1 UNK         0.0000 
     52 H52        -0.1793   49.8347   19.5127 H         1 UNK         0.0000 
     53 H53        -0.6025   49.1773   21.0966 H         1 UNK         0.0000 
     54 H54        -0.3374   51.6606   21.3023 H         1 UNK         0.0000 
     55 H55         1.1807   51.6419   20.4772 H         1 UNK         0.0000 
     56 H56         3.1849   52.0379   21.4527 H         1 UNK         0.0000 
     57 H57         4.4309   53.3677   20.1396 H         1 UNK         0.0000 
     58 H58         3.5044   54.7719   20.5715 H         1 UNK         0.0000 
     59 H59         4.4831   53.4718   23.7523 H         1 UNK         0.0000 
     60 H60         6.1866   54.5278   25.1183 H         1 UNK         0.0000 
     61 H61         7.8287   56.0461   24.0653 H         1 UNK         0.0000 
     62 H62         7.9094   56.3074   21.6263 H         1 UNK         0.0000 
     63 H63         6.1327   55.3391   20.2193 H         1 UNK         0.0000 
     64 H64        -4.0526   50.4739   28.8185 H         1 UNK         0.0000 
     65 H65        -6.4627   50.2982   28.2776 H         1 UNK         0.0000 
     66 H66        -7.3403   51.3624   26.2247 H         1 UNK         0.0000 
     67 H67        -5.8266   52.6009   24.7115 H         1 UNK         0.0000 
     68 H68        -3.4410   52.7849   25.2412 H         1 UNK         0.0000 
     69 H69         1.1340   47.8726   20.1693 H         1 UNK         0.0000 
@<TRIPOS>BOND
     1    1    2 1    
     2    1   36 1    
     3    1   37 1    
     4    1   38 1    
     5    2    3 1    
     6    2    4 1    
     7    2   39 1    
     8    3   40 1    
     9    3   41 1    
    10    3   42 1    
    11    4    5 1    
    12    4    6 1    
    13    4   29 1    
    14    6    7 2    
    15    6    8 am   BACKBONE|DICT|INTERRES
    16    8   13 1    
    17    8    9 1    
    18    9   10 1    
    19    9   43 1    
    20    9   44 1    
    21   10   11 1    
    22   10   12 1    
    23   10   19 1    
    24   12   18 1    
    25   12   13 1    
    26   12   14 1    
    27   13   45 1    
    28   13   46 1    
    29   14   15 1    
    30   14   47 1    
    31   14   48 1    
    32   15   16 1    
    33   15   49 1    
    34   15   50 1    
    35   16   17 1    
    36   16   51 1    
    37   16   69 1    
    38   17   18 1    
    39   17   52 1    
    40   17   53 1    
    41   18   54 1    
    42   18   55 1    
    43   19   20 2    
    44   19   21 am   BACKBONE|DICT|INTERRES
    45   21   22 1    
    46   21   56 1    
    47   22   23 1    
    48   22   57 1    
    49   22   58 1    
    50   23   28 ar   
    51   23   24 ar   
    52   24   25 ar   
    53   24   59 1    
    54   25   26 ar   
    55   25   60 1    
    56   26   27 ar   
    57   26   61 1    
    58   27   28 ar   
    59   27   62 1    
    60   28   63 1    
    61   29   30 1    
    62   30   35 ar   
    63   30   31 ar   
    64   31   32 ar   
    65   31   64 1    
    66   32   33 ar   
    67   32   65 1    
    68   33   34 ar   
    69   33   66 1    
    70   34   35 ar   
    71   34   67 1    
    72   35   68 1    
@<TRIPOS>SUBSTRUCTURE
     1 UNK         1 GROUP             0       ****    0 ROOT    
