@<TRIPOS>MOLECULE
ZINC13137740_472
59   62    1
SMALL
USER_CHARGES


@<TRIPOS>ATOM
      1 C1          0.7138   52.6769   31.7495 C.3       1 UNK         0.0000 
      2 O2          1.1649   52.7401   30.3959 O.3       1 UNK         0.0000 
      3 C3          0.3052   52.3828   29.3689 C.ar      1 UNK         0.0000 
      4 C4         -0.8959   51.6967   29.6231 C.ar      1 UNK         0.0000 
      5 C5         -1.7466   51.3005   28.5940 C.ar      1 UNK         0.0000 
      6 C6         -1.4435   51.6449   27.2832 C.ar      1 UNK         0.0000 
      7 C7         -0.2605   52.3208   27.0090 C.ar      1 UNK         0.0000 
      8 C8          0.6468   52.6834   28.0266 C.ar      1 UNK         0.0000 
      9 C9          1.9464   53.3882   27.6582 C.2       1 UNK         0.0000 
     10 O10         2.6177   53.9962   28.4957 O.2       1 UNK         0.0000 
     11 N11         2.2666   53.3025   26.3479 N.am      1 UNK         0.0000 
     12 C12         3.3638   53.7692   25.6376 C.2       1 UNK         0.0000 
     13 C13         3.4738   53.7264   24.2266 C.2       1 UNK         0.0000 
     14 C14         4.7660   54.1477   23.8268 C.2       1 UNK         0.0000 
     15 C15         5.5612   54.5591   24.8737 C.2       1 UNK         0.0000 
     16 S16         4.7950   54.4237   26.4106 S.3       1 UNK         0.0000 
     17 C17         6.9208   55.0199   24.4405 C.3       1 UNK         0.0000 
     18 C18         6.9566   54.5757   22.9708 C.3       1 UNK         0.0000 
     19 C19         5.5087   54.3259   22.5188 C.3       1 UNK         0.0000 
     20 C20         2.3992   53.2980   23.3326 C.2       1 UNK         0.0000 
     21 O21         1.2918   52.9557   23.7427 O.2       1 UNK         0.0000 
     22 N22         2.6698   53.2971   22.0288 N.am      1 UNK         0.0000 
     23 S23        -2.5575   51.2085   25.9503 S.o2      1 UNK         0.0000 
     24 O24        -3.9163   51.4382   26.4539 O.2       1 UNK         0.0000 
     25 O25        -2.1075   51.9061   24.7394 O.2       1 UNK         0.0000 
     26 N26        -2.3669   49.4629   25.6819 N.pl3     1 UNK         0.0000 
     27 C27        -0.9882   48.9009   25.6585 C.3       1 UNK         0.0000 
     28 C28        -0.1875   49.2206   24.3832 C.3       1 UNK         0.0000 
     29 C29        -0.6776   48.5193   23.1050 C.3       1 UNK         0.0000 
     30 C30        -2.1571   48.7371   22.7348 C.3       1 UNK         0.0000 
     31 C31        -3.1399   48.0313   23.6911 C.3       1 UNK         0.0000 
     32 C32        -3.4931   48.7866   24.9897 C.3       1 UNK         0.0000 
     33 H33         1.5376   52.8969   32.4246 H         1 UNK         0.0000 
     34 H34        -0.0837   53.3981   31.9377 H         1 UNK         0.0000 
     35 H35         0.3671   51.6903   32.0403 H         1 UNK         0.0000 
     36 H36        -1.1907   51.4135   30.6223 H         1 UNK         0.0000 
     37 H37        -2.6427   50.7383   28.8217 H         1 UNK         0.0000 
     38 H38        -0.0724   52.5593   25.9734 H         1 UNK         0.0000 
     39 H39         1.5692   52.8886   25.7441 H         1 UNK         0.0000 
     40 H40         7.7200   54.5355   24.9965 H         1 UNK         0.0000 
     41 H41         7.0521   56.0957   24.5396 H         1 UNK         0.0000 
     42 H42         7.5243   53.6485   22.8887 H         1 UNK         0.0000 
     43 H43         7.4684   55.3035   22.3390 H         1 UNK         0.0000 
     44 H44         5.1414   55.1825   21.9526 H         1 UNK         0.0000 
     45 H45         5.4602   53.4545   21.8635 H         1 UNK         0.0000 
     46 H46         3.5667   53.5994   21.6849 H         1 UNK         0.0000 
     47 H47         1.9350   53.0687   21.3730 H         1 UNK         0.0000 
     48 H48        -0.4465   49.3660   26.4814 H         1 UNK         0.0000 
     49 H49        -1.0083   47.8452   25.9318 H         1 UNK         0.0000 
     50 H50        -0.1515   50.2979   24.2239 H         1 UNK         0.0000 
     51 H51         0.8485   48.9247   24.5525 H         1 UNK         0.0000 
     52 H52        -0.0546   48.8463   22.2709 H         1 UNK         0.0000 
     53 H53        -0.4957   47.4487   23.2056 H         1 UNK         0.0000 
     54 H54        -2.3153   48.3454   21.7277 H         1 UNK         0.0000 
     55 H55        -2.3820   49.8041   22.6765 H         1 UNK         0.0000 
     56 H56        -2.7433   47.0481   23.9458 H         1 UNK         0.0000 
     57 H57        -4.0708   47.8286   23.1611 H         1 UNK         0.0000 
     58 H58        -3.8313   48.0078   25.6747 H         1 UNK         0.0000 
     59 H59        -4.3469   49.4587   24.8972 H         1 UNK         0.0000 
@<TRIPOS>BOND
     1    1    2 1    
     2    1   33 1    
     3    1   34 1    
     4    1   35 1    
     5    2    3 1    
     6    3    8 ar   
     7    3    4 ar   
     8    4    5 ar   
     9    4   36 1    
    10    5    6 ar   
    11    5   37 1    
    12    6    7 ar   
    13    6   23 1    
    14    7    8 ar   
    15    7   38 1    
    16    8    9 1    
    17    9   10 2    
    18    9   11 am   BACKBONE|DICT|INTERRES
    19   11   12 am   BACKBONE|DICT|INTERRES
    20   11   39 1    
    21   12   16 1    
    22   12   13 2    
    23   13   14 1    
    24   13   20 1    
    25   14   19 1    
    26   14   15 2    
    27   15   16 1    
    28   15   17 1    
    29   17   18 1    
    30   17   40 1    
    31   17   41 1    
    32   18   19 1    
    33   18   42 1    
    34   18   43 1    
    35   19   44 1    
    36   19   45 1    
    37   20   21 2    
    38   20   22 am   BACKBONE|DICT|INTERRES
    39   22   46 1    
    40   22   47 1    
    41   23   24 2    
    42   23   25 2    
    43   23   26 1    
    44   26   32 1    
    45   26   27 1    
    46   27   28 1    
    47   27   48 1    
    48   27   49 1    
    49   28   29 1    
    50   28   50 1    
    51   28   51 1    
    52   29   30 1    
    53   29   52 1    
    54   29   53 1    
    55   30   31 1    
    56   30   54 1    
    57   30   55 1    
    58   31   32 1    
    59   31   56 1    
    60   31   57 1    
    61   32   58 1    
    62   32   59 1    
@<TRIPOS>SUBSTRUCTURE
     1 UNK         1 GROUP             0       ****    0 ROOT    
