@<TRIPOS>MOLECULE
ZINC39676774_899
76   80    1
SMALL
USER_CHARGES


@<TRIPOS>ATOM
      1 C1          7.2301   53.8329   28.2270 C.3       1 UNK         0.0000 
      2 C2          5.8009   53.9696   27.7590 C.ar      1 UNK         0.0000 
      3 C3          5.5372   54.3930   26.4561 C.ar      1 UNK         0.0000 
      4 C4          4.2252   54.4480   26.0025 C.ar      1 UNK         0.0000 
      5 C5          3.1793   54.0608   26.8411 C.ar      1 UNK         0.0000 
      6 C6          3.4424   53.7081   28.1687 C.ar      1 UNK         0.0000 
      7 C7          4.7526   53.6635   28.6304 C.ar      1 UNK         0.0000 
      8 O8          1.9047   54.0565   26.3213 O.3       1 UNK         0.0000 
      9 C9          1.1623   52.8980   26.3789 C.ar      1 UNK         0.0000 
     10 C10         0.9980   52.0495   25.2640 C.ar      1 UNK         0.0000 
     11 C11         0.3040   50.8471   25.4880 C.ar      1 UNK         0.0000 
     12 C12        -0.3011   50.6020   26.7161 C.ar      1 UNK         0.0000 
     13 C13        -0.1602   51.5378   27.7337 C.ar      1 UNK         0.0000 
     14 N14         0.5658   52.6692   27.5812 N.ar      1 UNK         0.0000 
     15 C15         1.5938   52.3742   23.9041 C.2       1 UNK         0.0000 
     16 O16         2.7043   52.8970   23.8374 O.2       1 UNK         0.0000 
     17 N17         0.9039   52.0598   22.7766 N.am      1 UNK         0.0000 
     18 C18        -0.5007   51.6752   22.7147 C.3       1 UNK         0.0000 
     19 C19        -0.8693   51.8417   21.2215 C.3       1 UNK         0.0000 
     20 H20        -1.2040   52.8691   21.1183 H         1 UNK         0.0000 
     21 C21         0.4640   51.5531   20.4687 C.3       1 UNK         0.0000 
     22 C22         1.4735   52.2235   21.4387 C.3       1 UNK         0.0000 
     23 C23         0.7543   50.0274   20.2911 C.3       1 UNK         0.0000 
     24 C24         2.1653   49.7555   19.7186 C.3       1 UNK         0.0000 
     25 N25         2.3046   50.4971   18.3691 N.4       1 UNK         0.0000 
     26 C26         1.9247   51.9965   18.4149 C.3       1 UNK         0.0000 
     27 C27         0.5163   52.1355   19.0348 C.3       1 UNK         0.0000 
     28 C28        -2.0969   50.9527   20.8644 C.2       1 UNK         0.0000 
     29 O29        -2.6704   51.1446   19.7940 O.2       1 UNK         0.0000 
     30 N30        -2.5325   50.0596   21.7737 N.am      1 UNK         0.0000 
     31 C31        -3.6738   49.1445   21.7306 C.3       1 UNK         0.0000 
     32 H32        -3.5142   48.4984   20.8634 H         1 UNK         0.0000 
     33 C33        -5.0216   49.8777   21.5696 C.3       1 UNK         0.0000 
     34 C34        -3.7035   48.2388   22.9738 C.ar      1 UNK         0.0000 
     35 C35        -3.1163   48.6248   24.1908 C.ar      1 UNK         0.0000 
     36 C36        -3.1264   47.7706   25.2911 C.ar      1 UNK         0.0000 
     37 C37        -3.7290   46.5193   25.1920 C.ar      1 UNK         0.0000 
     38 C38        -4.3242   46.1059   23.9988 C.ar      1 UNK         0.0000 
     39 C39        -4.2996   46.9731   22.8909 C.ar      1 UNK         0.0000 
     40 O40        -4.8953   44.8472   24.0005 O.3       1 UNK         0.0000 
     41 C41        -5.5952   44.4039   22.8426 C.3       1 UNK         0.0000 
     42 H42         7.5600   52.8038   28.0823 H         1 UNK         0.0000 
     43 H43         7.8974   54.4984   27.6812 H         1 UNK         0.0000 
     44 H44         7.3220   54.0955   29.2804 H         1 UNK         0.0000 
     45 H45         6.3439   54.6470   25.7837 H         1 UNK         0.0000 
     46 H46         4.0178   54.7515   24.9869 H         1 UNK         0.0000 
     47 H47         2.6408   53.4485   28.8418 H         1 UNK         0.0000 
     48 H48         4.9420   53.3686   29.6557 H         1 UNK         0.0000 
     49 H49         0.2309   50.0789   24.7355 H         1 UNK         0.0000 
     50 H50        -0.8640   49.6967   26.8817 H         1 UNK         0.0000 
     51 H51        -0.6192   51.3716   28.6998 H         1 UNK         0.0000 
     52 H52        -1.1518   52.2753   23.3537 H         1 UNK         0.0000 
     53 H53        -0.5139   50.6175   22.9645 H         1 UNK         0.0000 
     54 H54         2.5088   51.9007   21.3276 H         1 UNK         0.0000 
     55 H55         1.4833   53.2965   21.2386 H         1 UNK         0.0000 
     56 H56         0.7019   49.5290   21.2591 H         1 UNK         0.0000 
     57 H57        -0.0070   49.5426   19.6777 H         1 UNK         0.0000 
     58 H58         2.9812   50.1023   20.3535 H         1 UNK         0.0000 
     59 H59         2.3326   48.7003   19.5002 H         1 UNK         0.0000 
     60 H60         3.2582   50.3833   18.0202 H         1 UNK         0.0000 
     61 H61         2.7049   52.5033   18.9865 H         1 UNK         0.0000 
     62 H62         1.9628   52.3501   17.3836 H         1 UNK         0.0000 
     63 H63        -0.2546   51.7029   18.3972 H         1 UNK         0.0000 
     64 H64         0.2994   53.2041   19.0740 H         1 UNK         0.0000 
     65 H65        -1.9233   49.8881   22.5574 H         1 UNK         0.0000 
     66 H66        -5.8514   49.1725   21.5150 H         1 UNK         0.0000 
     67 H67        -5.2116   50.5448   22.4118 H         1 UNK         0.0000 
     68 H68        -5.0523   50.4778   20.6600 H         1 UNK         0.0000 
     69 H69        -2.6557   49.5956   24.3069 H         1 UNK         0.0000 
     70 H70        -2.6763   48.0781   26.2255 H         1 UNK         0.0000 
     71 H71        -3.7444   45.8727   26.0585 H         1 UNK         0.0000 
     72 H72        -4.7461   46.6728   21.9568 H         1 UNK         0.0000 
     73 H73        -5.9953   43.4071   23.0272 H         1 UNK         0.0000 
     74 H74        -6.4362   45.0585   22.6050 H         1 UNK         0.0000 
     75 H75        -4.9362   44.3382   21.9749 H         1 UNK         0.0000 
     76 H76         1.7257   50.0346   17.6807 H         1 UNK         0.0000 
@<TRIPOS>BOND
     1    1    2 1    
     2    1   42 1    
     3    1   43 1    
     4    1   44 1    
     5    2    7 ar   
     6    2    3 ar   
     7    3    4 ar   
     8    3   45 1    
     9    4    5 ar   
    10    4   46 1    
    11    5    6 ar   
    12    5    8 1    
    13    6    7 ar   
    14    6   47 1    
    15    7   48 1    
    16    8    9 1    
    17    9   14 ar   
    18    9   10 ar   
    19   10   11 ar   
    20   10   15 1    
    21   11   12 ar   
    22   11   49 1    
    23   12   13 ar   
    24   12   50 1    
    25   13   14 ar   
    26   13   51 1    
    27   15   16 2    
    28   15   17 am   BACKBONE|DICT|INTERRES
    29   17   22 1    
    30   17   18 1    
    31   18   19 1    
    32   18   52 1    
    33   18   53 1    
    34   19   20 1    
    35   19   21 1    
    36   19   28 1    
    37   21   27 1    
    38   21   22 1    
    39   21   23 1    
    40   22   54 1    
    41   22   55 1    
    42   23   24 1    
    43   23   56 1    
    44   23   57 1    
    45   24   25 1    
    46   24   58 1    
    47   24   59 1    
    48   25   26 1    
    49   25   60 1    
    50   25   76 1    
    51   26   27 1    
    52   26   61 1    
    53   26   62 1    
    54   27   63 1    
    55   27   64 1    
    56   28   29 2    
    57   28   30 am   BACKBONE|DICT|INTERRES
    58   30   31 1    
    59   30   65 1    
    60   31   32 1    
    61   31   33 1    
    62   31   34 1    
    63   33   66 1    
    64   33   67 1    
    65   33   68 1    
    66   34   39 ar   
    67   34   35 ar   
    68   35   36 ar   
    69   35   69 1    
    70   36   37 ar   
    71   36   70 1    
    72   37   38 ar   
    73   37   71 1    
    74   38   39 ar   
    75   38   40 1    
    76   39   72 1    
    77   40   41 1    
    78   41   73 1    
    79   41   74 1    
    80   41   75 1    
@<TRIPOS>SUBSTRUCTURE
     1 UNK         1 GROUP             0       ****    0 ROOT    
