@<TRIPOS>MOLECULE
ZINC32126203_2112
39   41    1
SMALL
USER_CHARGES


@<TRIPOS>ATOM
      1 C1          4.7037   54.6457   29.5919 C.3       1 UNK         0.0000 
      2 C2          4.0948   54.0960   28.3162 C.2       1 UNK         0.0000 
      3 O3          3.1271   53.3412   28.3992 O.2       1 UNK         0.0000 
      4 N4          4.6898   54.4969   27.1732 N.am      1 UNK         0.0000 
      5 C5          4.2859   54.2511   25.8530 C.ar      1 UNK         0.0000 
      6 C6          5.2608   54.3757   24.8495 C.ar      1 UNK         0.0000 
      7 C7          4.9772   54.0966   23.5036 C.ar      1 UNK         0.0000 
      8 C8          3.6729   53.6969   23.1782 C.ar      1 UNK         0.0000 
      9 C9          2.7064   53.6394   24.1892 C.ar      1 UNK         0.0000 
     10 C10         2.9646   53.9169   25.5258 C.ar      1 UNK         0.0000 
     11 O11         1.5410   53.2393   23.6355 O.3       1 UNK         0.0000 
     12 C12         1.8833   52.9645   22.3419 C.2       1 UNK         0.0000 
     13 N13         3.1114   53.2926   21.9985 N.2       1 UNK         0.0000 
     14 N14         0.8992   52.4983   21.4876 N.am      1 UNK         0.0000 
     15 C15        -0.3027   51.9660   21.8045 C.2       1 UNK         0.0000 
     16 O16        -1.1230   51.7337   20.9187 O.2       1 UNK         0.0000 
     17 C17        -0.6772   51.6736   23.2395 C.ar      1 UNK         0.0000 
     18 C18        -1.8012   52.3034   23.7945 C.ar      1 UNK         0.0000 
     19 C19        -2.1608   52.0750   25.1214 C.ar      1 UNK         0.0000 
     20 C20        -1.4128   51.1997   25.9054 C.ar      1 UNK         0.0000 
     21 C21        -0.2995   50.5570   25.3665 C.ar      1 UNK         0.0000 
     22 C22         0.0713   50.7807   24.0326 C.ar      1 UNK         0.0000 
     23 O23         1.1933   50.1661   23.5268 O.3       1 UNK         0.0000 
     24 C24         0.9493   48.8974   22.9384 C.3       1 UNK         0.0000 
     25 Br25        0.7040   49.3784   26.4762 Br        1 UNK         0.0000 
     26 Br26       -3.6622   52.9766   25.8663 Br        1 UNK         0.0000 
     27 H27         5.7899   54.5619   29.5717 H         1 UNK         0.0000 
     28 H28         4.3090   54.1201   30.4622 H         1 UNK         0.0000 
     29 H29         4.4461   55.6965   29.6783 H         1 UNK         0.0000 
     30 H30         5.5627   54.9896   27.2710 H         1 UNK         0.0000 
     31 H31         6.2706   54.6537   25.1167 H         1 UNK         0.0000 
     32 H32         5.7461   54.1568   22.7479 H         1 UNK         0.0000 
     33 H33         2.1753   53.8319   26.2563 H         1 UNK         0.0000 
     34 H34         1.1220   52.5682   20.5075 H         1 UNK         0.0000 
     35 H35        -2.3940   52.9885   23.2048 H         1 UNK         0.0000 
     36 H36        -1.6919   51.0172   26.9340 H         1 UNK         0.0000 
     37 H37         1.8681   48.5148   22.4917 H         1 UNK         0.0000 
     38 H38         0.6152   48.1738   23.6837 H         1 UNK         0.0000 
     39 H39         0.2004   48.9518   22.1460 H         1 UNK         0.0000 
@<TRIPOS>BOND
     1    1    2 1    
     2    1   27 1    
     3    1   28 1    
     4    1   29 1    
     5    2    3 2    
     6    2    4 am   BACKBONE|DICT|INTERRES
     7    4    5 1    
     8    4   30 1    
     9    5   10 ar   
    10    5    6 ar   
    11    6    7 ar   
    12    6   31 1    
    13    7    8 ar   
    14    7   32 1    
    15    8   13 1    
    16    8    9 ar   
    17    9   10 ar   
    18    9   11 1    
    19   10   33 1    
    20   11   12 1    
    21   12   13 2    
    22   12   14 am   BACKBONE|DICT|INTERRES
    23   14   15 am   BACKBONE|DICT|INTERRES
    24   14   34 1    
    25   15   16 2    
    26   15   17 1    
    27   17   22 ar   
    28   17   18 ar   
    29   18   19 ar   
    30   18   35 1    
    31   19   20 ar   
    32   19   26 1    
    33   20   21 ar   
    34   20   36 1    
    35   21   22 ar   
    36   21   25 1    
    37   22   23 1    
    38   23   24 1    
    39   24   37 1    
    40   24   38 1    
    41   24   39 1    
@<TRIPOS>SUBSTRUCTURE
     1 UNK         1 GROUP             0       ****    0 ROOT    
