ZINC15087238_4376
                    3D
 Schrodinger Suite 2024-2.
 49 53  0  0  1  0            999 V2000
   -0.5533   49.7039   25.1388 C   0  0  0  0  0  0
   -0.4774   51.1152   25.7556 C   0  0  0  0  0  0
    0.6529   51.9423   25.1064 C   0  0  0  0  0  0
    1.4639   52.7808   25.7744 C   0  0  0  0  0  0
    2.5736   53.3016   24.9924 C   0  0  0  0  0  0
    3.9062   54.1138   25.6247 S   0  0  0  0  0  0
    2.3979   52.9491   23.6588 N   0  0  0  0  0  0
    1.0231   51.9190   23.4008 S   0  0  0  0  0  0
    3.2610   53.2167   22.5453 C   0  0  0  0  0  0
    3.8257   54.4817   22.3451 C   0  0  0  0  0  0
    4.6927   54.7174   21.2816 C   0  0  0  0  0  0
    4.9141   53.7322   20.3272 C   0  0  0  0  0  0
    4.3402   52.4716   20.4849 C   0  0  0  0  0  0
    3.5379   52.2104   21.5987 C   0  0  0  0  0  0
    5.9001   54.1364   18.8831 S   0  0  0  0  0  0
    6.7267   55.2986   19.2315 O   0  0  0  0  0  0
    6.5102   52.8976   18.4030 O   0  0  0  0  0  0
    4.7377   54.6141   17.6316 N   0  0  0  0  0  0
    4.3435   55.8890   17.3022 C   0  0  0  0  0  0
    3.1350   56.1755   16.8752 N   0  0  0  0  0  0
    3.0209   57.4436   16.5265 C   0  0  0  0  0  0
    4.1614   58.2297   16.6755 C   0  0  0  0  0  0
    5.4464   57.2369   17.2895 S   0  0  0  0  0  0
    1.1951   52.9417   27.2514 C   0  0  0  0  0  0
    1.5618   54.0722   28.0077 C   0  0  0  0  0  0
    1.2413   54.1833   29.3617 C   0  0  0  0  0  0
    0.5221   53.1740   29.9926 C   0  0  0  0  0  0
    0.1047   52.0644   29.2627 C   0  0  0  0  0  0
    0.4340   51.9520   27.9118 C   0  0  0  0  0  0
   -0.1340   50.8971   27.1747 N   0  0  0  0  0  0
   -1.7939   51.9209   25.7029 C   0  0  0  0  0  0
   -0.8406   49.7421   24.0874 H   0  0  0  0  0  0
    0.4027   49.1802   25.1985 H   0  0  0  0  0  0
   -1.2949   49.0845   25.6474 H   0  0  0  0  0  0
    3.5929   55.2949   23.0161 H   0  0  0  0  0  0
    5.1288   55.6968   21.1622 H   0  0  0  0  0  0
    4.5094   51.7000   19.7443 H   0  0  0  0  0  0
    3.1198   51.2201   21.7063 H   0  0  0  0  0  0
    4.3211   53.8153   17.1765 H   0  0  0  0  0  0
    2.0654   57.8101   16.1704 H   0  0  0  0  0  0
    4.3036   59.2867   16.4777 H   0  0  0  0  0  0
    2.0773   54.9020   27.5549 H   0  0  0  0  0  0
    1.5354   55.0636   29.9143 H   0  0  0  0  0  0
    0.2580   53.2571   31.0399 H   0  0  0  0  0  0
   -0.4940   51.3047   29.7452 H   0  0  0  0  0  0
   -0.7315   50.2250   27.6481 H   0  0  0  0  0  0
   -2.1079   52.0930   24.6721 H   0  0  0  0  0  0
   -2.6057   51.3889   26.2027 H   0  0  0  0  0  0
   -1.7008   52.8975   26.1852 H   0  0  0  0  0  0
  1  2  1  0  0  0
  1 32  1  0  0  0
  1 33  1  0  0  0
  1 34  1  0  0  0
  2 30  1  0  0  0
  2  3  1  0  0  0
  2 31  1  0  0  0
  3  8  1  0  0  0
  3  4  2  0  0  0
  4  5  1  0  0  0
  4 24  1  0  0  0
  5  6  2  0  0  0
  5  7  1  0  0  0
  7  8  1  0  0  0
  7  9  1  0  0  0
  9 14  2  0  0  0
  9 10  1  0  0  0
 10 11  2  0  0  0
 10 35  1  0  0  0
 11 12  1  0  0  0
 11 36  1  0  0  0
 12 13  2  0  0  0
 12 15  1  0  0  0
 13 14  1  0  0  0
 13 37  1  0  0  0
 14 38  1  0  0  0
 15 16  2  0  0  0
 15 17  2  0  0  0
 15 18  1  0  0  0
 18 19  1  0  0  0
 18 39  1  0  0  0
 19 23  1  0  0  0
 19 20  2  0  0  0
 20 21  1  0  0  0
 21 22  2  0  0  0
 21 40  1  0  0  0
 22 23  1  0  0  0
 22 41  1  0  0  0
 24 29  2  0  0  0
 24 25  1  0  0  0
 25 26  2  0  0  0
 25 42  1  0  0  0
 26 27  1  0  0  0
 26 43  1  0  0  0
 27 28  2  0  0  0
 27 44  1  0  0  0
 28 29  1  0  0  0
 28 45  1  0  0  0
 29 30  1  0  0  0
 30 46  1  0  0  0
 31 47  1  0  0  0
 31 48  1  0  0  0
 31 49  1  0  0  0
M  END
> <i_i_glide_confnum>
8

> <i_i_glide_lignum>
4377

> <i_i_glide_posenum>
297

> <i_i_glide_rotatable_bonds>
4

> <i_m_Source_File_Index>
4790

> <b_m_subgroup_collapsed>
0

> <r_i_docking_score>
-4.81586

> <r_i_glide_ecoul>
-3.05298

> <r_i_glide_eff_state_penalty>
0

> <r_i_glide_einternal>
3.88163

> <r_i_glide_emodel>
-56.4218

> <r_i_glide_energy>
-44.6292

> <r_i_glide_erotb>
0.343256

> <r_i_glide_esite>
-0.168628

> <r_i_glide_evdw>
-41.5762

> <r_i_glide_gscore>
-4.81586

> <r_i_glide_hbond>
-0.123471

> <r_i_glide_ligand_efficiency>
-0.15535

> <r_i_glide_ligand_efficiency_ln>
-1.08612

> <r_i_glide_ligand_efficiency_sa>
-0.488014

> <r_i_glide_lipo>
-1.67402

> <r_i_glide_metal>
0

> <r_i_glide_rewards>
-0.65624

> <s_i_glide_gridfile>
wee1_glide-grid

> <s_m_Source_File>
wee1_decoys_glide_SP.sdf

> <s_m_Source_Path>
/Users/zhangxujun/Desktop

> <s_m_entry_id>
5065

> <s_m_entry_name>
wee1_decoys_glide_SP.4790

> <s_m_subgroup_title>
wee1_decoys_glide_SP

> <s_m_subgroupid>
wee1_decoys_glide_SP


$$$$
