ZINC66385436_1402
                    3D
 Schrodinger Suite 2024-2.
 43 45  0  0  1  0            999 V2000
    5.1357   56.5350   18.4325 C   0  0  0  0  0  0
    5.4647   55.0241   18.4015 C   0  0  1  0  0  0
    4.9824   54.6691   17.4891 H   0  0  0  0  0  0
    6.9457   54.7151   18.2037 C   0  0  0  0  0  0
    7.5077   53.7030   17.4221 C   0  0  0  0  0  0
    8.9042   53.6963   17.3880 C   0  0  0  0  0  0
    9.4516   54.7103   18.1486 C   0  0  0  0  0  0
    8.2304   55.6627   18.9202 S   0  0  0  0  0  0
    4.8657   54.2456   19.5134 N   0  0  0  0  0  0
    4.0821   53.0998   19.0116 C   0  0  0  0  0  0
    5.1044   54.4956   20.8367 C   0  0  0  0  0  0
    5.8871   55.3730   21.2194 O   0  0  0  0  0  0
    4.3375   53.7846   21.6940 N   0  0  0  0  0  0
    4.6401   53.8130   23.0540 N   0  0  0  0  0  0
    3.6396   54.1346   23.9037 C   0  0  0  0  0  0
    2.5057   54.4963   23.5711 O   0  0  0  0  0  0
    4.0011   54.0445   25.2929 C   0  0  0  0  0  0
    5.1679   54.1946   25.8830 N   0  0  0  0  0  0
    4.9601   53.9526   27.2378 N   0  0  0  0  0  0
    3.6787   53.7010   27.3711 C   0  0  0  0  0  0
    3.0149   53.7745   26.1885 O   0  0  0  0  0  0
    2.9274   53.2983   28.5987 C   0  0  0  0  0  0
    3.6228   52.8944   29.7428 C   0  0  0  0  0  0
    2.9273   52.4957   30.8817 C   0  0  0  0  0  0
    1.5343   52.4971   30.8784 C   0  0  0  0  0  0
    0.8316   52.8963   29.7441 C   0  0  0  0  0  0
    1.5276   53.2961   28.6047 C   0  0  0  0  0  0
    5.4926   57.0309   17.5291 H   0  0  0  0  0  0
    4.0594   56.6973   18.4813 H   0  0  0  0  0  0
    5.5885   57.0468   19.2817 H   0  0  0  0  0  0
    6.9073   52.9824   16.8851 H   0  0  0  0  0  0
    9.4894   52.9739   16.8368 H   0  0  0  0  0  0
   10.4974   54.9285   18.3122 H   0  0  0  0  0  0
    3.7062   52.4293   19.7849 H   0  0  0  0  0  0
    3.2238   53.4590   18.4443 H   0  0  0  0  0  0
    4.6963   52.4967   18.3429 H   0  0  0  0  0  0
    3.8897   52.9253   21.4123 H   0  0  0  0  0  0
    5.3785   53.1733   23.3102 H   0  0  0  0  0  0
    4.7038   52.8811   29.7437 H   0  0  0  0  0  0
    3.4644   52.1811   31.7665 H   0  0  0  0  0  0
    0.9890   52.1862   31.7593 H   0  0  0  0  0  0
   -0.2492   52.8878   29.7484 H   0  0  0  0  0  0
    0.9753   53.5971   27.7260 H   0  0  0  0  0  0
  1  2  1  0  0  0
  1 28  1  0  0  0
  1 29  1  0  0  0
  1 30  1  0  0  0
  2  3  1  0  0  0
  2  4  1  0  0  0
  2  9  1  0  0  0
  4  8  1  0  0  0
  4  5  2  0  0  0
  5  6  1  0  0  0
  5 31  1  0  0  0
  6  7  2  0  0  0
  6 32  1  0  0  0
  7  8  1  0  0  0
  7 33  1  0  0  0
  9 10  1  0  0  0
  9 11  1  0  0  0
 10 34  1  0  0  0
 10 35  1  0  0  0
 10 36  1  0  0  0
 11 12  2  0  0  0
 11 13  1  0  0  0
 13 14  1  0  0  0
 13 37  1  0  0  0
 14 15  1  0  0  0
 14 38  1  0  0  0
 15 16  2  0  0  0
 15 17  1  0  0  0
 17 21  1  0  0  0
 17 18  2  0  0  0
 18 19  1  0  0  0
 19 20  2  0  0  0
 20 21  1  0  0  0
 20 22  1  0  0  0
 22 27  2  0  0  0
 22 23  1  0  0  0
 23 24  2  0  0  0
 23 39  1  0  0  0
 24 25  1  0  0  0
 24 40  1  0  0  0
 25 26  2  0  0  0
 25 41  1  0  0  0
 26 27  1  0  0  0
 26 42  1  0  0  0
 27 43  1  0  0  0
M  END
> <i_i_glide_confnum>
64

> <i_i_glide_lignum>
1403

> <i_i_glide_posenum>
266

> <i_i_glide_rotatable_bonds>
8

> <i_m_Source_File_Index>
5788

> <b_m_subgroup_collapsed>
0

> <r_i_docking_score>
-4.45354

> <r_i_glide_ecoul>
-3.00995

> <r_i_glide_eff_state_penalty>
0

> <r_i_glide_einternal>
11.9811

> <r_i_glide_emodel>
-51.2773

> <r_i_glide_energy>
-44.8298

> <r_i_glide_erotb>
0.979495

> <r_i_glide_esite>
-0.00125055

> <r_i_glide_evdw>
-41.8198

> <r_i_glide_gscore>
-4.45354

> <r_i_glide_hbond>
0

> <r_i_glide_ligand_efficiency>
-0.17129

> <r_i_glide_ligand_efficiency_ln>
-1.0459

> <r_i_glide_ligand_efficiency_sa>
-0.507446

> <r_i_glide_lipo>
-1.59997

> <r_i_glide_metal>
0

> <r_i_glide_rewards>
-1.28934

> <s_i_glide_gridfile>
wee1_glide-grid

> <s_m_Source_File>
wee1_decoys_glide_SP.sdf

> <s_m_Source_Path>
/Users/zhangxujun/Desktop

> <s_m_entry_id>
6063

> <s_m_entry_name>
wee1_decoys_glide_SP.5788

> <s_m_subgroup_title>
wee1_decoys_glide_SP

> <s_m_subgroupid>
wee1_decoys_glide_SP


$$$$
