@<TRIPOS>MOLECULE
ZINC66390439_6226
56   57    1
SMALL
USER_CHARGES


@<TRIPOS>ATOM
      1 C1         -1.1439   51.2969   27.8854 C.3       1 UNK         0.0000 
      2 C2         -0.2807   51.6991   26.6769 C.3       1 UNK         0.0000 
      3 H3         -0.7377   52.5389   26.1511 H         1 UNK         0.0000 
      4 C4         -0.1058   50.5848   25.6111 C.2       1 UNK         0.0000 
      5 O5          0.6663   50.7773   24.6674 O.2       1 UNK         0.0000 
      6 N6         -0.8259   49.4620   25.8001 N.am      1 UNK         0.0000 
      7 C7         -1.0021   48.4022   24.9973 C.2       1 UNK         0.0000 
      8 O8         -0.6571   48.2866   23.8195 O.2       1 UNK         0.0000 
      9 N9         -1.6955   47.4851   25.6817 N.am      1 UNK         0.0000 
     10 C10        -2.5609   46.4590   25.1277 C.3       1 UNK         0.0000 
     11 C11        -3.3922   45.8071   26.2428 C.3       1 UNK         0.0000 
     12 O12        -4.3091   44.8965   25.6608 O.3       1 UNK         0.0000 
     13 C13        -5.1069   44.2070   26.6123 C.3       1 UNK         0.0000 
     14 N14         1.1286   52.2372   26.9965 N.4       1 UNK         0.0000 
     15 C15         1.1474   53.5942   27.7305 C.3       1 UNK         0.0000 
     16 C16         2.4247   53.7804   28.6036 C.3       1 UNK         0.0000 
     17 C17         2.1855   55.0312   29.5032 C.3       1 UNK         0.0000 
     18 C18         1.0001   54.8884   30.4953 C.3       1 UNK         0.0000 
     19 O19         1.1043   53.6964   31.2765 O.3       1 UNK         0.0000 
     20 C20         1.3477   52.4748   30.5820 C.3       1 UNK         0.0000 
     21 C21         2.5582   52.6033   29.6235 C.3       1 UNK         0.0000 
     22 C22         3.7212   53.9891   27.7700 C.ar      1 UNK         0.0000 
     23 C23         4.9636   54.1132   28.4130 C.ar      1 UNK         0.0000 
     24 C24         6.1198   54.3867   27.6858 C.ar      1 UNK         0.0000 
     25 C25         6.0438   54.5584   26.3093 C.ar      1 UNK         0.0000 
     26 C26         4.8349   54.4184   25.6469 C.ar      1 UNK         0.0000 
     27 C27         3.6862   54.1283   26.3691 C.ar      1 UNK         0.0000 
     28 F28         7.1405   54.8909   25.6030 F         1 UNK         0.0000 
     29 H29        -2.1261   50.9382   27.5719 H         1 UNK         0.0000 
     30 H30        -0.6508   50.5159   28.4677 H         1 UNK         0.0000 
     31 H31        -1.3214   52.1399   28.5485 H         1 UNK         0.0000 
     32 H32        -1.2876   49.3809   26.6984 H         1 UNK         0.0000 
     33 H33        -1.6918   47.5597   26.6966 H         1 UNK         0.0000 
     34 H34        -1.9539   45.7099   24.6176 H         1 UNK         0.0000 
     35 H35        -3.2260   46.8899   24.3748 H         1 UNK         0.0000 
     36 H36        -3.9342   46.5727   26.8022 H         1 UNK         0.0000 
     37 H37        -2.7324   45.2957   26.9468 H         1 UNK         0.0000 
     38 H38        -5.7952   43.5416   26.0922 H         1 UNK         0.0000 
     39 H39        -5.6994   44.8973   27.2138 H         1 UNK         0.0000 
     40 H40        -4.4982   43.5953   27.2787 H         1 UNK         0.0000 
     41 H41         1.5994   51.5544   27.5725 H         1 UNK         0.0000 
     42 H42         1.1044   54.3573   26.9602 H         1 UNK         0.0000 
     43 H43         0.2205   53.6353   28.2906 H         1 UNK         0.0000 
     44 H44         3.0849   55.2445   30.0817 H         1 UNK         0.0000 
     45 H45         2.0612   55.9238   28.8866 H         1 UNK         0.0000 
     46 H46         0.9902   55.7425   31.1739 H         1 UNK         0.0000 
     47 H47         0.0398   54.8963   29.9861 H         1 UNK         0.0000 
     48 H48         1.5408   51.6967   31.3212 H         1 UNK         0.0000 
     49 H49         0.4532   52.1769   30.0408 H         1 UNK         0.0000 
     50 H50         2.7389   51.6635   29.1014 H         1 UNK         0.0000 
     51 H51         3.4518   52.7246   30.2352 H         1 UNK         0.0000 
     52 H52         5.0440   54.0348   29.4850 H         1 UNK         0.0000 
     53 H53         7.0661   54.4967   28.1937 H         1 UNK         0.0000 
     54 H54         4.7878   54.5493   24.5757 H         1 UNK         0.0000 
     55 H55         2.7827   54.0458   25.7900 H         1 UNK         0.0000 
     56 H56         1.6496   52.3095   26.1315 H         1 UNK         0.0000 
@<TRIPOS>BOND
     1    1    2 1    
     2    1   29 1    
     3    1   30 1    
     4    1   31 1    
     5    2    3 1    
     6    2    4 1    
     7    2   14 1    
     8    4    5 2    
     9    4    6 am   BACKBONE|DICT|INTERRES
    10    6    7 am   BACKBONE|DICT|INTERRES
    11    6   32 1    
    12    7    8 2    
    13    7    9 am   BACKBONE|DICT|INTERRES
    14    9   10 1    
    15    9   33 1    
    16   10   11 1    
    17   10   34 1    
    18   10   35 1    
    19   11   12 1    
    20   11   36 1    
    21   11   37 1    
    22   12   13 1    
    23   13   38 1    
    24   13   39 1    
    25   13   40 1    
    26   14   15 1    
    27   14   41 1    
    28   14   56 1    
    29   15   16 1    
    30   15   42 1    
    31   15   43 1    
    32   16   21 1    
    33   16   17 1    
    34   16   22 1    
    35   17   18 1    
    36   17   44 1    
    37   17   45 1    
    38   18   19 1    
    39   18   46 1    
    40   18   47 1    
    41   19   20 1    
    42   20   21 1    
    43   20   48 1    
    44   20   49 1    
    45   21   50 1    
    46   21   51 1    
    47   22   27 ar   
    48   22   23 ar   
    49   23   24 ar   
    50   23   52 1    
    51   24   25 ar   
    52   24   53 1    
    53   25   26 ar   
    54   25   28 1    
    55   26   27 ar   
    56   26   54 1    
    57   27   55 1    
@<TRIPOS>SUBSTRUCTURE
     1 UNK         1 GROUP             0       ****    0 ROOT    
