@<TRIPOS>MOLECULE
ZINC26062032_3730
68   72    1
SMALL
USER_CHARGES


@<TRIPOS>ATOM
      1 C1          6.3640   55.4645   20.9745 C.3       1 UNK         0.0000 
      2 C2          5.2170   54.5984   20.4078 C.3       1 UNK         0.0000 
      3 C3          5.6638   53.9832   19.0652 C.3       1 UNK         0.0000 
      4 C4          4.6010   53.5074   21.3525 C.3       1 UNK         0.0000 
      5 H5          5.3313   52.6994   21.4527 H         1 UNK         0.0000 
      6 C6          4.2952   54.0382   22.7837 C.2       1 UNK         0.0000 
      7 O7          3.1444   54.3398   23.1109 O.2       1 UNK         0.0000 
      8 N8          5.3582   54.0967   23.6124 N.am      1 UNK         0.0000 
      9 C9          5.3732   54.2837   25.0051 C.ar      1 UNK         0.0000 
     10 C10         6.5504   54.8046   25.5452 C.ar      1 UNK         0.0000 
     11 C11         6.7025   54.8960   26.9284 C.ar      1 UNK         0.0000 
     12 C12         5.7068   54.4450   27.7819 C.ar      1 UNK         0.0000 
     13 C13         4.5251   53.9233   27.2598 C.ar      1 UNK         0.0000 
     14 C14         4.3442   53.8598   25.8707 C.ar      1 UNK         0.0000 
     15 S15         3.3067   53.2815   28.4027 S.o2      1 UNK         0.0000 
     16 O16         2.0244   53.2151   27.6972 O.2       1 UNK         0.0000 
     17 O17         3.8935   52.0972   29.0324 O.2       1 UNK         0.0000 
     18 N18         3.1980   54.4822   29.6817 N.pl3     1 UNK         0.0000 
     19 C19         2.5700   55.7827   29.4427 C.3       1 UNK         0.0000 
     20 C20         1.1041   55.7812   29.1800 C.3       1 UNK         0.0000 
     21 C21         1.6059   56.2903   30.4956 C.3       1 UNK         0.0000 
     22 N22         3.3988   52.9426   20.7267 N.am      1 UNK         0.0000 
     23 C23         2.9336   51.6952   20.9059 C.2       1 UNK         0.0000 
     24 O24         3.5042   50.8969   21.6474 O.2       1 UNK         0.0000 
     25 C25         1.6553   51.2612   20.1280 C.3       1 UNK         0.0000 
     26 C26         2.0970   50.3580   18.9335 C.3       1 UNK         0.0000 
     27 C27         0.8492   49.8673   18.1544 C.3       1 UNK         0.0000 
     28 C28        -0.0688   49.0525   19.1051 C.3       1 UNK         0.0000 
     29 C29        -0.5263   49.9474   20.2880 C.3       1 UNK         0.0000 
     30 C30         0.7197   50.4378   21.0715 C.3       1 UNK         0.0000 
     31 C31        -1.3061   51.1728   19.7417 C.3       1 UNK         0.0000 
     32 C32        -0.3957   51.9897   18.7873 C.3       1 UNK         0.0000 
     33 C33         0.0662   51.0911   17.6094 C.3       1 UNK         0.0000 
     34 C34         0.8508   52.4857   19.5631 C.3       1 UNK         0.0000 
     35 H35         7.1936   54.8675   21.3477 H         1 UNK         0.0000 
     36 H36         6.7656   56.1325   20.2120 H         1 UNK         0.0000 
     37 H37         6.0232   56.0979   21.7863 H         1 UNK         0.0000 
     38 H38         4.4219   55.2921   20.1409 H         1 UNK         0.0000 
     39 H39         6.4334   53.2246   19.2087 H         1 UNK         0.0000 
     40 H40         4.8336   53.5044   18.5439 H         1 UNK         0.0000 
     41 H41         6.0658   54.7402   18.3909 H         1 UNK         0.0000 
     42 H42         6.2602   53.9382   23.1902 H         1 UNK         0.0000 
     43 H43         7.3527   55.1255   24.8956 H         1 UNK         0.0000 
     44 H44         7.6001   55.2965   27.3690 H         1 UNK         0.0000 
     45 H45         5.8670   54.4986   28.8493 H         1 UNK         0.0000 
     46 H46         3.4445   53.4130   25.4737 H         1 UNK         0.0000 
     47 H47         3.9607   54.4556   30.3596 H         1 UNK         0.0000 
     48 H48         3.1447   56.4969   28.8815 H         1 UNK         0.0000 
     49 H49         0.7046   56.5073   28.4810 H         1 UNK         0.0000 
     50 H50         0.5720   54.8310   29.1488 H         1 UNK         0.0000 
     51 H51         1.3759   55.6969   31.3767 H         1 UNK         0.0000 
     52 H52         1.5917   57.3596   30.7024 H         1 UNK         0.0000 
     53 H53         2.8666   53.5811   20.1517 H         1 UNK         0.0000 
     54 H54         2.6750   49.4982   19.2820 H         1 UNK         0.0000 
     55 H55         2.7611   50.9005   18.2566 H         1 UNK         0.0000 
     56 H56         1.1698   49.2379   17.3230 H         1 UNK         0.0000 
     57 H57        -0.9346   48.6749   18.5584 H         1 UNK         0.0000 
     58 H58         0.4609   48.1758   19.4788 H         1 UNK         0.0000 
     59 H59        -1.1730   49.3713   20.9529 H         1 UNK         0.0000 
     60 H60         0.4073   51.0410   21.9264 H         1 UNK         0.0000 
     61 H61         1.2440   49.5749   21.4876 H         1 UNK         0.0000 
     62 H62        -1.6475   51.8004   20.5673 H         1 UNK         0.0000 
     63 H63        -2.2059   50.8475   19.2178 H         1 UNK         0.0000 
     64 H64        -0.9475   52.8480   18.3976 H         1 UNK         0.0000 
     65 H65        -0.7932   50.7621   17.0228 H         1 UNK         0.0000 
     66 H66         0.6925   51.6630   16.9230 H         1 UNK         0.0000 
     67 H67         1.4622   53.0916   18.8931 H         1 UNK         0.0000 
     68 H68         0.5411   53.1341   20.3833 H         1 UNK         0.0000 
@<TRIPOS>BOND
     1    1    2 1    
     2    1   35 1    
     3    1   36 1    
     4    1   37 1    
     5    2    3 1    
     6    2    4 1    
     7    2   38 1    
     8    3   39 1    
     9    3   40 1    
    10    3   41 1    
    11    4    5 1    
    12    4    6 1    
    13    4   22 1    
    14    6    7 2    
    15    6    8 am   BACKBONE|DICT|INTERRES
    16    8    9 1    
    17    8   42 1    
    18    9   14 ar   
    19    9   10 ar   
    20   10   11 ar   
    21   10   43 1    
    22   11   12 ar   
    23   11   44 1    
    24   12   13 ar   
    25   12   45 1    
    26   13   14 ar   
    27   13   15 1    
    28   14   46 1    
    29   15   16 2    
    30   15   17 2    
    31   15   18 1    
    32   18   19 1    
    33   18   47 1    
    34   19   21 1    
    35   19   20 1    
    36   19   48 1    
    37   20   21 1    
    38   20   49 1    
    39   20   50 1    
    40   21   51 1    
    41   21   52 1    
    42   22   23 am   BACKBONE|DICT|INTERRES
    43   22   53 1    
    44   23   24 2    
    45   23   25 1    
    46   25   30 1    
    47   25   34 1    
    48   25   26 1    
    49   26   27 1    
    50   26   54 1    
    51   26   55 1    
    52   27   33 1    
    53   27   28 1    
    54   27   56 1    
    55   28   29 1    
    56   28   57 1    
    57   28   58 1    
    58   29   30 1    
    59   29   31 1    
    60   29   59 1    
    61   30   60 1    
    62   30   61 1    
    63   31   32 1    
    64   31   62 1    
    65   31   63 1    
    66   32   33 1    
    67   32   34 1    
    68   32   64 1    
    69   33   65 1    
    70   33   66 1    
    71   34   67 1    
    72   34   68 1    
@<TRIPOS>SUBSTRUCTURE
     1 UNK         1 GROUP             0       ****    0 ROOT    
