@<TRIPOS>MOLECULE
ZINC14544902_3920
60   65    1
SMALL
USER_CHARGES


@<TRIPOS>ATOM
      1 C1         -0.4351   52.7066   29.6949 C.3       1 UNK         0.0000 
      2 C2          0.8699   52.0451   29.2290 C.3       1 UNK         0.0000 
      3 H3          1.0975   51.2968   29.9833 H         1 UNK         0.0000 
      4 C4          2.1099   52.9561   29.2222 C.ar      1 UNK         0.0000 
      5 C5          2.0167   54.3454   29.3765 C.ar      1 UNK         0.0000 
      6 C6          3.1582   55.1344   29.2815 C.ar      1 UNK         0.0000 
      7 C7          4.3935   54.5391   29.0398 C.ar      1 UNK         0.0000 
      8 C8          4.5003   53.1606   28.8955 C.ar      1 UNK         0.0000 
      9 C9          3.3603   52.3730   29.0042 C.ar      1 UNK         0.0000 
     10 N10         0.6462   51.2973   27.9811 N.am      1 UNK         0.0000 
     11 C11         0.7041   51.7822   26.7254 C.2       1 UNK         0.0000 
     12 O12         1.0031   52.9572   26.5134 O.2       1 UNK         0.0000 
     13 C13         0.4606   50.8055   25.5781 C.ar      1 UNK         0.0000 
     14 C14         0.0301   49.5003   25.8643 C.ar      1 UNK         0.0000 
     15 C15        -0.1888   48.5665   24.8614 C.ar      1 UNK         0.0000 
     16 C16         0.0746   48.8969   23.5411 C.ar      1 UNK         0.0000 
     17 C17         0.5635   50.1605   23.1991 C.ar      1 UNK         0.0000 
     18 C18         0.7075   51.1377   24.2171 C.ar      1 UNK         0.0000 
     19 N19         1.1311   52.4483   23.8599 N.pl3     1 UNK         0.0000 
     20 C20         1.4874   52.8680   22.4957 C.3       1 UNK         0.0000 
     21 H21         1.0948   53.8774   22.3773 H         1 UNK         0.0000 
     22 C22         0.7089   51.9496   21.5166 C.3       1 UNK         0.0000 
     23 H23        -0.3442   52.1187   21.7706 H         1 UNK         0.0000 
     24 C24         1.0202   50.4910   21.7832 C.3       1 UNK         0.0000 
     25 H25         2.0958   50.3030   21.7659 H         1 UNK         0.0000 
     26 C26         0.3910   49.8287   20.5746 C.2       1 UNK         0.0000 
     27 C27         0.2982   50.7124   19.5604 C.2       1 UNK         0.0000 
     28 C28         0.7341   52.1050   19.9948 C.3       1 UNK         0.0000 
     29 C29         2.9995   53.0076   22.3221 C.ar      1 UNK         0.0000 
     30 C30         3.8111   52.5463   21.2964 C.ar      1 UNK         0.0000 
     31 N31         5.1044   52.9498   21.4882 N.pl3     1 UNK         0.0000 
     32 H32         5.8350   52.7372   20.8269 H         1 UNK         0.0000 
     33 C33         5.2118   53.6455   22.6698 C.ar      1 UNK         0.0000 
     34 C34         3.8981   53.6966   23.2284 C.ar      1 UNK         0.0000 
     35 C35         3.7340   54.3485   24.4650 C.ar      1 UNK         0.0000 
     36 C36         4.8471   54.8928   25.1100 C.ar      1 UNK         0.0000 
     37 C37         6.1110   54.8291   24.5323 C.ar      1 UNK         0.0000 
     38 C38         6.3258   54.2138   23.2988 C.ar      1 UNK         0.0000 
     39 H39        -0.3355   53.1255   30.6984 H         1 UNK         0.0000 
     40 H40        -0.7268   53.5071   29.0166 H         1 UNK         0.0000 
     41 H41        -1.2525   51.9824   29.7278 H         1 UNK         0.0000 
     42 H42         1.0654   54.8303   29.5411 H         1 UNK         0.0000 
     43 H43         3.0830   56.2066   29.3799 H         1 UNK         0.0000 
     44 H44         5.2808   55.1545   28.9580 H         1 UNK         0.0000 
     45 H45         5.4618   52.7067   28.6972 H         1 UNK         0.0000 
     46 H46         3.4426   51.3032   28.8820 H         1 UNK         0.0000 
     47 H47         0.1981   50.3974   28.0895 H         1 UNK         0.0000 
     48 H48        -0.1298   49.1655   26.8794 H         1 UNK         0.0000 
     49 H49        -0.5285   47.5752   25.1232 H         1 UNK         0.0000 
     50 H50        -0.0706   48.1455   22.7805 H         1 UNK         0.0000 
     51 H51         1.2992   53.1190   24.5983 H         1 UNK         0.0000 
     52 H52         0.1771   48.7721   20.5252 H         1 UNK         0.0000 
     53 H53        -0.0398   50.5030   18.5562 H         1 UNK         0.0000 
     54 H54         0.0305   52.8776   19.6747 H         1 UNK         0.0000 
     55 H55         1.6967   52.3857   19.5833 H         1 UNK         0.0000 
     56 H56         3.5798   51.9675   20.4127 H         1 UNK         0.0000 
     57 H57         2.7640   54.4153   24.9334 H         1 UNK         0.0000 
     58 H58         4.7221   55.3748   26.0694 H         1 UNK         0.0000 
     59 H59         6.9509   55.2665   25.0521 H         1 UNK         0.0000 
     60 H60         7.3177   54.1689   22.8761 H         1 UNK         0.0000 
@<TRIPOS>BOND
     1    1    2 1    
     2    1   39 1    
     3    1   40 1    
     4    1   41 1    
     5    2    3 1    
     6    2    4 1    
     7    2   10 1    
     8    4    9 ar   
     9    4    5 ar   
    10    5    6 ar   
    11    5   42 1    
    12    6    7 ar   
    13    6   43 1    
    14    7    8 ar   
    15    7   44 1    
    16    8    9 ar   
    17    8   45 1    
    18    9   46 1    
    19   10   11 am   BACKBONE|DICT|INTERRES
    20   10   47 1    
    21   11   12 2    
    22   11   13 1    
    23   13   18 ar   
    24   13   14 ar   
    25   14   15 ar   
    26   14   48 1    
    27   15   16 ar   
    28   15   49 1    
    29   16   17 ar   
    30   16   50 1    
    31   17   24 1    
    32   17   18 ar   
    33   18   19 1    
    34   19   20 1    
    35   19   51 1    
    36   20   21 1    
    37   20   22 1    
    38   20   29 1    
    39   22   23 1    
    40   22   28 1    
    41   22   24 1    
    42   24   25 1    
    43   24   26 1    
    44   26   27 2    
    45   26   52 1    
    46   27   28 1    
    47   27   53 1    
    48   28   54 1    
    49   28   55 1    
    50   29   34 ar   
    51   29   30 ar   
    52   30   31 ar   
    53   30   56 1    
    54   31   32 1    
    55   31   33 ar   
    56   33   38 ar   
    57   33   34 ar   
    58   34   35 ar   
    59   35   36 ar   
    60   35   57 1    
    61   36   37 ar   
    62   36   58 1    
    63   37   38 ar   
    64   37   59 1    
    65   38   60 1    
@<TRIPOS>SUBSTRUCTURE
     1 UNK         1 GROUP             0       ****    0 ROOT    
