@<TRIPOS>MOLECULE
ZINC63384224_295
59   63    1
SMALL
USER_CHARGES


@<TRIPOS>ATOM
      1 C1          2.6859   56.4679   16.4468 C.3       1 UNK         0.0000 
      2 C2          3.6686   57.0383   17.4783 C.3       1 UNK         0.0000 
      3 N3          5.1208   56.8972   16.9541 N.4       1 UNK         0.0000 
      4 C4          5.4590   58.1277   16.0648 C.3       1 UNK         0.0000 
      5 C5          6.8590   57.9692   15.4451 C.3       1 UNK         0.0000 
      6 C6          7.8556   57.7337   16.5610 C.2       1 UNK         0.0000 
      7 C7          8.9708   58.3655   16.9537 C.2       1 UNK         0.0000 
      8 C8          9.6682   59.5405   16.4146 C.2       1 UNK         0.0000 
      9 C9         10.8038   59.9846   16.9895 C.2       1 UNK         0.0000 
     10 C10        11.3076   59.2685   18.1546 C.2       1 UNK         0.0000 
     11 C11        10.6622   58.1889   18.6700 C.2       1 UNK         0.0000 
     12 C12         9.4809   57.7190   18.0820 C.2       1 UNK         0.0000 
     13 N13         8.7101   56.7080   18.4295 N.pl3     1 UNK         0.0000 
     14 C14         7.5773   56.5699   17.4856 C.3       1 UNK         0.0000 
     15 H15         7.7050   55.6167   16.9670 H         1 UNK         0.0000 
     16 C16         6.1539   56.6729   18.0993 C.3       1 UNK         0.0000 
     17 H17         6.0539   57.5812   18.7015 H         1 UNK         0.0000 
     18 C18         5.8348   55.3735   18.8670 C.ar      1 UNK         0.0000 
     19 H19         5.1046   52.1868   18.4862 H         1 UNK         0.0000 
     20 C20         5.4938   54.1965   18.2968 C.ar      1 UNK         0.0000 
     21 N21         5.1825   53.0742   18.9763 N.pl3     1 UNK         0.0000 
     22 C22         5.1044   53.0534   20.3337 C.ar      1 UNK         0.0000 
     23 O23         4.7532   52.0119   20.8917 O.2       1 UNK         0.0000 
     24 N24         5.4554   54.2497   20.9616 N.pl3     1 UNK         0.0000 
     25 C25         5.9033   55.4098   20.3283 C.ar      1 UNK         0.0000 
     26 O26         6.3378   56.4159   20.9007 O.2       1 UNK         0.0000 
     27 C27         5.4462   54.2428   22.3959 C.ar      1 UNK         0.0000 
     28 C28         6.6640   54.3867   23.0817 C.ar      1 UNK         0.0000 
     29 C29         6.7062   54.4061   24.4721 C.ar      1 UNK         0.0000 
     30 C30         5.5388   54.2759   25.2174 C.ar      1 UNK         0.0000 
     31 C31         4.3219   54.1138   24.5565 C.ar      1 UNK         0.0000 
     32 C32         4.2595   54.0967   23.1584 C.ar      1 UNK         0.0000 
     33 C33         2.8828   53.9846   22.5232 C.3       1 UNK         0.0000 
     34 C34         5.5983   54.2770   26.7341 C.3       1 UNK         0.0000 
     35 O35         5.4116   53.9939   17.0311 O.co2     1 UNK         0.0000 
     36 H36         1.6627   56.5387   16.8165 H         1 UNK         0.0000 
     37 H37         2.7247   57.0030   15.4971 H         1 UNK         0.0000 
     38 H38         2.8885   55.4138   16.2490 H         1 UNK         0.0000 
     39 H39         3.4955   58.0960   17.6817 H         1 UNK         0.0000 
     40 H40         3.5866   56.4880   18.4173 H         1 UNK         0.0000 
     41 H41         4.7088   58.1788   15.2750 H         1 UNK         0.0000 
     42 H42         5.3822   59.0227   16.6901 H         1 UNK         0.0000 
     43 H43         6.8657   57.1343   14.7423 H         1 UNK         0.0000 
     44 H44         7.1057   58.8592   14.8651 H         1 UNK         0.0000 
     45 H45         9.2925   60.0703   15.5512 H         1 UNK         0.0000 
     46 H46        11.3277   60.8433   16.5939 H         1 UNK         0.0000 
     47 H47        12.2244   59.6027   18.6195 H         1 UNK         0.0000 
     48 H48        11.0811   57.6967   19.5358 H         1 UNK         0.0000 
     49 H49         7.5884   54.5017   22.5336 H         1 UNK         0.0000 
     50 H50         7.6589   54.5176   24.9638 H         1 UNK         0.0000 
     51 H51         3.4154   54.0075   25.1355 H         1 UNK         0.0000 
     52 H52         2.6060   52.9413   22.3719 H         1 UNK         0.0000 
     53 H53         2.1222   54.4647   23.1386 H         1 UNK         0.0000 
     54 H54         2.8636   54.4968   21.5688 H         1 UNK         0.0000 
     55 H55         5.4761   55.2890   27.1240 H         1 UNK         0.0000 
     56 H56         4.8175   53.6396   27.1534 H         1 UNK         0.0000 
     57 H57         6.5494   53.8757   27.0895 H         1 UNK         0.0000 
     58 H58         8.8702   56.0889   19.2202 H         1 UNK         0.0000 
     59 H59         5.1552   56.0400   16.4088 H         1 UNK         0.0000 
@<TRIPOS>BOND
     1    1    2 1    
     2    1   36 1    
     3    1   37 1    
     4    1   38 1    
     5    2    3 1    
     6    2   39 1    
     7    2   40 1    
     8    3   16 1    
     9    3    4 1    
    10    3   59 1    
    11    4    5 1    
    12    4   41 1    
    13    4   42 1    
    14    5    6 1    
    15    5   43 1    
    16    5   44 1    
    17    6   14 1    
    18    6    7 2    
    19    7   12 1    
    20    7    8 1    
    21    8    9 2    
    22    8   45 1    
    23    9   10 1    
    24    9   46 1    
    25   10   11 2    
    26   10   47 1    
    27   11   12 1    
    28   11   48 1    
    29   12   13 2    
    30   13   14 1    
    31   13   58 1    
    32   14   15 1    
    33   14   16 1    
    34   16   17 1    
    35   16   18 1    
    36   18   25 ar   
    37   18   20 ar   
    38   19   21 1    
    39   20   35 1    
    40   20   21 ar   
    41   21   22 ar   
    42   22   23 2    
    43   22   24 ar   
    44   24   25 ar   
    45   24   27 1    
    46   25   26 2    
    47   27   32 ar   
    48   27   28 ar   
    49   28   29 ar   
    50   28   49 1    
    51   29   30 ar   
    52   29   50 1    
    53   30   31 ar   
    54   30   34 1    
    55   31   32 ar   
    56   31   51 1    
    57   32   33 1    
    58   33   52 1    
    59   33   53 1    
    60   33   54 1    
    61   34   55 1    
    62   34   56 1    
    63   34   57 1    
@<TRIPOS>SUBSTRUCTURE
     1 UNK         1 GROUP             0       ****    0 ROOT    
