@<TRIPOS>MOLECULE
ZINC40217003_4683
38   40    1
SMALL
USER_CHARGES


@<TRIPOS>ATOM
      1 C1          0.2802   51.5762   22.6009 C.ar      1 UNK         0.0000 
      2 C2          0.5524   52.1110   23.8598 C.ar      1 UNK         0.0000 
      3 C3          1.7240   52.8407   24.0863 C.ar      1 UNK         0.0000 
      4 C4          2.6166   53.0469   23.0200 C.ar      1 UNK         0.0000 
      5 C5          2.3494   52.4969   21.7612 C.ar      1 UNK         0.0000 
      6 C6          1.1794   51.7640   21.5534 C.ar      1 UNK         0.0000 
      7 S7          3.5051   52.7211   20.4150 S.o2      1 UNK         0.0000 
      8 O8          2.7442   52.6458   19.1644 O.2       1 UNK         0.0000 
      9 O9          4.3542   53.8740   20.7326 O.2       1 UNK         0.0000 
     10 N10         4.5165   51.3102   20.4817 N.pl3     1 UNK         0.0000 
     11 N11         1.9096   53.3171   25.3972 N.am      1 UNK         0.0000 
     12 C12         2.9962   53.8739   25.9756 C.2       1 UNK         0.0000 
     13 O13         4.0752   54.0554   25.4118 O.2       1 UNK         0.0000 
     14 C14         2.8313   54.3003   27.4542 C.3       1 UNK         0.0000 
     15 H15         2.3913   55.2956   27.4011 H         1 UNK         0.0000 
     16 C16         1.9120   53.3978   28.3287 C.3       1 UNK         0.0000 
     17 C17         2.7568   53.2061   29.6092 C.3       1 UNK         0.0000 
     18 H18         2.1635   52.9743   30.4951 H         1 UNK         0.0000 
     19 C19         3.8896   52.2007   29.3481 C.3       1 UNK         0.0000 
     20 C20         4.8438   52.9887   28.4230 C.3       1 UNK         0.0000 
     21 C21         4.1408   54.3589   28.2866 C.3       1 UNK         0.0000 
     22 H22         4.8139   55.1664   27.9937 H         1 UNK         0.0000 
     23 C23         3.5493   54.5038   29.6818 C.3       1 UNK         0.0000 
     24 H24        -0.6228   51.0059   22.4405 H         1 UNK         0.0000 
     25 H25        -0.1520   51.9397   24.6613 H         1 UNK         0.0000 
     26 H26         3.5224   53.6182   23.1494 H         1 UNK         0.0000 
     27 H27         0.9698   51.3374   20.5825 H         1 UNK         0.0000 
     28 H28         4.7246   50.9507   19.5268 H         1 UNK         0.0000 
     29 H29         5.3741   51.4836   21.0065 H         1 UNK         0.0000 
     30 H30         1.1182   53.1840   26.0070 H         1 UNK         0.0000 
     31 H31         1.6746   52.4263   27.8907 H         1 UNK         0.0000 
     32 H32         0.9726   53.9038   28.5578 H         1 UNK         0.0000 
     33 H33         3.5060   51.2968   28.8819 H         1 UNK         0.0000 
     34 H34         4.3906   51.9143   30.2744 H         1 UNK         0.0000 
     35 H35         5.8273   53.1029   28.8810 H         1 UNK         0.0000 
     36 H36         4.9976   52.4990   27.4612 H         1 UNK         0.0000 
     37 H37         2.9231   55.3910   29.8036 H         1 UNK         0.0000 
     38 H38         4.3042   54.4981   30.4715 H         1 UNK         0.0000 
@<TRIPOS>BOND
     1    1    6 ar   
     2    1    2 ar   
     3    1   24 1    
     4    2    3 ar   
     5    2   25 1    
     6    3    4 ar   
     7    3   11 1    
     8    4    5 ar   
     9    4   26 1    
    10    5    6 ar   
    11    5    7 1    
    12    6   27 1    
    13    7    8 2    
    14    7    9 2    
    15    7   10 1    
    16   10   28 1    
    17   10   29 1    
    18   11   12 am   BACKBONE|DICT|INTERRES
    19   11   30 1    
    20   12   13 2    
    21   12   14 1    
    22   14   15 1    
    23   14   21 1    
    24   14   16 1    
    25   16   17 1    
    26   16   31 1    
    27   16   32 1    
    28   17   18 1    
    29   17   23 1    
    30   17   19 1    
    31   19   20 1    
    32   19   33 1    
    33   19   34 1    
    34   20   21 1    
    35   20   35 1    
    36   20   36 1    
    37   21   22 1    
    38   21   23 1    
    39   23   37 1    
    40   23   38 1    
@<TRIPOS>SUBSTRUCTURE
     1 UNK         1 GROUP             0       ****    0 ROOT    
