@<TRIPOS>MOLECULE
ZINC19328047_2493
43   44    1
SMALL
USER_CHARGES


@<TRIPOS>ATOM
      1 C1         -0.2316   52.0968   29.6139 C.3       1 UNK         0.0000 
      2 C2          1.1189   52.6735   30.0448 C.3       1 UNK         0.0000 
      3 O3          1.8959   52.9661   28.8891 O.3       1 UNK         0.0000 
      4 C4          3.1541   53.4430   29.0038 C.2       1 UNK         0.0000 
      5 O5          3.7157   53.6510   30.0816 O.2       1 UNK         0.0000 
      6 C6          3.7922   53.6919   27.6986 C.ar      1 UNK         0.0000 
      7 C7          3.2197   53.6375   26.3919 C.ar      1 UNK         0.0000 
      8 C8          4.2259   53.9983   25.4874 C.ar      1 UNK         0.0000 
      9 N9          5.3627   54.1964   26.2157 N.pl3     1 UNK         0.0000 
     10 H10         6.2589   54.4222   25.8094 H         1 UNK         0.0000 
     11 C11         5.1446   53.9963   27.5378 C.ar      1 UNK         0.0000 
     12 C12         6.3044   54.0966   28.4817 C.3       1 UNK         0.0000 
     13 C13         4.2529   54.1016   24.0353 C.2       1 UNK         0.0000 
     14 N14         5.3119   54.4840   23.4462 N.2       1 UNK         0.0000 
     15 N15         5.1857   54.4972   22.1171 N.am      1 UNK         0.0000 
     16 C16         6.1299   55.0154   21.3085 C.2       1 UNK         0.0000 
     17 O17         7.2124   55.4782   21.6820 O.2       1 UNK         0.0000 
     18 C18         5.7486   55.0229   19.8553 C.ar      1 UNK         0.0000 
     19 C19         5.2735   53.8777   19.1889 C.ar      1 UNK         0.0000 
     20 C20         4.9274   54.0015   17.8335 C.ar      1 UNK         0.0000 
     21 C21         5.0662   55.2415   17.1876 C.ar      1 UNK         0.0000 
     22 C22         5.5588   56.3268   17.9242 C.ar      1 UNK         0.0000 
     23 N23         5.9038   56.2179   19.2294 N.ar      1 UNK         0.0000 
     24 Cl24        5.7443   57.8858   17.1995 Cl        1 UNK         0.0000 
     25 Cl25        4.6397   55.4345   15.5148 Cl        1 UNK         0.0000 
     26 N26         4.4374   52.8967   17.1335 N.pl3     1 UNK         0.0000 
     27 Cl27        5.1033   52.3503   20.0147 Cl        1 UNK         0.0000 
     28 C28         1.7916   53.2973   26.0182 C.3       1 UNK         0.0000 
     29 H29        -0.8464   51.8577   30.4827 H         1 UNK         0.0000 
     30 H30        -0.1033   51.1779   29.0395 H         1 UNK         0.0000 
     31 H31        -0.7839   52.8038   28.9955 H         1 UNK         0.0000 
     32 H32         0.9677   53.5804   30.6324 H         1 UNK         0.0000 
     33 H33         1.6424   51.9564   30.6787 H         1 UNK         0.0000 
     34 H34         6.5585   53.1211   28.8815 H         1 UNK         0.0000 
     35 H35         7.2089   54.4977   28.0246 H         1 UNK         0.0000 
     36 H36         6.0576   54.7398   29.3249 H         1 UNK         0.0000 
     37 H37         3.3202   53.8226   23.5480 H         1 UNK         0.0000 
     38 H38         4.3098   54.1537   21.7498 H         1 UNK         0.0000 
     39 H39         4.4150   52.9783   16.1279 H         1 UNK         0.0000 
     40 H40         4.7040   51.9831   17.5116 H         1 UNK         0.0000 
     41 H41         1.5217   53.5820   25.0023 H         1 UNK         0.0000 
     42 H42         1.5760   52.2377   26.1560 H         1 UNK         0.0000 
     43 H43         1.1047   53.8281   26.6702 H         1 UNK         0.0000 
@<TRIPOS>BOND
     1    1    2 1    
     2    1   29 1    
     3    1   30 1    
     4    1   31 1    
     5    2    3 1    
     6    2   32 1    
     7    2   33 1    
     8    3    4 1    
     9    4    5 2    
    10    4    6 1    
    11    6   11 ar   
    12    6    7 ar   
    13    7    8 ar   
    14    7   28 1    
    15    8    9 ar   
    16    8   13 1    
    17    9   10 1    
    18    9   11 ar   
    19   11   12 1    
    20   12   34 1    
    21   12   35 1    
    22   12   36 1    
    23   13   14 2    
    24   13   37 1    
    25   14   15 1    
    26   15   16 am   BACKBONE|DICT|INTERRES
    27   15   38 1    
    28   16   17 2    
    29   16   18 1    
    30   18   23 ar   
    31   18   19 ar   
    32   19   20 ar   
    33   19   27 1    
    34   20   21 ar   
    35   20   26 1    
    36   21   22 ar   
    37   21   25 1    
    38   22   23 ar   
    39   22   24 1    
    40   26   39 1    
    41   26   40 1    
    42   28   41 1    
    43   28   42 1    
    44   28   43 1    
@<TRIPOS>SUBSTRUCTURE
     1 UNK         1 GROUP             0       ****    0 ROOT    
