@<TRIPOS>MOLECULE
ZINC39686971_1299
69   72    1
SMALL
USER_CHARGES


@<TRIPOS>ATOM
      1 C1          0.4491   51.4722   18.9409 C.3       1 UNK         0.0000 
      2 C2          1.1734   50.7804   20.1158 C.3       1 UNK         0.0000 
      3 H3          2.2161   50.6680   19.8163 H         1 UNK         0.0000 
      4 C4          0.6081   49.3711   20.4526 C.3       1 UNK         0.0000 
      5 C5          0.7514   48.2763   19.3915 C.ar      1 UNK         0.0000 
      6 C6          1.8099   48.2734   18.4728 C.ar      1 UNK         0.0000 
      7 C7          1.9046   47.2726   17.5076 C.ar      1 UNK         0.0000 
      8 C8          0.9597   46.2500   17.4610 C.ar      1 UNK         0.0000 
      9 C9         -0.0802   46.2265   18.3889 C.ar      1 UNK         0.0000 
     10 C10        -0.1843   47.2317   19.3506 C.ar      1 UNK         0.0000 
     11 F11        -1.1986   47.1806   20.2459 F         1 UNK         0.0000 
     12 N12         1.2544   51.6130   21.3178 N.am      1 UNK         0.0000 
     13 C13         0.2386   52.0966   22.0614 C.2       1 UNK         0.0000 
     14 O14        -0.9389   52.0170   21.7127 O.2       1 UNK         0.0000 
     15 C15         0.5453   52.7357   23.4439 C.3       1 UNK         0.0000 
     16 H16        -0.0337   53.6576   23.5118 H         1 UNK         0.0000 
     17 C17         2.0231   53.1697   23.5398 C.3       1 UNK         0.0000 
     18 N18         2.2968   53.1347   24.9741 N.am      1 UNK         0.0000 
     19 C19         1.2397   52.4490   25.7302 C.3       1 UNK         0.0000 
     20 C20         0.3112   51.8014   24.6690 C.3       1 UNK         0.0000 
     21 C21         0.7142   50.3080   24.3992 C.3       1 UNK         0.0000 
     22 C22         0.5167   49.3860   25.6262 C.3       1 UNK         0.0000 
     23 N23        -0.9557   49.4751   26.0817 N.4       1 UNK         0.0000 
     24 C24        -1.4299   50.9213   26.3417 C.3       1 UNK         0.0000 
     25 C25        -1.1874   51.7498   25.0658 C.3       1 UNK         0.0000 
     26 C26         3.3717   53.7783   25.4970 C.2       1 UNK         0.0000 
     27 O27         4.1466   54.4188   24.7813 O.2       1 UNK         0.0000 
     28 C28         3.6789   53.6643   27.0102 C.3       1 UNK         0.0000 
     29 H29         3.3355   52.6975   27.3618 H         1 UNK         0.0000 
     30 C30         5.1890   53.7029   27.3320 C.3       1 UNK         0.0000 
     31 O31         3.1041   54.8032   27.6511 O.3       1 UNK         0.0000 
     32 C32         2.2178   54.6862   28.7022 C.ar      1 UNK         0.0000 
     33 C33         1.5956   53.4969   29.1206 C.ar      1 UNK         0.0000 
     34 C34         0.7262   53.5090   30.2076 C.ar      1 UNK         0.0000 
     35 C35         0.4884   54.7009   30.8818 C.ar      1 UNK         0.0000 
     36 C36         1.1044   55.8847   30.4817 C.ar      1 UNK         0.0000 
     37 C37         1.9512   55.8749   29.3817 C.ar      1 UNK         0.0000 
     38 H38         0.4611   50.8408   18.0514 H         1 UNK         0.0000 
     39 H39        -0.6005   51.6622   19.1628 H         1 UNK         0.0000 
     40 H40         0.9306   52.4154   18.6777 H         1 UNK         0.0000 
     41 H41         1.0835   48.9890   21.3583 H         1 UNK         0.0000 
     42 H42        -0.4487   49.4869   20.7008 H         1 UNK         0.0000 
     43 H43         2.5735   49.0375   18.4803 H         1 UNK         0.0000 
     44 H44         2.7203   47.2960   16.7987 H         1 UNK         0.0000 
     45 H45         1.0386   45.4755   16.7126 H         1 UNK         0.0000 
     46 H46        -0.8112   45.4326   18.3627 H         1 UNK         0.0000 
     47 H47         2.1923   51.8057   21.6312 H         1 UNK         0.0000 
     48 H48         2.1734   54.1526   23.0879 H         1 UNK         0.0000 
     49 H49         2.6976   52.4210   23.1235 H         1 UNK         0.0000 
     50 H50         1.5554   51.7579   26.5090 H         1 UNK         0.0000 
     51 H51         0.6754   53.2370   26.2295 H         1 UNK         0.0000 
     52 H52         0.1493   49.8879   23.5659 H         1 UNK         0.0000 
     53 H53         1.7578   50.2517   24.0817 H         1 UNK         0.0000 
     54 H54         0.7040   48.3355   25.3966 H         1 UNK         0.0000 
     55 H55         1.1044   49.6571   26.5001 H         1 UNK         0.0000 
     56 H56        -1.5557   49.0369   25.3960 H         1 UNK         0.0000 
     57 H57        -2.4868   50.8475   26.6057 H         1 UNK         0.0000 
     58 H58        -0.8764   51.2793   27.2112 H         1 UNK         0.0000 
     59 H59        -1.5448   52.7634   25.2531 H         1 UNK         0.0000 
     60 H60        -1.8001   51.3824   24.2402 H         1 UNK         0.0000 
     61 H61         5.7283   52.8965   26.8346 H         1 UNK         0.0000 
     62 H62         5.6433   54.6465   27.0240 H         1 UNK         0.0000 
     63 H63         5.3597   53.5950   28.4037 H         1 UNK         0.0000 
     64 H64         1.7507   52.5513   28.6323 H         1 UNK         0.0000 
     65 H65         0.2455   52.5975   30.5371 H         1 UNK         0.0000 
     66 H66        -0.1688   54.7006   31.7385 H         1 UNK         0.0000 
     67 H67         0.9231   56.8064   31.0167 H         1 UNK         0.0000 
     68 H68         2.4233   56.7946   29.0673 H         1 UNK         0.0000 
     69 H69        -1.0885   48.9422   26.9571 H         1 UNK         0.0000 
@<TRIPOS>BOND
     1    1    2 1    
     2    1   38 1    
     3    1   39 1    
     4    1   40 1    
     5    2    3 1    
     6    2    4 1    
     7    2   12 1    
     8    4    5 1    
     9    4   41 1    
    10    4   42 1    
    11    5   10 ar   
    12    5    6 ar   
    13    6    7 ar   
    14    6   43 1    
    15    7    8 ar   
    16    7   44 1    
    17    8    9 ar   
    18    8   45 1    
    19    9   10 ar   
    20    9   46 1    
    21   10   11 1    
    22   12   13 am   BACKBONE|DICT|INTERRES
    23   12   47 1    
    24   13   14 2    
    25   13   15 1    
    26   15   16 1    
    27   15   20 1    
    28   15   17 1    
    29   17   18 1    
    30   17   48 1    
    31   17   49 1    
    32   18   19 1    
    33   18   26 am   BACKBONE|DICT|INTERRES
    34   19   20 1    
    35   19   50 1    
    36   19   51 1    
    37   20   25 1    
    38   20   21 1    
    39   21   22 1    
    40   21   52 1    
    41   21   53 1    
    42   22   23 1    
    43   22   54 1    
    44   22   55 1    
    45   23   24 1    
    46   23   56 1    
    47   23   69 1    
    48   24   25 1    
    49   24   57 1    
    50   24   58 1    
    51   25   59 1    
    52   25   60 1    
    53   26   27 2    
    54   26   28 1    
    55   28   29 1    
    56   28   30 1    
    57   28   31 1    
    58   30   61 1    
    59   30   62 1    
    60   30   63 1    
    61   31   32 1    
    62   32   37 ar   
    63   32   33 ar   
    64   33   34 ar   
    65   33   64 1    
    66   34   35 ar   
    67   34   65 1    
    68   35   36 ar   
    69   35   66 1    
    70   36   37 ar   
    71   36   67 1    
    72   37   68 1    
@<TRIPOS>SUBSTRUCTURE
     1 UNK         1 GROUP             0       ****    0 ROOT    
