ZINC33129155_320
                    3D
 Schrodinger Suite 2024-2.
 73 76  0  0  1  0            999 V2000
   -4.7236   51.7307   27.1994 C   0  0  0  0  0  0
   -3.7273   51.3278   26.1221 C   0  0  0  0  0  0
   -3.2283   52.3009   25.2537 C   0  0  0  0  0  0
   -2.3263   51.9736   24.2396 C   0  0  0  0  0  0
   -1.9044   50.6383   24.0901 C   0  0  0  0  0  0
   -2.3961   49.6702   24.9735 C   0  0  0  0  0  0
   -3.3104   49.9974   25.9767 C   0  0  0  0  0  0
   -3.8275   48.9019   26.8983 C   0  0  0  0  0  0
   -0.7436   50.0895   22.8155 S   0  0  0  0  0  0
   -0.8909   50.9377   21.6283 O   0  0  0  0  0  0
   -0.8749   48.6328   22.7004 O   0  0  0  0  0  0
    0.8592   50.3705   23.5038 N   0  0  0  0  0  0
    1.5033   51.6164   23.4609 C   0  0  0  0  0  0
    1.7163   52.2783   24.6719 C   0  0  0  0  0  0
    2.4936   53.4447   24.7187 C   0  0  0  0  0  0
    2.9460   53.9688   23.5076 C   0  0  0  0  0  0
    2.7181   53.3706   22.3191 N   0  0  0  0  0  0
    2.0350   52.1920   22.2817 C   0  0  0  0  0  0
    2.0431   51.5438   21.0467 N   0  0  0  0  0  0
    2.7186   50.2350   20.9653 C   0  0  0  0  0  0
    2.3949   49.4213   19.7026 C   0  0  0  0  0  0
    2.7002   50.2875   18.4818 N   0  3  0  0  0  0
    1.8742   51.5732   18.5001 C   0  0  0  0  0  0
    2.1763   52.3312   19.8008 C   0  0  0  0  0  0
    2.9046   54.0967   26.0102 C   0  0  0  0  0  0
    3.9044   54.8143   26.0559 O   0  0  0  0  0  0
    2.0753   53.9254   27.0519 N   0  0  0  0  0  0
    2.2026   54.5027   28.3935 C   0  0  0  0  0  0
    1.0446   53.9988   29.2877 C   0  0  0  0  0  0
    0.7523   52.4762   29.3145 C   0  0  0  0  0  0
    1.9240   51.5136   29.0331 C   0  0  0  0  0  0
    3.2409   51.8116   29.7713 C   0  0  0  0  0  0
    4.1379   52.8547   29.0922 C   0  0  0  0  0  0
    3.5866   54.2901   29.0675 C   0  0  0  0  0  0
   -1.8424   53.0926   23.3337 C   0  0  0  0  0  0
   -4.2771   51.6227   28.1875 H   0  0  0  0  0  0
   -5.0722   52.7562   27.0777 H   0  0  0  0  0  0
   -5.6020   51.0873   27.1609 H   0  0  0  0  0  0
   -3.5543   53.3248   25.3674 H   0  0  0  0  0  0
   -2.0724   48.6425   24.8849 H   0  0  0  0  0  0
   -4.8921   48.7286   26.7347 H   0  0  0  0  0  0
   -3.2923   47.9607   26.7652 H   0  0  0  0  0  0
   -3.6951   49.1902   27.9421 H   0  0  0  0  0  0
    1.1200   49.7300   24.2381 H   0  0  0  0  0  0
    1.3444   51.8286   25.5822 H   0  0  0  0  0  0
    3.5428   54.8701   23.4699 H   0  0  0  0  0  0
    3.7836   50.4755   20.9334 H   0  0  0  0  0  0
    2.5562   49.6170   21.8492 H   0  0  0  0  0  0
    1.3464   49.1211   19.6426 H   0  0  0  0  0  0
    3.0339   48.5455   19.5902 H   0  0  0  0  0  0
    2.5654   49.7631   17.6233 H   0  0  0  0  0  0
    0.8265   51.2819   18.4105 H   0  0  0  0  0  0
    2.1798   52.1292   17.6124 H   0  0  0  0  0  0
    1.5676   53.2312   19.8474 H   0  0  0  0  0  0
    3.2244   52.6280   19.7564 H   0  0  0  0  0  0
    1.2662   53.3390   26.9180 H   0  0  0  0  0  0
    2.0660   55.5830   28.3040 H   0  0  0  0  0  0
    0.1272   54.4961   28.9746 H   0  0  0  0  0  0
    1.1941   54.3660   30.3053 H   0  0  0  0  0  0
   -0.0336   52.2577   28.5879 H   0  0  0  0  0  0
    0.3129   52.2285   30.2824 H   0  0  0  0  0  0
    2.1174   51.4588   27.9634 H   0  0  0  0  0  0
    1.5857   50.5129   29.2812 H   0  0  0  0  0  0
    3.8246   50.8972   29.7989 H   0  0  0  0  0  0
    3.0480   52.0873   30.8097 H   0  0  0  0  0  0
    4.3568   52.5252   28.0754 H   0  0  0  0  0  0
    5.1044   52.8591   29.5976 H   0  0  0  0  0  0
    3.5601   54.6907   30.0810 H   0  0  0  0  0  0
    4.3202   54.9251   28.5722 H   0  0  0  0  0  0
   -2.1621   54.0758   23.6812 H   0  0  0  0  0  0
   -0.7563   53.1059   23.2868 H   0  0  0  0  0  0
   -2.2244   52.9421   22.3267 H   0  0  0  0  0  0
    3.7029   50.4969   18.4614 H   0  0  0  0  0  0
  1  2  1  0  0  0
  1 36  1  0  0  0
  1 37  1  0  0  0
  1 38  1  0  0  0
  2  7  2  0  0  0
  2  3  1  0  0  0
  3  4  2  0  0  0
  3 39  1  0  0  0
  4  5  1  0  0  0
  4 35  1  0  0  0
  5  6  2  0  0  0
  5  9  1  0  0  0
  6  7  1  0  0  0
  6 40  1  0  0  0
  7  8  1  0  0  0
  8 41  1  0  0  0
  8 42  1  0  0  0
  8 43  1  0  0  0
  9 10  2  0  0  0
  9 11  2  0  0  0
  9 12  1  0  0  0
 12 13  1  0  0  0
 12 44  1  0  0  0
 13 18  2  0  0  0
 13 14  1  0  0  0
 14 15  2  0  0  0
 14 45  1  0  0  0
 15 16  1  0  0  0
 15 25  1  0  0  0
 16 17  2  0  0  0
 16 46  1  0  0  0
 17 18  1  0  0  0
 18 19  1  0  0  0
 19 24  1  0  0  0
 19 20  1  0  0  0
 20 21  1  0  0  0
 20 47  1  0  0  0
 20 48  1  0  0  0
 21 22  1  0  0  0
 21 49  1  0  0  0
 21 50  1  0  0  0
 22 23  1  0  0  0
 22 51  1  0  0  0
 22 73  1  0  0  0
 23 24  1  0  0  0
 23 52  1  0  0  0
 23 53  1  0  0  0
 24 54  1  0  0  0
 24 55  1  0  0  0
 25 26  2  0  0  0
 25 27  1  0  0  0
 27 28  1  0  0  0
 27 56  1  0  0  0
 28 34  1  0  0  0
 28 29  1  0  0  0
 28 57  1  0  0  0
 29 30  1  0  0  0
 29 58  1  0  0  0
 29 59  1  0  0  0
 30 31  1  0  0  0
 30 60  1  0  0  0
 30 61  1  0  0  0
 31 32  1  0  0  0
 31 62  1  0  0  0
 31 63  1  0  0  0
 32 33  1  0  0  0
 32 64  1  0  0  0
 32 65  1  0  0  0
 33 34  1  0  0  0
 33 66  1  0  0  0
 33 67  1  0  0  0
 34 68  1  0  0  0
 34 69  1  0  0  0
 35 70  1  0  0  0
 35 71  1  0  0  0
 35 72  1  0  0  0
M  CHG  1  22   1
M  END
> <i_i_glide_confnum>
1617

> <i_i_glide_lignum>
321

> <i_i_glide_posenum>
348

> <i_i_glide_rotatable_bonds>
7

> <i_m_Source_File_Index>
6028

> <b_m_subgroup_collapsed>
0

> <r_i_docking_score>
-4.93965

> <r_i_glide_ecoul>
-5.81673

> <r_i_glide_eff_state_penalty>
0

> <r_i_glide_einternal>
9.97374

> <r_i_glide_emodel>
-51.7442

> <r_i_glide_energy>
-39.7619

> <r_i_glide_erotb>
0.570249

> <r_i_glide_esite>
-0.100312

> <r_i_glide_evdw>
-33.9451

> <r_i_glide_gscore>
-4.93965

> <r_i_glide_hbond>
-0.268002

> <r_i_glide_ligand_efficiency>
-0.141133

> <r_i_glide_ligand_efficiency_ln>
-1.08436

> <r_i_glide_ligand_efficiency_sa>
-0.461655

> <r_i_glide_lipo>
-2.29313

> <r_i_glide_metal>
0

> <r_i_glide_rewards>
-0.278686

> <s_i_glide_gridfile>
wee1_glide-grid

> <s_m_Source_File>
wee1_decoys_glide_SP.sdf

> <s_m_Source_Path>
/Users/zhangxujun/Desktop

> <s_m_entry_id>
6303

> <s_m_entry_name>
wee1_decoys_glide_SP.6028

> <s_m_subgroup_title>
wee1_decoys_glide_SP

> <s_m_subgroupid>
wee1_decoys_glide_SP


$$$$
