@<TRIPOS>MOLECULE
ZINC12465906_906
56   60    1
SMALL
USER_CHARGES


@<TRIPOS>ATOM
      1 C1          0.9902   55.0863   30.4836 C.3       1 UNK         0.0000 
      2 O2          0.2038   53.8998   30.4597 O.3       1 UNK         0.0000 
      3 C3          0.1425   53.1500   29.3011 C.ar      1 UNK         0.0000 
      4 C4         -0.7372   52.0704   29.2908 C.ar      1 UNK         0.0000 
      5 C5         -0.9179   51.2998   28.1419 C.ar      1 UNK         0.0000 
      6 C6         -0.1781   51.5524   26.9771 C.ar      1 UNK         0.0000 
      7 C7          0.7229   52.6290   26.9972 C.ar      1 UNK         0.0000 
      8 C8          0.8868   53.4110   28.1442 C.ar      1 UNK         0.0000 
      9 N9          1.5707   52.9264   25.9334 N.am      1 UNK         0.0000 
     10 C10         1.2633   53.1652   24.6390 C.2       1 UNK         0.0000 
     11 O11         0.1359   53.1170   24.1425 O.2       1 UNK         0.0000 
     12 C12         2.4261   53.5265   23.8618 C.ar      1 UNK         0.0000 
     13 C13         2.4814   53.7574   22.4816 C.ar      1 UNK         0.0000 
     14 C14         3.7930   54.0973   22.1829 C.ar      1 UNK         0.0000 
     15 N15         4.4437   54.0765   23.3934 N.pl3     1 UNK         0.0000 
     16 N16         3.6208   53.7070   24.3753 N.2       1 UNK         0.0000 
     17 C17         5.8745   54.2061   23.6270 C.3       1 UNK         0.0000 
     18 H18         6.2942   53.2042   23.5471 H         1 UNK         0.0000 
     19 C19         6.4532   55.0367   22.4561 C.3       1 UNK         0.0000 
     20 C20         5.9045   54.6709   21.0409 C.3       1 UNK         0.0000 
     21 H21         6.2665   53.6979   20.7373 H         1 UNK         0.0000 
     22 N22         4.4404   54.4967   21.0292 N.pl3     1 UNK         0.0000 
     23 C23         6.5023   55.5777   19.9507 C.ar      1 UNK         0.0000 
     24 C24         7.9071   55.6841   19.8343 C.ar      1 UNK         0.0000 
     25 C25         8.5034   56.5038   18.8672 C.ar      1 UNK         0.0000 
     26 C26         7.6614   57.2164   18.0223 C.ar      1 UNK         0.0000 
     27 C27         6.3041   57.1112   18.1084 C.ar      1 UNK         0.0000 
     28 C28         5.6895   56.2931   19.0488 C.ar      1 UNK         0.0000 
     29 O29         5.7285   57.8733   17.1433 O.3       1 UNK         0.0000 
     30 C30         6.7719   58.6097   16.5606 C.3       1 UNK         0.0000 
     31 O31         7.9851   58.0561   17.0040 O.3       1 UNK         0.0000 
     32 C32         6.2090   54.7360   25.0491 C.3       1 UNK         0.0000 
     33 F33         7.5044   54.8968   25.2037 F         1 UNK         0.0000 
     34 F34         5.6576   55.9234   25.2818 F         1 UNK         0.0000 
     35 F35         5.8252   53.9137   26.0264 F         1 UNK         0.0000 
     36 O36        -0.2614   50.7879   25.8260 O.3       1 UNK         0.0000 
     37 C37        -0.9808   49.5618   25.8374 C.3       1 UNK         0.0000 
     38 H38         0.8053   55.6149   31.4176 H         1 UNK         0.0000 
     39 H39         0.7376   55.7687   29.6712 H         1 UNK         0.0000 
     40 H40         2.0546   54.8548   30.4435 H         1 UNK         0.0000 
     41 H41        -1.2956   51.8307   30.1842 H         1 UNK         0.0000 
     42 H42        -1.6342   50.4967   28.1848 H         1 UNK         0.0000 
     43 H43         1.5950   54.2254   28.1252 H         1 UNK         0.0000 
     44 H44         2.5347   53.0881   26.1826 H         1 UNK         0.0000 
     45 H45         1.6597   53.6968   21.7822 H         1 UNK         0.0000 
     46 H46         6.3044   56.0968   22.6437 H         1 UNK         0.0000 
     47 H47         7.5375   54.9343   22.4818 H         1 UNK         0.0000 
     48 H48         4.1046   54.1513   20.1406 H         1 UNK         0.0000 
     49 H49         8.5551   55.1240   20.4919 H         1 UNK         0.0000 
     50 H50         9.5793   56.5715   18.7907 H         1 UNK         0.0000 
     51 H51         4.6148   56.2162   19.0733 H         1 UNK         0.0000 
     52 H52         6.7040   59.6514   16.8818 H         1 UNK         0.0000 
     53 H53         6.7042   58.5583   15.4738 H         1 UNK         0.0000 
     54 H54        -0.9873   49.1464   24.8300 H         1 UNK         0.0000 
     55 H55        -0.4916   48.8317   26.4816 H         1 UNK         0.0000 
     56 H56        -2.0198   49.6885   26.1439 H         1 UNK         0.0000 
@<TRIPOS>BOND
     1    1    2 1    
     2    1   38 1    
     3    1   39 1    
     4    1   40 1    
     5    2    3 1    
     6    3    8 ar   
     7    3    4 ar   
     8    4    5 ar   
     9    4   41 1    
    10    5    6 ar   
    11    5   42 1    
    12    6    7 ar   
    13    6   36 1    
    14    7    8 ar   
    15    7    9 1    
    16    8   43 1    
    17    9   10 am   BACKBONE|DICT|INTERRES
    18    9   44 1    
    19   10   11 2    
    20   10   12 1    
    21   12   16 ar   
    22   12   13 ar   
    23   13   14 ar   
    24   13   45 1    
    25   14   22 1    
    26   14   15 ar   
    27   15   16 ar   
    28   15   17 1    
    29   17   18 1    
    30   17   19 1    
    31   17   32 1    
    32   19   20 1    
    33   19   46 1    
    34   19   47 1    
    35   20   21 1    
    36   20   22 1    
    37   20   23 1    
    38   22   48 1    
    39   23   28 ar   
    40   23   24 ar   
    41   24   25 ar   
    42   24   49 1    
    43   25   26 ar   
    44   25   50 1    
    45   26   31 1    
    46   26   27 ar   
    47   27   28 ar   
    48   27   29 1    
    49   28   51 1    
    50   29   30 1    
    51   30   31 1    
    52   30   52 1    
    53   30   53 1    
    54   32   33 1    
    55   32   34 1    
    56   32   35 1    
    57   36   37 1    
    58   37   54 1    
    59   37   55 1    
    60   37   56 1    
@<TRIPOS>SUBSTRUCTURE
     1 UNK         1 GROUP             0       ****    0 ROOT    
