@<TRIPOS>MOLECULE
ZINC33121156_4986
68   71    1
SMALL
USER_CHARGES


@<TRIPOS>ATOM
      1 C1          1.4731   53.1857   13.9103 C.3       1 UNK         0.0000 
      2 C2          1.0495   54.0365   15.1238 C.3       1 UNK         0.0000 
      3 C3         -0.4061   53.7560   15.5403 C.3       1 UNK         0.0000 
      4 C4          2.0127   53.8845   16.3018 C.ar      1 UNK         0.0000 
      5 C5          2.2700   52.6235   16.8526 C.ar      1 UNK         0.0000 
      6 C6          3.1391   52.4957   17.9305 C.ar      1 UNK         0.0000 
      7 C7          3.7595   53.6270   18.4649 C.ar      1 UNK         0.0000 
      8 C8          3.5100   54.8855   17.9149 C.ar      1 UNK         0.0000 
      9 C9          2.6371   55.0141   16.8390 C.ar      1 UNK         0.0000 
     10 S10         4.8439   53.5060   19.8878 S.o2      1 UNK         0.0000 
     11 O11         5.1028   52.0993   20.2138 O.2       1 UNK         0.0000 
     12 O12         5.9380   54.4596   19.6812 O.2       1 UNK         0.0000 
     13 N13         3.9043   54.1632   21.2256 N.pl3     1 UNK         0.0000 
     14 C14         3.0229   53.4022   21.9948 C.ar      1 UNK         0.0000 
     15 C15         2.2784   52.3526   21.4638 C.ar      1 UNK         0.0000 
     16 C16         1.4550   51.5966   22.2895 C.ar      1 UNK         0.0000 
     17 C17         1.3684   51.8533   23.6651 C.ar      1 UNK         0.0000 
     18 C18         2.0992   52.9445   24.2030 C.ar      1 UNK         0.0000 
     19 C19         2.8912   53.7194   23.3390 C.ar      1 UNK         0.0000 
     20 C20         2.0992   53.2951   25.6755 C.2       1 UNK         0.0000 
     21 O21         1.1045   53.1761   26.3878 O.2       1 UNK         0.0000 
     22 N22         3.2845   53.7136   26.1482 N.am      1 UNK         0.0000 
     23 C23         3.5766   54.1101   27.5169 C.3       1 UNK         0.0000 
     24 C24         3.3626   52.9777   28.5521 C.3       1 UNK         0.0000 
     25 C25         4.6840   52.8304   29.3144 C.3       1 UNK         0.0000 
     26 C26         5.4120   54.1552   29.0856 C.3       1 UNK         0.0000 
     27 C27         5.0713   54.4539   27.6338 C.3       1 UNK         0.0000 
     28 N28         0.5620   51.0237   24.4366 N.pl3     1 UNK         0.0000 
     29 C29        -0.8238   51.4386   24.7059 C.3       1 UNK         0.0000 
     30 C30        -1.4814   50.6920   25.8851 C.3       1 UNK         0.0000 
     31 N31        -1.3668   49.1732   25.6825 N.4       1 UNK         0.0000 
     32 C32         0.0974   48.7672   25.4741 C.3       1 UNK         0.0000 
     33 C33         0.7038   49.5641   24.3053 C.3       1 UNK         0.0000 
     34 H34         2.5071   53.3905   13.6286 H         1 UNK         0.0000 
     35 H35         0.8509   53.4008   13.0401 H         1 UNK         0.0000 
     36 H36         1.3916   52.1176   14.1136 H         1 UNK         0.0000 
     37 H37         1.0888   55.0773   14.7947 H         1 UNK         0.0000 
     38 H38        -0.7072   54.3931   16.3726 H         1 UNK         0.0000 
     39 H39        -1.0950   53.9473   14.7177 H         1 UNK         0.0000 
     40 H40        -0.5449   52.7199   15.8483 H         1 UNK         0.0000 
     41 H41         1.8023   51.7381   16.4473 H         1 UNK         0.0000 
     42 H42         3.3464   51.5132   18.3352 H         1 UNK         0.0000 
     43 H43         3.9802   55.7658   18.3293 H         1 UNK         0.0000 
     44 H44         2.4469   55.9946   16.4281 H         1 UNK         0.0000 
     45 H45         4.0189   55.1413   21.4343 H         1 UNK         0.0000 
     46 H46         2.3374   52.1060   20.4176 H         1 UNK         0.0000 
     47 H47         0.8961   50.7852   21.8469 H         1 UNK         0.0000 
     48 H48         3.4525   54.5641   23.7146 H         1 UNK         0.0000 
     49 H49         4.0695   53.7145   25.5151 H         1 UNK         0.0000 
     50 H50         3.0410   55.0080   27.8368 H         1 UNK         0.0000 
     51 H51         2.5473   53.2367   29.2290 H         1 UNK         0.0000 
     52 H52         3.1016   52.0257   28.0875 H         1 UNK         0.0000 
     53 H53         4.5245   52.5956   30.3670 H         1 UNK         0.0000 
     54 H54         5.2619   52.0135   28.8821 H         1 UNK         0.0000 
     55 H55         5.0106   54.9319   29.7385 H         1 UNK         0.0000 
     56 H56         6.4854   54.0963   29.2782 H         1 UNK         0.0000 
     57 H57         5.6716   53.8067   26.9885 H         1 UNK         0.0000 
     58 H58         5.3040   55.4683   27.3185 H         1 UNK         0.0000 
     59 H59        -0.8889   52.5183   24.8546 H         1 UNK         0.0000 
     60 H60        -1.3844   51.1958   23.8016 H         1 UNK         0.0000 
     61 H61        -2.5488   50.8996   25.9731 H         1 UNK         0.0000 
     62 H62        -0.9938   50.9107   26.8385 H         1 UNK         0.0000 
     63 H63        -1.9465   48.8652   24.9148 H         1 UNK         0.0000 
     64 H64         0.0844   47.6966   25.2804 H         1 UNK         0.0000 
     65 H65         0.6080   48.9486   26.4228 H         1 UNK         0.0000 
     66 H66         0.1580   49.2859   23.4025 H         1 UNK         0.0000 
     67 H67         1.7517   49.2973   24.1649 H         1 UNK         0.0000 
     68 H68        -1.6955   48.7200   26.5398 H         1 UNK         0.0000 
@<TRIPOS>BOND
     1    1    2 1    
     2    1   34 1    
     3    1   35 1    
     4    1   36 1    
     5    2    3 1    
     6    2    4 1    
     7    2   37 1    
     8    3   38 1    
     9    3   39 1    
    10    3   40 1    
    11    4    9 ar   
    12    4    5 ar   
    13    5    6 ar   
    14    5   41 1    
    15    6    7 ar   
    16    6   42 1    
    17    7    8 ar   
    18    7   10 1    
    19    8    9 ar   
    20    8   43 1    
    21    9   44 1    
    22   10   11 2    
    23   10   12 2    
    24   10   13 1    
    25   13   14 1    
    26   13   45 1    
    27   14   19 ar   
    28   14   15 ar   
    29   15   16 ar   
    30   15   46 1    
    31   16   17 ar   
    32   16   47 1    
    33   17   18 ar   
    34   17   28 1    
    35   18   19 ar   
    36   18   20 1    
    37   19   48 1    
    38   20   21 2    
    39   20   22 am   BACKBONE|DICT|INTERRES
    40   22   23 1    
    41   22   49 1    
    42   23   27 1    
    43   23   24 1    
    44   23   50 1    
    45   24   25 1    
    46   24   51 1    
    47   24   52 1    
    48   25   26 1    
    49   25   53 1    
    50   25   54 1    
    51   26   27 1    
    52   26   55 1    
    53   26   56 1    
    54   27   57 1    
    55   27   58 1    
    56   28   33 1    
    57   28   29 1    
    58   29   30 1    
    59   29   59 1    
    60   29   60 1    
    61   30   31 1    
    62   30   61 1    
    63   30   62 1    
    64   31   32 1    
    65   31   63 1    
    66   31   68 1    
    67   32   33 1    
    68   32   64 1    
    69   32   65 1    
    70   33   66 1    
    71   33   67 1    
@<TRIPOS>SUBSTRUCTURE
     1 UNK         1 GROUP             0       ****    0 ROOT    
