@<TRIPOS>MOLECULE
ZINC32535448_3013
54   57    1
SMALL
USER_CHARGES


@<TRIPOS>ATOM
      1 C1          4.4328   52.2541   29.7710 C.3       1 UNK         0.0000 
      2 C2          5.2108   53.1124   28.7557 C.3       1 UNK         0.0000 
      3 C3          4.3442   53.6811   27.6067 C.3       1 UNK         0.0000 
      4 H4          3.7993   52.8351   27.1858 H         1 UNK         0.0000 
      5 C5          5.1869   54.2644   26.4609 C.2       1 UNK         0.0000 
      6 O6          6.2542   54.8338   26.7017 O.2       1 UNK         0.0000 
      7 N7          4.6519   54.0967   25.2331 N.am      1 UNK         0.0000 
      8 C8          5.1895   54.4324   24.0089 C.2       1 UNK         0.0000 
      9 N9          4.5555   54.0965   22.9227 N.2       1 UNK         0.0000 
     10 C10         5.2298   54.4965   21.8123 C.ar      1 UNK         0.0000 
     11 C11         4.7912   54.3034   20.4964 C.ar      1 UNK         0.0000 
     12 C12         5.5717   54.8095   19.4568 C.ar      1 UNK         0.0000 
     13 C13         6.7725   55.4770   19.7105 C.ar      1 UNK         0.0000 
     14 C14         7.2519   55.6422   21.0124 C.ar      1 UNK         0.0000 
     15 C15         6.4562   55.1691   22.0606 C.ar      1 UNK         0.0000 
     16 S16         6.7044   55.2885   23.7930 S.3       1 UNK         0.0000 
     17 S17         7.6922   56.1448   18.3347 S.o2      1 UNK         0.0000 
     18 O18         8.8249   56.8970   18.8815 O.2       1 UNK         0.0000 
     19 O19         7.8777   55.0525   17.3766 O.2       1 UNK         0.0000 
     20 N20         6.6040   57.2966   17.6089 N.pl3     1 UNK         0.0000 
     21 S21         3.1046   54.8967   28.1408 S.3       1 UNK         0.0000 
     22 C22         1.7383   53.9291   28.6387 C.ar      1 UNK         0.0000 
     23 C23         0.9826   53.2387   27.6898 C.ar      1 UNK         0.0000 
     24 C24        -0.0606   52.4236   28.1603 C.ar      1 UNK         0.0000 
     25 N25        -0.2904   52.2973   29.5019 N.ar      1 UNK         0.0000 
     26 C26         0.5128   53.0126   30.3318 C.ar      1 UNK         0.0000 
     27 N27         1.5016   53.8551   29.9657 N.ar      1 UNK         0.0000 
     28 C28         0.3095   52.8439   31.8137 C.3       1 UNK         0.0000 
     29 C29        -0.9883   51.6963   27.2333 C.ar      1 UNK         0.0000 
     30 C30        -0.6052   51.4053   25.9139 C.ar      1 UNK         0.0000 
     31 C31        -1.4724   50.7536   25.0411 C.ar      1 UNK         0.0000 
     32 C32        -2.7392   50.3804   25.4782 C.ar      1 UNK         0.0000 
     33 C33        -3.1402   50.6480   26.7826 C.ar      1 UNK         0.0000 
     34 C34        -2.2682   51.2967   27.6526 C.ar      1 UNK         0.0000 
     35 H35         5.1044   51.6966   30.4201 H         1 UNK         0.0000 
     36 H36         3.8314   52.8764   30.4291 H         1 UNK         0.0000 
     37 H37         3.7751   51.5356   29.2817 H         1 UNK         0.0000 
     38 H38         6.0048   52.4969   28.3318 H         1 UNK         0.0000 
     39 H39         5.7090   53.9314   29.2787 H         1 UNK         0.0000 
     40 H40         3.7646   53.6228   25.1765 H         1 UNK         0.0000 
     41 H41         3.8577   53.8004   20.2888 H         1 UNK         0.0000 
     42 H42         5.2340   54.6866   18.4366 H         1 UNK         0.0000 
     43 H43         8.2015   56.1191   21.2111 H         1 UNK         0.0000 
     44 H44         6.8686   58.2804   17.7064 H         1 UNK         0.0000 
     45 H45         6.2655   57.0372   16.6804 H         1 UNK         0.0000 
     46 H46         1.1921   53.3567   26.6387 H         1 UNK         0.0000 
     47 H47        -0.6401   53.2968   32.0826 H         1 UNK         0.0000 
     48 H48         0.3044   51.7868   32.0807 H         1 UNK         0.0000 
     49 H49         1.0967   53.3080   32.4050 H         1 UNK         0.0000 
     50 H50         0.3757   51.6671   25.5492 H         1 UNK         0.0000 
     51 H51        -1.1599   50.5313   24.0316 H         1 UNK         0.0000 
     52 H52        -3.4106   49.8677   24.8053 H         1 UNK         0.0000 
     53 H53        -4.1162   50.3390   27.1269 H         1 UNK         0.0000 
     54 H54        -2.5977   51.4799   28.6649 H         1 UNK         0.0000 
@<TRIPOS>BOND
     1    1    2 1    
     2    1   35 1    
     3    1   36 1    
     4    1   37 1    
     5    2    3 1    
     6    2   38 1    
     7    2   39 1    
     8    3    4 1    
     9    3    5 1    
    10    3   21 1    
    11    5    6 2    
    12    5    7 am   BACKBONE|DICT|INTERRES
    13    7    8 am   BACKBONE|DICT|INTERRES
    14    7   40 1    
    15    8   16 1    
    16    8    9 2    
    17    9   10 1    
    18   10   15 ar   
    19   10   11 ar   
    20   11   12 ar   
    21   11   41 1    
    22   12   13 ar   
    23   12   42 1    
    24   13   14 ar   
    25   13   17 1    
    26   14   15 ar   
    27   14   43 1    
    28   15   16 1    
    29   17   18 2    
    30   17   19 2    
    31   17   20 1    
    32   20   44 1    
    33   20   45 1    
    34   21   22 1    
    35   22   27 ar   
    36   22   23 ar   
    37   23   24 ar   
    38   23   46 1    
    39   24   25 ar   
    40   24   29 1    
    41   25   26 ar   
    42   26   27 ar   
    43   26   28 1    
    44   28   47 1    
    45   28   48 1    
    46   28   49 1    
    47   29   34 ar   
    48   29   30 ar   
    49   30   31 ar   
    50   30   50 1    
    51   31   32 ar   
    52   31   51 1    
    53   32   33 ar   
    54   32   52 1    
    55   33   34 ar   
    56   33   53 1    
    57   34   54 1    
@<TRIPOS>SUBSTRUCTURE
     1 UNK         1 GROUP             0       ****    0 ROOT    
