@<TRIPOS>MOLECULE
ZINC15430164_3613
49   50    1
SMALL
USER_CHARGES


@<TRIPOS>ATOM
      1 C1          4.7005   54.5977   28.7146 C.3       1 UNK         0.0000 
      2 C2          5.8787   54.6682   27.7172 C.3       1 UNK         0.0000 
      3 C3          6.9953   53.6964   28.1433 C.3       1 UNK         0.0000 
      4 C4          5.5001   54.5005   26.2355 C.ar      1 UNK         0.0000 
      5 C5          6.5003   54.6454   25.2704 C.ar      1 UNK         0.0000 
      6 C6          6.2198   54.5000   23.9187 C.ar      1 UNK         0.0000 
      7 C7          4.9088   54.2408   23.5053 C.ar      1 UNK         0.0000 
      8 C8          3.9009   54.0967   24.4620 C.ar      1 UNK         0.0000 
      9 C9          4.1925   54.2251   25.8179 C.ar      1 UNK         0.0000 
     10 N10         4.5183   54.0673   22.1661 N.pl3     1 UNK         0.0000 
     11 C11         5.0442   54.4403   20.9540 C.2       1 UNK         0.0000 
     12 S12         6.3044   55.4995   20.6850 S.2       1 UNK         0.0000 
     13 N13         4.4735   53.8785   19.8436 N.pl3     1 UNK         0.0000 
     14 N14         3.3791   52.9885   19.8500 N.am      1 UNK         0.0000 
     15 C15         3.5122   51.7392   20.3473 C.2       1 UNK         0.0000 
     16 O16         4.5305   51.2963   20.8820 O.2       1 UNK         0.0000 
     17 C17         2.2756   50.8902   20.2381 C.ar      1 UNK         0.0000 
     18 C18         2.3216   49.6722   19.5564 C.ar      1 UNK         0.0000 
     19 C19         1.1960   48.8392   19.4811 C.ar      1 UNK         0.0000 
     20 C20         0.0140   49.2459   20.1151 C.ar      1 UNK         0.0000 
     21 C21        -0.0627   50.4746   20.7847 C.ar      1 UNK         0.0000 
     22 C22         1.0764   51.2936   20.8333 C.ar      1 UNK         0.0000 
     23 O23        -1.2731   50.8062   21.3684 O.3       1 UNK         0.0000 
     24 C24        -1.3983   52.0282   22.0859 C.3       1 UNK         0.0000 
     25 Br25       -1.5239   48.1152   20.0454 Br        1 UNK         0.0000 
     26 O26         1.1802   47.6350   18.8008 O.3       1 UNK         0.0000 
     27 C27         2.2187   47.3504   17.8687 C.3       1 UNK         0.0000 
     28 H28         3.9047   55.2964   28.4557 H         1 UNK         0.0000 
     29 H29         5.0326   54.8516   29.7213 H         1 UNK         0.0000 
     30 H30         4.2703   53.5956   28.7541 H         1 UNK         0.0000 
     31 H31         6.2843   55.6785   27.7952 H         1 UNK         0.0000 
     32 H32         7.8814   53.8031   27.5209 H         1 UNK         0.0000 
     33 H33         7.3100   53.8779   29.1708 H         1 UNK         0.0000 
     34 H34         6.6665   52.6591   28.0756 H         1 UNK         0.0000 
     35 H35         7.5109   54.8621   25.5616 H         1 UNK         0.0000 
     36 H36         7.0395   54.5749   23.2221 H         1 UNK         0.0000 
     37 H37         2.8863   53.8804   24.1619 H         1 UNK         0.0000 
     38 H38         3.3909   54.1006   26.5293 H         1 UNK         0.0000 
     39 H39         3.6484   53.5614   22.0940 H         1 UNK         0.0000 
     40 H40         5.0119   53.7900   18.9930 H         1 UNK         0.0000 
     41 H41         2.7863   53.1356   19.0478 H         1 UNK         0.0000 
     42 H42         3.2475   49.3792   19.0813 H         1 UNK         0.0000 
     43 H43         1.0464   52.2405   21.3523 H         1 UNK         0.0000 
     44 H44        -2.4075   52.1099   22.4900 H         1 UNK         0.0000 
     45 H45        -0.7032   52.0745   22.9257 H         1 UNK         0.0000 
     46 H46        -1.2351   52.8868   21.4335 H         1 UNK         0.0000 
     47 H47         2.0268   46.3873   17.3988 H         1 UNK         0.0000 
     48 H48         2.2489   48.0975   17.0742 H         1 UNK         0.0000 
     49 H49         3.2017   47.2969   18.3363 H         1 UNK         0.0000 
@<TRIPOS>BOND
     1    1    2 1    
     2    1   28 1    
     3    1   29 1    
     4    1   30 1    
     5    2    3 1    
     6    2    4 1    
     7    2   31 1    
     8    3   32 1    
     9    3   33 1    
    10    3   34 1    
    11    4    9 ar   
    12    4    5 ar   
    13    5    6 ar   
    14    5   35 1    
    15    6    7 ar   
    16    6   36 1    
    17    7    8 ar   
    18    7   10 1    
    19    8    9 ar   
    20    8   37 1    
    21    9   38 1    
    22   10   11 1    
    23   10   39 1    
    24   11   12 2    
    25   11   13 1    
    26   13   14 1    
    27   13   40 1    
    28   14   15 am   BACKBONE|DICT|INTERRES
    29   14   41 1    
    30   15   16 2    
    31   15   17 1    
    32   17   22 ar   
    33   17   18 ar   
    34   18   19 ar   
    35   18   42 1    
    36   19   20 ar   
    37   19   26 1    
    38   20   21 ar   
    39   20   25 1    
    40   21   22 ar   
    41   21   23 1    
    42   22   43 1    
    43   23   24 1    
    44   24   44 1    
    45   24   45 1    
    46   24   46 1    
    47   26   27 1    
    48   27   47 1    
    49   27   48 1    
    50   27   49 1    
@<TRIPOS>SUBSTRUCTURE
     1 UNK         1 GROUP             0       ****    0 ROOT    
