@<TRIPOS>MOLECULE
ZINC21089785_2667
50   53    1
SMALL
USER_CHARGES


@<TRIPOS>ATOM
      1 C1          6.6913   54.9335   25.4730 C.3       1 UNK         0.0000 
      2 C2          5.9757   54.7134   24.1400 C.2       1 UNK         0.0000 
      3 C3          4.6621   54.3643   23.9315 C.2       1 UNK         0.0000 
      4 C4          4.0698   54.3173   22.4744 C.3       1 UNK         0.0000 
      5 H5          3.2923   55.0794   22.3844 H         1 UNK         0.0000 
      6 N6          5.1199   54.7294   21.5154 N.pl3     1 UNK         0.0000 
      7 C7          6.4175   55.0559   21.8083 C.ar      1 UNK         0.0000 
      8 N8          7.0830   55.3922   20.7352 N.2       1 UNK         0.0000 
      9 C9          6.1535   55.2595   19.8021 C.ar      1 UNK         0.0000 
     10 N10         4.9564   54.8762   20.1933 N.2       1 UNK         0.0000 
     11 N11         6.8414   55.0304   23.1084 N.pl3     1 UNK         0.0000 
     12 C12         3.3503   53.0283   22.0214 C.ar      1 UNK         0.0000 
     13 C13         1.9686   52.8879   22.2136 C.ar      1 UNK         0.0000 
     14 C14         1.3041   51.7408   21.7879 C.ar      1 UNK         0.0000 
     15 C15         2.0114   50.7400   21.1255 C.ar      1 UNK         0.0000 
     16 C16         3.3719   50.8964   20.8792 C.ar      1 UNK         0.0000 
     17 C17         4.0460   52.0190   21.3438 C.ar      1 UNK         0.0000 
     18 S18         1.2175   49.2547   20.5794 S.3       1 UNK         0.0000 
     19 C19        -0.4237   49.1537   21.3445 C.3       1 UNK         0.0000 
     20 C20         3.6978   54.0968   25.0117 C.2       1 UNK         0.0000 
     21 O21         2.4908   54.2265   24.8270 O.2       1 UNK         0.0000 
     22 N22         4.2052   53.6968   26.2007 N.am      1 UNK         0.0000 
     23 C23         3.5776   53.3937   27.4304 C.ar      1 UNK         0.0000 
     24 C24         2.2074   53.5372   27.7011 C.ar      1 UNK         0.0000 
     25 C25         1.7001   53.1741   28.9506 C.ar      1 UNK         0.0000 
     26 C26         2.5482   52.6549   29.9387 C.ar      1 UNK         0.0000 
     27 C27         3.9067   52.5179   29.6651 C.ar      1 UNK         0.0000 
     28 C28         4.4192   52.8980   28.4296 C.ar      1 UNK         0.0000 
     29 O29         2.1445   52.2592   31.1971 O.3       1 UNK         0.0000 
     30 C30         0.8047   52.4952   31.6127 C.3       1 UNK         0.0000 
     31 H31         6.0385   55.3632   26.2319 H         1 UNK         0.0000 
     32 H32         7.1052   53.9935   25.8393 H         1 UNK         0.0000 
     33 H33         7.5043   55.6497   25.3738 H         1 UNK         0.0000 
     34 H34         6.3646   55.4561   18.7608 H         1 UNK         0.0000 
     35 H35         7.8070   55.2657   23.3157 H         1 UNK         0.0000 
     36 H36         1.4002   53.6706   22.6901 H         1 UNK         0.0000 
     37 H37         0.2445   51.6515   21.9702 H         1 UNK         0.0000 
     38 H38         3.9041   50.1360   20.3287 H         1 UNK         0.0000 
     39 H39         5.1065   52.1111   21.1478 H         1 UNK         0.0000 
     40 H40        -0.8912   48.2029   21.0848 H         1 UNK         0.0000 
     41 H41        -0.3417   49.2111   22.4305 H         1 UNK         0.0000 
     42 H42        -1.0655   49.9595   20.9890 H         1 UNK         0.0000 
     43 H43         5.2022   53.5512   26.2015 H         1 UNK         0.0000 
     44 H44         1.5187   53.9239   26.9666 H         1 UNK         0.0000 
     45 H45         0.6415   53.2883   29.1272 H         1 UNK         0.0000 
     46 H46         4.5681   52.1139   30.4187 H         1 UNK         0.0000 
     47 H47         5.4768   52.7735   28.2447 H         1 UNK         0.0000 
     48 H48         0.7034   52.1623   32.6446 H         1 UNK         0.0000 
     49 H49         0.0862   51.9356   31.0151 H         1 UNK         0.0000 
     50 H50         0.5478   53.5536   31.5790 H         1 UNK         0.0000 
@<TRIPOS>BOND
     1    1    2 1    
     2    1   31 1    
     3    1   32 1    
     4    1   33 1    
     5    2   11 1    
     6    2    3 2    
     7    3    4 1    
     8    3   20 1    
     9    4    5 1    
    10    4    6 1    
    11    4   12 1    
    12    6   10 ar   
    13    6    7 ar   
    14    7    8 ar   
    15    7   11 1    
    16    8    9 ar   
    17    9   10 ar   
    18    9   34 1    
    19   11   35 1    
    20   12   17 ar   
    21   12   13 ar   
    22   13   14 ar   
    23   13   36 1    
    24   14   15 ar   
    25   14   37 1    
    26   15   16 ar   
    27   15   18 1    
    28   16   17 ar   
    29   16   38 1    
    30   17   39 1    
    31   18   19 1    
    32   19   40 1    
    33   19   41 1    
    34   19   42 1    
    35   20   21 2    
    36   20   22 am   BACKBONE|DICT|INTERRES
    37   22   23 1    
    38   22   43 1    
    39   23   28 ar   
    40   23   24 ar   
    41   24   25 ar   
    42   24   44 1    
    43   25   26 ar   
    44   25   45 1    
    45   26   27 ar   
    46   26   29 1    
    47   27   28 ar   
    48   27   46 1    
    49   28   47 1    
    50   29   30 1    
    51   30   48 1    
    52   30   49 1    
    53   30   50 1    
@<TRIPOS>SUBSTRUCTURE
     1 UNK         1 GROUP             0       ****    0 ROOT    
