@<TRIPOS>MOLECULE
ZINC09254735_2277
51   53    1
SMALL
USER_CHARGES


@<TRIPOS>ATOM
      1 C1         -0.0780   51.4575   27.0694 C.ar      1 UNK         0.0000 
      2 C2          0.4230   52.0537   25.9127 C.ar      1 UNK         0.0000 
      3 C3          1.5437   52.8972   25.9658 C.ar      1 UNK         0.0000 
      4 C4          2.1398   53.1396   27.2155 C.ar      1 UNK         0.0000 
      5 C5          1.6502   52.5288   28.3781 C.ar      1 UNK         0.0000 
      6 C6          0.5331   51.6987   28.2972 C.ar      1 UNK         0.0000 
      7 O7          2.2202   52.7343   29.6116 O.3       1 UNK         0.0000 
      8 C8          3.6200   52.5048   29.7026 C.3       1 UNK         0.0000 
      9 F9          4.3042   53.6179   29.4378 F         1 UNK         0.0000 
     10 F10         3.9049   52.0965   30.9389 F         1 UNK         0.0000 
     11 C11         2.0854   53.5123   24.6944 C.2       1 UNK         0.0000 
     12 O12         1.3216   53.7817   23.7667 O.2       1 UNK         0.0000 
     13 N13         3.4254   53.6976   24.6709 N.am      1 UNK         0.0000 
     14 C14         4.2617   54.0760   23.6030 C.ar      1 UNK         0.0000 
     15 C15         5.5772   54.4104   23.9358 C.ar      1 UNK         0.0000 
     16 C16         6.4667   54.8321   22.9494 C.ar      1 UNK         0.0000 
     17 C17         6.0492   54.9092   21.6182 C.ar      1 UNK         0.0000 
     18 C18         4.7559   54.4979   21.2731 C.ar      1 UNK         0.0000 
     19 C19         3.8644   54.0886   22.2589 C.ar      1 UNK         0.0000 
     20 S20         7.1242   55.6971   20.3973 S.o2      1 UNK         0.0000 
     21 O21         6.7042   57.0983   20.4816 O.2       1 UNK         0.0000 
     22 O22         8.4825   55.4367   20.8898 O.2       1 UNK         0.0000 
     23 N23         6.6106   54.7887   18.9709 N.2       1 UNK         0.0000 
     24 C24         7.4683   54.4151   18.1080 C.2       1 UNK         0.0000 
     25 N25         8.8170   54.7346   18.1893 N.pl3     1 UNK         0.0000 
     26 C26         9.9834   54.0948   17.5919 C.3       1 UNK         0.0000 
     27 C27        10.1069   54.2790   16.0691 C.3       1 UNK         0.0000 
     28 C28         9.0451   53.5697   15.2177 C.3       1 UNK         0.0000 
     29 C29         7.5917   53.9611   15.5195 C.3       1 UNK         0.0000 
     30 C30         7.0790   53.5406   16.9150 C.3       1 UNK         0.0000 
     31 H31        -0.9337   50.7962   27.0190 H         1 UNK         0.0000 
     32 H32        -0.0614   51.8445   24.9687 H         1 UNK         0.0000 
     33 H33         2.9867   53.8038   27.2982 H         1 UNK         0.0000 
     34 H34         0.1416   51.2311   29.1879 H         1 UNK         0.0000 
     35 H35         3.9697   51.7130   29.0357 H         1 UNK         0.0000 
     36 H36         3.9084   53.4976   25.5313 H         1 UNK         0.0000 
     37 H37         5.9103   54.3788   24.9634 H         1 UNK         0.0000 
     38 H38         7.4619   55.1470   23.2275 H         1 UNK         0.0000 
     39 H39         4.4081   54.5555   20.2517 H         1 UNK         0.0000 
     40 H40         2.8703   53.8072   21.9496 H         1 UNK         0.0000 
     41 H41        10.8970   54.4209   18.0914 H         1 UNK         0.0000 
     42 H42         9.8882   53.0283   17.8038 H         1 UNK         0.0000 
     43 H43        10.1060   55.3474   15.8403 H         1 UNK         0.0000 
     44 H44        11.0897   53.9192   15.7606 H         1 UNK         0.0000 
     45 H45         9.2512   53.7761   14.1653 H         1 UNK         0.0000 
     46 H46         9.1555   52.4888   15.3289 H         1 UNK         0.0000 
     47 H47         6.9538   53.4947   14.7669 H         1 UNK         0.0000 
     48 H48         7.4581   55.0353   15.3792 H         1 UNK         0.0000 
     49 H49         7.3381   52.5017   17.1221 H         1 UNK         0.0000 
     50 H50         5.9884   53.5242   16.8583 H         1 UNK         0.0000 
     51 H51         9.0559   55.1376   19.0903 H         1 UNK         0.0000 
@<TRIPOS>BOND
     1    1    6 ar   
     2    1    2 ar   
     3    1   31 1    
     4    2    3 ar   
     5    2   32 1    
     6    3    4 ar   
     7    3   11 1    
     8    4    5 ar   
     9    4   33 1    
    10    5    6 ar   
    11    5    7 1    
    12    6   34 1    
    13    7    8 1    
    14    8    9 1    
    15    8   10 1    
    16    8   35 1    
    17   11   12 2    
    18   11   13 am   BACKBONE|DICT|INTERRES
    19   13   14 1    
    20   13   36 1    
    21   14   19 ar   
    22   14   15 ar   
    23   15   16 ar   
    24   15   37 1    
    25   16   17 ar   
    26   16   38 1    
    27   17   18 ar   
    28   17   20 1    
    29   18   19 ar   
    30   18   39 1    
    31   19   40 1    
    32   20   21 2    
    33   20   22 2    
    34   20   23 1    
    35   23   24 2    
    36   24   30 1    
    37   24   25 1    
    38   25   26 1    
    39   25   51 1    
    40   26   27 1    
    41   26   41 1    
    42   26   42 1    
    43   27   28 1    
    44   27   43 1    
    45   27   44 1    
    46   28   29 1    
    47   28   45 1    
    48   28   46 1    
    49   29   30 1    
    50   29   47 1    
    51   29   48 1    
    52   30   49 1    
    53   30   50 1    
@<TRIPOS>SUBSTRUCTURE
     1 UNK         1 GROUP             0       ****    0 ROOT    
