@<TRIPOS>MOLECULE
ZINC13629244_1948
59   62    1
SMALL
USER_CHARGES


@<TRIPOS>ATOM
      1 C1          0.3366   53.3482   29.3821 C.3       1 UNK         0.0000 
      2 C2          1.1627   52.1367   28.9077 C.3       1 UNK         0.0000 
      3 C3          2.6972   52.3508   28.8288 C.3       1 UNK         0.0000 
      4 H4          3.1098   51.3904   28.5199 H         1 UNK         0.0000 
      5 C5          3.3294   52.6859   30.2268 C.2       1 UNK         0.0000 
      6 O6          3.5046   51.6968   30.9667 O.co2     1 UNK         0.0000 
      7 N7          3.0334   53.3489   27.8017 N.am      1 UNK         0.0000 
      8 C8          4.2606   53.6975   27.3697 C.2       1 UNK         0.0000 
      9 O9          5.3031   53.1623   27.7396 O.2       1 UNK         0.0000 
     10 C10         4.3168   54.8828   26.4105 C.3       1 UNK         0.0000 
     11 C11         4.8661   54.5403   25.0191 C.2       1 UNK         0.0000 
     12 C12         4.1130   54.0944   23.9770 C.2       1 UNK         0.0000 
     13 C13         4.6684   54.0982   22.6021 C.ar      1 UNK         0.0000 
     14 C14         3.9815   53.6462   21.4655 C.ar      1 UNK         0.0000 
     15 C15         4.5072   53.8232   20.1801 C.ar      1 UNK         0.0000 
     16 C16         5.7393   54.4926   20.0471 C.ar      1 UNK         0.0000 
     17 C17         6.4522   54.9040   21.1669 C.ar      1 UNK         0.0000 
     18 C18         5.9313   54.6789   22.4353 C.ar      1 UNK         0.0000 
     19 O19         6.7045   55.0898   23.5044 O.3       1 UNK         0.0000 
     20 C20         6.2701   54.9826   24.8058 C.2       1 UNK         0.0000 
     21 O21         7.0974   55.2983   25.6613 O.2       1 UNK         0.0000 
     22 O22         6.3759   54.6822   18.8325 O.3       1 UNK         0.0000 
     23 C23         5.5414   54.6618   17.6638 C.3       1 UNK         0.0000 
     24 C24         4.7218   55.9893   17.6181 C.3       1 UNK         0.0000 
     25 C25         4.0113   56.2017   16.2648 C.3       1 UNK         0.0000 
     26 C26         4.9966   56.1357   15.0811 C.3       1 UNK         0.0000 
     27 C27         5.8597   54.8590   15.1108 C.3       1 UNK         0.0000 
     28 C28         6.5448   54.6554   16.4809 C.3       1 UNK         0.0000 
     29 C29         4.6913   53.3619   17.7148 C.3       1 UNK         0.0000 
     30 C30         3.7602   53.3528   18.9377 C.3       1 UNK         0.0000 
     31 C31         2.6449   53.6906   24.1141 C.3       1 UNK         0.0000 
     32 H32        -0.7244   53.0984   29.4109 H         1 UNK         0.0000 
     33 H33         0.4603   54.2061   28.7196 H         1 UNK         0.0000 
     34 H34         0.6200   53.6589   30.3880 H         1 UNK         0.0000 
     35 H35         0.9485   51.2858   29.5529 H         1 UNK         0.0000 
     36 H36         0.7995   51.8376   27.9234 H         1 UNK         0.0000 
     37 H37         2.2413   53.8731   27.4646 H         1 UNK         0.0000 
     38 H38         3.3246   55.3135   26.3036 H         1 UNK         0.0000 
     39 H39         4.9052   55.6611   26.8958 H         1 UNK         0.0000 
     40 H40         3.0111   53.1825   21.5562 H         1 UNK         0.0000 
     41 H41         7.4203   55.3678   21.0489 H         1 UNK         0.0000 
     42 H42         4.0073   56.0639   18.4376 H         1 UNK         0.0000 
     43 H43         5.4124   56.8269   17.7336 H         1 UNK         0.0000 
     44 H44         3.2342   55.4467   16.1381 H         1 UNK         0.0000 
     45 H45         3.4974   57.1641   16.2642 H         1 UNK         0.0000 
     46 H46         4.4512   56.1951   14.1382 H         1 UNK         0.0000 
     47 H47         5.6475   57.0111   15.1085 H         1 UNK         0.0000 
     48 H48         5.2412   53.9922   14.8740 H         1 UNK         0.0000 
     49 H49         6.6147   54.9070   14.3248 H         1 UNK         0.0000 
     50 H50         7.2390   55.4889   16.6008 H         1 UNK         0.0000 
     51 H51         7.1395   53.7406   16.4793 H         1 UNK         0.0000 
     52 H52         5.3566   52.4995   17.7847 H         1 UNK         0.0000 
     53 H53         4.1158   53.2198   16.7994 H         1 UNK         0.0000 
     54 H54         3.3462   52.3543   19.0885 H         1 UNK         0.0000 
     55 H55         2.9180   54.0190   18.7574 H         1 UNK         0.0000 
     56 H56         2.5106   52.6582   23.7892 H         1 UNK         0.0000 
     57 H57         2.2653   53.7474   25.1312 H         1 UNK         0.0000 
     58 H58         2.0166   54.3335   23.4955 H         1 UNK         0.0000 
     59 O59         3.5065   53.8986   30.4813 O.co2     1 UNK         0.0000 
@<TRIPOS>BOND
     1    1    2 1    
     2    1   32 1    
     3    1   33 1    
     4    1   34 1    
     5    2    3 1    
     6    2   35 1    
     7    2   36 1    
     8    3    4 1    
     9    3    5 1    
    10    3    7 1    
    11    5    6 2    
    12    5   59 1    
    13    7    8 am   BACKBONE|DICT|INTERRES
    14    7   37 1    
    15    8    9 2    
    16    8   10 1    
    17   10   11 1    
    18   10   38 1    
    19   10   39 1    
    20   11   20 1    
    21   11   12 2    
    22   12   13 1    
    23   12   31 1    
    24   13   18 ar   
    25   13   14 ar   
    26   14   15 ar   
    27   14   40 1    
    28   15   30 1    
    29   15   16 ar   
    30   16   17 ar   
    31   16   22 1    
    32   17   18 ar   
    33   17   41 1    
    34   18   19 1    
    35   19   20 1    
    36   20   21 2    
    37   22   23 1    
    38   23   28 1    
    39   23   24 1    
    40   23   29 1    
    41   24   25 1    
    42   24   42 1    
    43   24   43 1    
    44   25   26 1    
    45   25   44 1    
    46   25   45 1    
    47   26   27 1    
    48   26   46 1    
    49   26   47 1    
    50   27   28 1    
    51   27   48 1    
    52   27   49 1    
    53   28   50 1    
    54   28   51 1    
    55   29   30 1    
    56   29   52 1    
    57   29   53 1    
    58   30   54 1    
    59   30   55 1    
    60   31   56 1    
    61   31   57 1    
    62   31   58 1    
@<TRIPOS>SUBSTRUCTURE
     1 UNK         1 GROUP             0       ****    0 ROOT    
