@<TRIPOS>MOLECULE
ZINC20560374_4773
35   36    1
SMALL
USER_CHARGES


@<TRIPOS>ATOM
      1 C1          2.4842   53.2887   22.3085 C.3       1 UNK         0.0000 
      2 C2          3.6925   53.6975   23.1419 C.ar      1 UNK         0.0000 
      3 C3          4.8474   54.0971   22.4658 C.ar      1 UNK         0.0000 
      4 C4          5.9759   54.4966   23.1704 C.ar      1 UNK         0.0000 
      5 C5          5.9607   54.4968   24.5602 C.ar      1 UNK         0.0000 
      6 C6          4.8160   54.1087   25.2671 C.ar      1 UNK         0.0000 
      7 C7          3.6654   53.6968   24.5530 C.ar      1 UNK         0.0000 
      8 C8          2.4203   53.1889   25.2766 C.3       1 UNK         0.0000 
      9 S9          4.9041   54.2319   27.0717 S.o2      1 UNK         0.0000 
     10 O10         5.0514   52.8968   27.6392 O.2       1 UNK         0.0000 
     11 O11         5.9044   55.2641   27.3636 O.2       1 UNK         0.0000 
     12 N12         3.3424   54.8976   27.5798 N.pl3     1 UNK         0.0000 
     13 C13         2.5306   54.4352   28.6271 C.ar      1 UNK         0.0000 
     14 C14         2.3683   53.0805   28.9474 C.ar      1 UNK         0.0000 
     15 C15         1.4816   52.6995   29.9553 C.ar      1 UNK         0.0000 
     16 C16         0.7555   53.6619   30.6513 C.ar      1 UNK         0.0000 
     17 C17         0.9162   55.0074   30.3459 C.ar      1 UNK         0.0000 
     18 C18         1.7929   55.3936   29.3369 C.ar      1 UNK         0.0000 
     19 F19         1.9036   56.7091   29.0430 F         1 UNK         0.0000 
     20 F20        -0.0928   53.2969   31.6304 F         1 UNK         0.0000 
     21 N21         7.1040   54.9336   22.4817 N.pl3     1 UNK         0.0000 
     22 H22         2.6245   53.5061   21.2493 H         1 UNK         0.0000 
     23 H23         2.2864   52.2218   22.4146 H         1 UNK         0.0000 
     24 H24         1.5959   53.8317   22.6328 H         1 UNK         0.0000 
     25 H25         4.8620   54.1072   21.3852 H         1 UNK         0.0000 
     26 H26         6.8435   54.8170   25.0930 H         1 UNK         0.0000 
     27 H27         2.6928   52.6518   26.1810 H         1 UNK         0.0000 
     28 H28         1.8625   52.4605   24.6903 H         1 UNK         0.0000 
     29 H29         1.7535   54.0119   25.5334 H         1 UNK         0.0000 
     30 H30         3.3333   55.9013   27.5025 H         1 UNK         0.0000 
     31 H31         2.8924   52.3063   28.4104 H         1 UNK         0.0000 
     32 H32         1.3413   51.6578   30.1917 H         1 UNK         0.0000 
     33 H33         0.3499   55.7537   30.8817 H         1 UNK         0.0000 
     34 H34         7.9840   55.0574   22.9815 H         1 UNK         0.0000 
     35 H35         7.1022   54.8969   21.4732 H         1 UNK         0.0000 
@<TRIPOS>BOND
     1    1    2 1    
     2    1   22 1    
     3    1   23 1    
     4    1   24 1    
     5    2    7 ar   
     6    2    3 ar   
     7    3    4 ar   
     8    3   25 1    
     9    4    5 ar   
    10    4   21 1    
    11    5    6 ar   
    12    5   26 1    
    13    6    7 ar   
    14    6    9 1    
    15    7    8 1    
    16    8   27 1    
    17    8   28 1    
    18    8   29 1    
    19    9   10 2    
    20    9   11 2    
    21    9   12 1    
    22   12   13 1    
    23   12   30 1    
    24   13   18 ar   
    25   13   14 ar   
    26   14   15 ar   
    27   14   31 1    
    28   15   16 ar   
    29   15   32 1    
    30   16   17 ar   
    31   16   20 1    
    32   17   18 ar   
    33   17   33 1    
    34   18   19 1    
    35   21   34 1    
    36   21   35 1    
@<TRIPOS>SUBSTRUCTURE
     1 UNK         1 GROUP             0       ****    0 ROOT    
