ZINC63280094_2221
                    3D
 Schrodinger Suite 2024-2.
 59 62  0  0  1  0            999 V2000
    1.6320   50.9667   22.9762 C   0  0  0  0  0  0
    1.4136   52.4802   23.2176 C   0  0  1  0  0  0
    0.7637   52.8422   22.4169 H   0  0  0  0  0  0
    0.7280   52.8012   24.5771 C   0  0  0  0  0  0
   -0.2778   51.8087   25.1554 C   0  0  0  0  0  0
   -1.6236   51.8043   25.1211 C   0  0  0  0  0  0
   -2.5724   52.6992   24.4402 C   0  0  0  0  0  0
   -3.9029   52.5269   24.5771 C   0  0  0  0  0  0
   -4.3689   51.4307   25.4158 C   0  0  0  0  0  0
   -3.5070   50.5981   26.0567 C   0  0  0  0  0  0
   -2.1243   50.7729   25.9247 C   0  0  0  0  0  0
   -1.1493   50.0968   26.4817 N   0  3  0  0  0  0
    0.1474   50.6577   26.0566 C   0  0  0  0  0  0
    2.6589   53.2572   23.1571 N   0  0  0  0  0  0
    3.6194   53.2603   22.2122 C   0  0  0  0  0  0
    3.5180   52.6506   21.1531 O   0  0  0  0  0  0
    4.8446   53.9615   22.5551 C   0  0  0  0  0  0
    5.3721   54.1175   23.7961 C   0  0  0  0  0  0
    6.6636   54.8278   24.1635 C   0  0  0  0  0  0
    6.5018   55.2967   25.8939 S   0  0  0  0  0  0
    5.4741   53.8788   26.2376 C   0  0  2  0  0  0
    6.1210   53.0236   26.4396 H   0  0  0  0  0  0
    4.7842   53.6967   24.9740 N   0  0  0  0  0  0
    4.4636   54.0638   27.3714 C   0  0  0  0  0  0
    3.2692   54.7579   27.1535 C   0  0  0  0  0  0
    2.2947   54.8598   28.1444 C   0  0  0  0  0  0
    2.5094   54.2714   29.3947 C   0  0  0  0  0  0
    3.7186   53.6186   29.6324 C   0  0  0  0  0  0
    4.6939   53.5117   28.6323 C   0  0  0  0  0  0
    3.9043   53.0944   30.8817 O   0  0  0  0  0  0
    4.0546   51.6966   30.9353 C   0  0  0  0  0  0
    1.5990   54.2644   30.4340 O   0  0  0  0  0  0
    0.3543   54.9165   30.2862 C   0  0  0  0  0  0
    0.6927   50.4179   23.0439 H   0  0  0  0  0  0
    2.0238   50.7608   21.9801 H   0  0  0  0  0  0
    2.3042   50.5282   23.7104 H   0  0  0  0  0  0
    1.4798   52.9369   25.3565 H   0  0  0  0  0  0
    0.2383   53.7703   24.4817 H   0  0  0  0  0  0
   -2.2304   53.5125   23.8162 H   0  0  0  0  0  0
   -4.6069   53.1813   24.0832 H   0  0  0  0  0  0
   -5.4327   51.2761   25.5313 H   0  0  0  0  0  0
   -3.9040   49.8015   26.6714 H   0  0  0  0  0  0
    0.7022   49.8665   25.5488 H   0  0  0  0  0  0
    0.6854   50.9717   26.9525 H   0  0  0  0  0  0
    2.7840   53.9301   23.8962 H   0  0  0  0  0  0
    6.8699   55.7012   23.5453 H   0  0  0  0  0  0
    5.3744   54.3482   21.6974 H   0  0  0  0  0  0
    7.5042   54.1376   24.0796 H   0  0  0  0  0  0
    4.0281   53.0285   24.9947 H   0  0  0  0  0  0
    3.1054   55.2228   26.1949 H   0  0  0  0  0  0
    1.3788   55.3872   27.9280 H   0  0  0  0  0  0
    5.6169   52.9883   28.8346 H   0  0  0  0  0  0
    3.6760   51.3264   31.8886 H   0  0  0  0  0  0
    3.5073   51.2043   30.1297 H   0  0  0  0  0  0
    5.1043   51.4257   30.8701 H   0  0  0  0  0  0
   -0.2213   54.7986   31.2037 H   0  0  0  0  0  0
   -0.2227   54.4861   29.4677 H   0  0  0  0  0  0
    0.5003   55.9848   30.1209 H   0  0  0  0  0  0
   -1.2727   49.3182   27.1495 H   0  0  0  0  0  0
  1  2  1  0  0  0
  1 34  1  0  0  0
  1 35  1  0  0  0
  1 36  1  0  0  0
  2  3  1  0  0  0
  2  4  1  0  0  0
  2 14  1  0  0  0
  4  5  1  0  0  0
  4 37  1  0  0  0
  4 38  1  0  0  0
  5 13  1  0  0  0
  5  6  2  0  0  0
  6 11  1  0  0  0
  6  7  1  0  0  0
  7  8  2  0  0  0
  7 39  1  0  0  0
  8  9  1  0  0  0
  8 40  1  0  0  0
  9 10  2  0  0  0
  9 41  1  0  0  0
 10 11  1  0  0  0
 10 42  1  0  0  0
 11 12  2  0  0  0
 12 13  1  0  0  0
 12 59  1  0  0  0
 13 43  1  0  0  0
 13 44  1  0  0  0
 14 45  1  0  0  0
 14 15  1  0  0  0
 15 16  2  0  0  0
 15 17  1  0  0  0
 17 47  1  0  0  0
 17 18  2  0  0  0
 18 19  1  0  0  0
 18 23  1  0  0  0
 19 20  1  0  0  0
 19 48  1  0  0  0
 19 46  1  0  0  0
 20 21  1  0  0  0
 21 22  1  0  0  0
 21 24  1  0  0  0
 21 23  1  0  0  0
 23 49  1  0  0  0
 24 29  2  0  0  0
 24 25  1  0  0  0
 25 26  2  0  0  0
 25 50  1  0  0  0
 26 27  1  0  0  0
 26 51  1  0  0  0
 27 28  2  0  0  0
 27 32  1  0  0  0
 28 29  1  0  0  0
 28 30  1  0  0  0
 29 52  1  0  0  0
 30 31  1  0  0  0
 31 53  1  0  0  0
 31 54  1  0  0  0
 31 55  1  0  0  0
 32 33  1  0  0  0
 33 56  1  0  0  0
 33 57  1  0  0  0
 33 58  1  0  0  0
M  CHG  1  12   1
M  END
> <i_i_glide_confnum>
91

> <i_i_glide_lignum>
2222

> <i_i_glide_posenum>
310

> <i_i_glide_rotatable_bonds>
8

> <i_m_Source_File_Index>
4236

> <b_m_subgroup_collapsed>
0

> <r_i_docking_score>
-7.02301

> <r_i_glide_ecoul>
-4.2887

> <r_i_glide_eff_state_penalty>
0

> <r_i_glide_einternal>
9.78171

> <r_i_glide_emodel>
-61.1016

> <r_i_glide_energy>
-43.8474

> <r_i_glide_erotb>
0.518641

> <r_i_glide_esite>
-0.1

> <r_i_glide_evdw>
-39.5587

> <r_i_glide_gscore>
-7.02301

> <r_i_glide_hbond>
-0.636043

> <r_i_glide_ligand_efficiency>
-0.226549

> <r_i_glide_ligand_efficiency_ln>
-1.5839

> <r_i_glide_ligand_efficiency_sa>
-0.711676

> <r_i_glide_lipo>
-3.59786

> <r_i_glide_metal>
0

> <r_i_glide_rewards>
-0.58651

> <s_i_glide_gridfile>
wee1_glide-grid

> <s_m_Source_File>
wee1_decoys_glide_SP.sdf

> <s_m_Source_Path>
/Users/zhangxujun/Desktop

> <s_m_entry_id>
4511

> <s_m_entry_name>
wee1_decoys_glide_SP.4236

> <s_m_subgroup_title>
wee1_decoys_glide_SP

> <s_m_subgroupid>
wee1_decoys_glide_SP


$$$$
