@<TRIPOS>MOLECULE
ZINC20119452_2356
60   63    1
SMALL
USER_CHARGES


@<TRIPOS>ATOM
      1 C1         -1.9711   50.9648   26.6205 C.3       1 UNK         0.0000 
      2 C2         -0.4384   50.9507   26.8184 C.3       1 UNK         0.0000 
      3 H3         -0.1372   49.9533   27.1528 H         1 UNK         0.0000 
      4 C4          0.0125   51.8984   27.9487 C.ar      1 UNK         0.0000 
      5 C5         -0.4957   51.6968   29.2380 C.ar      1 UNK         0.0000 
      6 C6         -0.0954   52.5070   30.2944 C.ar      1 UNK         0.0000 
      7 C7          0.8045   53.5419   30.0689 C.ar      1 UNK         0.0000 
      8 C8          1.3221   53.7612   28.7946 C.ar      1 UNK         0.0000 
      9 C9          0.9346   52.9371   27.7404 C.ar      1 UNK         0.0000 
     10 N10         0.2559   51.1887   25.5504 N.am      1 UNK         0.0000 
     11 C11         0.3759   50.3368   24.5165 C.2       1 UNK         0.0000 
     12 O12        -0.0996   49.2020   24.5085 O.2       1 UNK         0.0000 
     13 C13         1.1936   50.8539   23.3552 C.ar      1 UNK         0.0000 
     14 C14         1.2740   52.2269   23.0778 C.ar      1 UNK         0.0000 
     15 C15         2.0822   52.6875   22.0440 C.ar      1 UNK         0.0000 
     16 C16         2.8367   51.7794   21.2953 C.ar      1 UNK         0.0000 
     17 C17         2.7044   50.4105   21.5171 C.ar      1 UNK         0.0000 
     18 C18         1.8933   49.9524   22.5481 C.ar      1 UNK         0.0000 
     19 N19         3.7179   52.1988   20.2842 N.pl3     1 UNK         0.0000 
     20 C20         4.6844   53.1685   20.2789 C.2       1 UNK         0.0000 
     21 S21         5.1041   54.0986   21.6250 S.2       1 UNK         0.0000 
     22 N22         5.2815   53.2275   19.0444 N.am      1 UNK         0.0000 
     23 C23         6.0619   54.1661   18.4453 C.2       1 UNK         0.0000 
     24 O24         6.3144   55.2854   18.8918 O.2       1 UNK         0.0000 
     25 C25         6.5750   53.7734   17.1576 C.2       1 UNK         0.0000 
     26 C26         7.0825   52.5469   16.8967 C.2       1 UNK         0.0000 
     27 C27         7.5978   52.0970   15.5907 C.ar      1 UNK         0.0000 
     28 C28         6.9106   52.4500   14.4244 C.ar      1 UNK         0.0000 
     29 C29         7.3399   52.0211   13.1745 C.ar      1 UNK         0.0000 
     30 C30         8.4755   51.2294   13.0517 C.ar      1 UNK         0.0000 
     31 C31         9.2141   50.8579   14.1986 C.ar      1 UNK         0.0000 
     32 C32         8.7789   51.2957   15.4900 C.ar      1 UNK         0.0000 
     33 C33         9.5497   50.8973   16.6227 C.ar      1 UNK         0.0000 
     34 C34        10.6864   50.1084   16.4759 C.ar      1 UNK         0.0000 
     35 C35        11.1008   49.6941   15.2170 C.ar      1 UNK         0.0000 
     36 C36        10.3759   50.0531   14.0850 C.ar      1 UNK         0.0000 
     37 H37        -2.4965   50.6650   27.5285 H         1 UNK         0.0000 
     38 H38        -2.3271   51.9555   26.3363 H         1 UNK         0.0000 
     39 H39        -2.2786   50.2638   25.8443 H         1 UNK         0.0000 
     40 H40        -1.1970   50.8986   29.4360 H         1 UNK         0.0000 
     41 H41        -0.4959   52.3302   31.2815 H         1 UNK         0.0000 
     42 H42         1.1003   54.1778   30.8886 H         1 UNK         0.0000 
     43 H43         2.0237   54.5626   28.6224 H         1 UNK         0.0000 
     44 H44         1.3605   53.1301   26.7695 H         1 UNK         0.0000 
     45 H45         0.7929   52.0380   25.5047 H         1 UNK         0.0000 
     46 H46         0.7247   52.9531   23.6570 H         1 UNK         0.0000 
     47 H47         2.1345   53.7473   21.8434 H         1 UNK         0.0000 
     48 H48         3.2488   49.6973   20.9149 H         1 UNK         0.0000 
     49 H49         1.8355   48.8898   22.7372 H         1 UNK         0.0000 
     50 H50         3.7070   51.6010   19.4679 H         1 UNK         0.0000 
     51 H51         5.1494   52.3904   18.4902 H         1 UNK         0.0000 
     52 H52         6.5442   54.5454   16.4022 H         1 UNK         0.0000 
     53 H53         7.1047   51.7979   17.6783 H         1 UNK         0.0000 
     54 H54         6.0148   53.0529   14.4884 H         1 UNK         0.0000 
     55 H55         6.7816   52.3024   12.2930 H         1 UNK         0.0000 
     56 H56         8.8056   50.8944   12.0787 H         1 UNK         0.0000 
     57 H57         9.2622   51.2047   17.6165 H         1 UNK         0.0000 
     58 H58        11.2512   49.8204   17.3515 H         1 UNK         0.0000 
     59 H59        11.9875   49.0871   15.1128 H         1 UNK         0.0000 
     60 H60        10.7041   49.7225   13.1090 H         1 UNK         0.0000 
@<TRIPOS>BOND
     1    1    2 1    
     2    1   37 1    
     3    1   38 1    
     4    1   39 1    
     5    2    3 1    
     6    2    4 1    
     7    2   10 1    
     8    4    9 ar   
     9    4    5 ar   
    10    5    6 ar   
    11    5   40 1    
    12    6    7 ar   
    13    6   41 1    
    14    7    8 ar   
    15    7   42 1    
    16    8    9 ar   
    17    8   43 1    
    18    9   44 1    
    19   10   11 am   BACKBONE|DICT|INTERRES
    20   10   45 1    
    21   11   12 2    
    22   11   13 1    
    23   13   18 ar   
    24   13   14 ar   
    25   14   15 ar   
    26   14   46 1    
    27   15   16 ar   
    28   15   47 1    
    29   16   17 ar   
    30   16   19 1    
    31   17   18 ar   
    32   17   48 1    
    33   18   49 1    
    34   19   20 1    
    35   19   50 1    
    36   20   21 2    
    37   20   22 am   BACKBONE|DICT|INTERRES
    38   22   23 am   BACKBONE|DICT|INTERRES
    39   22   51 1    
    40   23   24 2    
    41   23   25 1    
    42   25   26 2    
    43   25   52 1    
    44   26   27 1    
    45   26   53 1    
    46   27   32 ar   
    47   27   28 ar   
    48   28   29 ar   
    49   28   54 1    
    50   29   30 ar   
    51   29   55 1    
    52   30   31 ar   
    53   30   56 1    
    54   31   36 ar   
    55   31   32 ar   
    56   32   33 ar   
    57   33   34 ar   
    58   33   57 1    
    59   34   35 ar   
    60   34   58 1    
    61   35   36 ar   
    62   35   59 1    
    63   36   60 1    
@<TRIPOS>SUBSTRUCTURE
     1 UNK         1 GROUP             0       ****    0 ROOT    
