ZINC12378220_416
                    3D
 Schrodinger Suite 2024-2.
 61 64  0  0  1  0            999 V2000
    3.5469   52.0487   31.5014 C   0  0  0  0  0  0
    2.3249   52.4289   30.6490 C   0  0  0  0  0  0
    2.6245   52.5505   29.1328 C   0  0  2  0  0  0
    2.7205   51.5421   28.7283 H   0  0  0  0  0  0
    3.8985   53.3270   28.7656 C   0  0  0  0  0  0
    3.7888   54.7733   29.2638 C   0  0  0  0  0  0
    2.5199   55.4724   28.7091 C   0  0  0  0  0  0
    1.2181   54.6382   28.7705 C   0  0  0  0  0  0
    1.4639   53.2038   28.4716 N   0  0  0  0  0  0
    0.4369   52.2929   27.3527 S   0  0  0  0  0  0
   -0.8958   52.8967   27.3147 O   0  0  0  0  0  0
    0.6021   50.8792   27.6681 O   0  0  0  0  0  0
    1.0963   52.4972   25.7056 C   0  0  0  0  0  0
    1.9675   53.5373   25.3956 C   0  0  0  0  0  0
    2.4515   53.6749   24.1009 C   0  0  0  0  0  0
    2.0941   52.7478   23.1058 C   0  0  0  0  0  0
    1.2051   51.7134   23.4298 C   0  0  0  0  0  0
    0.7031   51.5923   24.7209 C   0  0  0  0  0  0
    2.6660   52.8260   21.7075 C   0  0  0  0  0  0
    2.1217   52.2208   20.7829 O   0  0  0  0  0  0
    3.8037   53.5463   21.6055 N   0  0  0  0  0  0
    4.6018   53.8045   20.4948 C   0  0  0  0  0  0
    5.8308   54.4969   20.5109 C   0  0  0  0  0  0
    6.3680   54.6444   19.2013 C   0  0  0  0  0  0
    5.5898   54.0019   18.2272 C   0  0  0  0  0  0
    4.1616   53.2969   18.8866 S   0  0  0  0  0  0
    5.9600   53.8392   16.7599 C   0  0  0  0  0  0
    7.1040   54.8107   16.4050 C   0  0  0  0  0  0
    8.2149   54.7982   17.4676 C   0  0  0  0  0  0
    7.7088   55.3002   18.8364 C   0  0  0  0  0  0
    6.4542   55.0741   21.6931 C   0  0  0  0  0  0
    7.1233   56.0967   21.6460 O   0  0  0  0  0  0
    6.3037   54.4105   22.8425 N   0  0  0  0  0  0
    3.2403   51.6592   32.4721 H   0  0  0  0  0  0
    4.1568   51.2966   31.0119 H   0  0  0  0  0  0
    4.2063   52.8959   31.6819 H   0  0  0  0  0  0
    1.9034   53.3456   31.0549 H   0  0  0  0  0  0
    1.5314   51.6964   30.7867 H   0  0  0  0  0  0
    3.9984   53.3575   27.6790 H   0  0  0  0  0  0
    4.7967   52.8240   29.1256 H   0  0  0  0  0  0
    4.6944   55.2967   28.9666 H   0  0  0  0  0  0
    3.7756   54.7946   30.3505 H   0  0  0  0  0  0
    2.7046   55.6964   27.6634 H   0  0  0  0  0  0
    2.3703   56.4380   29.1942 H   0  0  0  0  0  0
    0.4665   55.0237   28.0820 H   0  0  0  0  0  0
    0.7724   54.7021   29.7628 H   0  0  0  0  0  0
    2.2734   54.2433   26.1465 H   0  0  0  0  0  0
    3.1146   54.5035   23.8978 H   0  0  0  0  0  0
    0.9059   50.9868   22.6867 H   0  0  0  0  0  0
    0.0239   50.7855   24.9620 H   0  0  0  0  0  0
    4.1331   53.9650   22.4600 H   0  0  0  0  0  0
    5.1019   54.0104   16.1095 H   0  0  0  0  0  0
    6.2895   52.8141   16.5844 H   0  0  0  0  0  0
    6.7097   55.8235   16.3032 H   0  0  0  0  0  0
    7.5160   54.5492   15.4295 H   0  0  0  0  0  0
    9.0533   55.4145   17.1403 H   0  0  0  0  0  0
    8.6092   53.7855   17.5707 H   0  0  0  0  0  0
    8.4710   55.1024   19.5914 H   0  0  0  0  0  0
    7.5891   56.3838   18.8146 H   0  0  0  0  0  0
    5.9371   53.4717   22.8481 H   0  0  0  0  0  0
    6.7739   54.7701   23.6596 H   0  0  0  0  0  0
  1  2  1  0  0  0
  1 34  1  0  0  0
  1 35  1  0  0  0
  1 36  1  0  0  0
  2  3  1  0  0  0
  2 37  1  0  0  0
  2 38  1  0  0  0
  3  4  1  0  0  0
  3  9  1  0  0  0
  3  5  1  0  0  0
  5  6  1  0  0  0
  5 39  1  0  0  0
  5 40  1  0  0  0
  6  7  1  0  0  0
  6 41  1  0  0  0
  6 42  1  0  0  0
  7  8  1  0  0  0
  7 43  1  0  0  0
  7 44  1  0  0  0
  8  9  1  0  0  0
  8 45  1  0  0  0
  8 46  1  0  0  0
  9 10  1  0  0  0
 10 11  2  0  0  0
 10 12  2  0  0  0
 10 13  1  0  0  0
 13 18  2  0  0  0
 13 14  1  0  0  0
 14 15  2  0  0  0
 14 47  1  0  0  0
 15 16  1  0  0  0
 15 48  1  0  0  0
 16 17  2  0  0  0
 16 19  1  0  0  0
 17 18  1  0  0  0
 17 49  1  0  0  0
 18 50  1  0  0  0
 19 20  2  0  0  0
 19 21  1  0  0  0
 21 22  1  0  0  0
 21 51  1  0  0  0
 22 26  1  0  0  0
 22 23  2  0  0  0
 23 24  1  0  0  0
 23 31  1  0  0  0
 24 30  1  0  0  0
 24 25  2  0  0  0
 25 26  1  0  0  0
 25 27  1  0  0  0
 27 28  1  0  0  0
 27 52  1  0  0  0
 27 53  1  0  0  0
 28 29  1  0  0  0
 28 54  1  0  0  0
 28 55  1  0  0  0
 29 30  1  0  0  0
 29 56  1  0  0  0
 29 57  1  0  0  0
 30 58  1  0  0  0
 30 59  1  0  0  0
 31 32  2  0  0  0
 31 33  1  0  0  0
 33 60  1  0  0  0
 33 61  1  0  0  0
M  END
> <i_i_glide_confnum>
682

> <i_i_glide_lignum>
417

> <i_i_glide_posenum>
199

> <i_i_glide_rotatable_bonds>
7

> <i_m_Source_File_Index>
3592

> <b_m_subgroup_collapsed>
0

> <r_i_docking_score>
-4.22561

> <r_i_glide_ecoul>
0.221754

> <r_i_glide_eff_state_penalty>
0

> <r_i_glide_einternal>
6.43055

> <r_i_glide_emodel>
-53.1324

> <r_i_glide_energy>
-45.5007

> <r_i_glide_erotb>
0.447435

> <r_i_glide_esite>
-0.0467825

> <r_i_glide_evdw>
-45.7225

> <r_i_glide_gscore>
-4.22561

> <r_i_glide_hbond>
-0.0366512

> <r_i_glide_ligand_efficiency>
-0.13205

> <r_i_glide_ligand_efficiency_ln>
-0.94623

> <r_i_glide_ligand_efficiency_sa>
-0.419234

> <r_i_glide_lipo>
-2.579

> <r_i_glide_metal>
0

> <r_i_glide_rewards>
0.242248

> <s_i_glide_gridfile>
wee1_glide-grid

> <s_m_Source_File>
wee1_decoys_glide_SP.sdf

> <s_m_Source_Path>
/Users/zhangxujun/Desktop

> <s_m_entry_id>
3867

> <s_m_entry_name>
wee1_decoys_glide_SP.3592

> <s_m_subgroup_title>
wee1_decoys_glide_SP

> <s_m_subgroupid>
wee1_decoys_glide_SP


$$$$
