@<TRIPOS>MOLECULE
ZINC35303103_4944
56   60    1
SMALL
USER_CHARGES


@<TRIPOS>ATOM
      1 C1          9.9365   59.0246   17.9659 C.ar      1 UNK         0.0000 
      2 C2          8.6617   59.5548   17.8272 C.ar      1 UNK         0.0000 
      3 C3          7.5497   58.7236   17.8520 C.ar      1 UNK         0.0000 
      4 C4          7.6959   57.3308   18.0334 C.ar      1 UNK         0.0000 
      5 C5          9.0079   56.8068   18.1210 C.ar      1 UNK         0.0000 
      6 C6         10.1075   57.6548   18.1075 C.ar      1 UNK         0.0000 
      7 C7          6.4555   56.4368   17.9226 C.3       1 UNK         0.0000 
      8 C8          6.3306   55.1211   18.7592 C.3       1 UNK         0.0000 
      9 H9          5.3457   54.6941   18.5554 H         1 UNK         0.0000 
     10 C10         6.4644   55.2969   20.2906 C.2       1 UNK         0.0000 
     11 O11         7.3272   56.0591   20.7331 O.2       1 UNK         0.0000 
     12 N12         5.6275   54.5561   21.0589 N.am      1 UNK         0.0000 
     13 C13         5.6741   54.4941   22.4484 C.2       1 UNK         0.0000 
     14 N14         6.7044   54.7777   23.2140 N.2       1 UNK         0.0000 
     15 N15         6.4063   54.7174   24.5662 N.2       1 UNK         0.0000 
     16 C16         5.1554   54.3954   24.8061 C.2       1 UNK         0.0000 
     17 S17         4.2352   54.0966   23.3424 S.3       1 UNK         0.0000 
     18 C18         4.5666   54.3095   26.1855 C.ar      1 UNK         0.0000 
     19 C19         5.4024   54.4719   27.3148 C.ar      1 UNK         0.0000 
     20 C20         4.8888   54.4361   28.6175 C.ar      1 UNK         0.0000 
     21 C21         3.5254   54.2179   28.7649 C.ar      1 UNK         0.0000 
     22 C22         2.7051   54.0548   27.6861 C.ar      1 UNK         0.0000 
     23 C23         3.1880   54.0960   26.3818 C.ar      1 UNK         0.0000 
     24 O24         1.4238   53.9079   28.1147 O.3       1 UNK         0.0000 
     25 C25         1.5035   53.7637   29.5082 C.3       1 UNK         0.0000 
     26 O26         2.7888   54.1665   29.9063 O.3       1 UNK         0.0000 
     27 N27         7.2971   54.1091   18.3156 N.am      1 UNK         0.0000 
     28 C28         7.2720   53.4373   17.1526 C.2       1 UNK         0.0000 
     29 O29         6.3894   53.5834   16.3083 O.2       1 UNK         0.0000 
     30 N30         8.3320   52.6087   17.0580 N.am      1 UNK         0.0000 
     31 C31         8.7075   51.7362   16.0183 C.ar      1 UNK         0.0000 
     32 C32         9.7694   50.8726   16.3035 C.ar      1 UNK         0.0000 
     33 C33        10.2278   49.9794   15.3385 C.ar      1 UNK         0.0000 
     34 C34         9.6268   49.9509   14.0817 C.ar      1 UNK         0.0000 
     35 C35         8.5694   50.8070   13.7837 C.ar      1 UNK         0.0000 
     36 C36         8.1073   51.7000   14.7485 C.ar      1 UNK         0.0000 
     37 H37        10.7993   59.6731   17.9420 H         1 UNK         0.0000 
     38 H38         8.5210   60.6157   17.6800 H         1 UNK         0.0000 
     39 H39         6.5694   59.1606   17.7197 H         1 UNK         0.0000 
     40 H40         9.1868   55.7487   18.2091 H         1 UNK         0.0000 
     41 H41        11.1013   57.2410   18.2008 H         1 UNK         0.0000 
     42 H42         6.3421   56.2046   16.8629 H         1 UNK         0.0000 
     43 H43         5.5903   57.0562   18.1649 H         1 UNK         0.0000 
     44 H44         4.9064   54.0183   20.6005 H         1 UNK         0.0000 
     45 H45         6.4618   54.6431   27.1915 H         1 UNK         0.0000 
     46 H46         5.5389   54.5874   29.4659 H         1 UNK         0.0000 
     47 H47         2.5124   53.9785   25.5484 H         1 UNK         0.0000 
     48 H48         1.3556   52.7129   29.7666 H         1 UNK         0.0000 
     49 H49         0.7399   54.3693   29.9979 H         1 UNK         0.0000 
     50 H50         8.0699   53.9614   18.9461 H         1 UNK         0.0000 
     51 H51         8.9443   52.5720   17.8573 H         1 UNK         0.0000 
     52 H52        10.2488   50.8882   17.2726 H         1 UNK         0.0000 
     53 H53        11.0500   49.3149   15.5602 H         1 UNK         0.0000 
     54 H54         9.9929   49.2661   13.3290 H         1 UNK         0.0000 
     55 H55         8.1115   50.7803   12.8058 H         1 UNK         0.0000 
     56 H56         7.2924   52.3548   14.4839 H         1 UNK         0.0000 
@<TRIPOS>BOND
     1    1    6 ar   
     2    1    2 ar   
     3    1   37 1    
     4    2    3 ar   
     5    2   38 1    
     6    3    4 ar   
     7    3   39 1    
     8    4    5 ar   
     9    4    7 1    
    10    5    6 ar   
    11    5   40 1    
    12    6   41 1    
    13    7    8 1    
    14    7   42 1    
    15    7   43 1    
    16    8    9 1    
    17    8   10 1    
    18    8   27 1    
    19   10   11 2    
    20   10   12 am   BACKBONE|DICT|INTERRES
    21   12   13 am   BACKBONE|DICT|INTERRES
    22   12   44 1    
    23   13   17 1    
    24   13   14 2    
    25   14   15 1    
    26   15   16 2    
    27   16   17 1    
    28   16   18 1    
    29   18   23 ar   
    30   18   19 ar   
    31   19   20 ar   
    32   19   45 1    
    33   20   21 ar   
    34   20   46 1    
    35   21   26 1    
    36   21   22 ar   
    37   22   23 ar   
    38   22   24 1    
    39   23   47 1    
    40   24   25 1    
    41   25   26 1    
    42   25   48 1    
    43   25   49 1    
    44   27   28 am   BACKBONE|DICT|INTERRES
    45   27   50 1    
    46   28   29 2    
    47   28   30 am   BACKBONE|DICT|INTERRES
    48   30   31 1    
    49   30   51 1    
    50   31   36 ar   
    51   31   32 ar   
    52   32   33 ar   
    53   32   52 1    
    54   33   34 ar   
    55   33   53 1    
    56   34   35 ar   
    57   34   54 1    
    58   35   36 ar   
    59   35   55 1    
    60   36   56 1    
@<TRIPOS>SUBSTRUCTURE
     1 UNK         1 GROUP             0       ****    0 ROOT    
