@<TRIPOS>MOLECULE
ZINC63204481_1254
59   63    1
SMALL
USER_CHARGES


@<TRIPOS>ATOM
      1 C1         -0.2746   51.1752   24.0068 C.ar      1 UNK         0.0000 
      2 C2         -0.3602   52.5544   24.1770 C.ar      1 UNK         0.0000 
      3 C3          0.6986   53.3648   23.7753 C.ar      1 UNK         0.0000 
      4 C4          1.8515   52.8097   23.2090 C.ar      1 UNK         0.0000 
      5 C5          1.9043   51.4202   23.0183 C.ar      1 UNK         0.0000 
      6 C6          0.8527   50.6053   23.4249 C.ar      1 UNK         0.0000 
      7 C7          3.0024   53.7483   22.7780 C.3       1 UNK         0.0000 
      8 H8          2.5290   54.7222   22.6427 H         1 UNK         0.0000 
      9 C9          4.0554   54.0656   23.8686 C.ar      1 UNK         0.0000 
     10 C10         5.3897   54.3559   23.5388 C.ar      1 UNK         0.0000 
     11 C11         6.3291   54.6170   24.5311 C.ar      1 UNK         0.0000 
     12 C12         5.9422   54.5970   25.8676 C.ar      1 UNK         0.0000 
     13 C13         4.6216   54.3324   26.2160 C.ar      1 UNK         0.0000 
     14 C14         3.6841   54.0715   25.2216 C.ar      1 UNK         0.0000 
     15 Cl15        7.1046   54.8964   27.1031 Cl        1 UNK         0.0000 
     16 N16         3.5070   53.5083   21.4161 N.am      1 UNK         0.0000 
     17 C17         4.3689   52.5714   20.9681 C.2       1 UNK         0.0000 
     18 O18         4.8614   51.7050   21.6817 O.2       1 UNK         0.0000 
     19 C19         4.7931   52.5943   19.4910 C.3       1 UNK         0.0000 
     20 N20         4.5393   53.8931   18.8373 N.am      1 UNK         0.0000 
     21 C21         3.5039   54.0861   17.9948 C.2       1 UNK         0.0000 
     22 O22         2.6263   53.2934   17.6545 O.2       1 UNK         0.0000 
     23 C23         3.6430   55.5071   17.5070 C.3       1 UNK         0.0000 
     24 H24         2.7755   56.0669   17.8630 H         1 UNK         0.0000 
     25 N25         4.8421   55.9053   18.1906 N.am      1 UNK         0.0000 
     26 C26         5.3242   54.9871   19.0290 C.2       1 UNK         0.0000 
     27 O27         6.1131   55.1949   19.9485 O.2       1 UNK         0.0000 
     28 C28         3.7705   55.5868   15.9659 C.3       1 UNK         0.0000 
     29 C29         3.5542   56.9925   15.4334 C.2       1 UNK         0.0000 
     30 C30         2.7269   57.4603   14.4792 C.2       1 UNK         0.0000 
     31 C31         1.7815   56.7639   13.5923 C.2       1 UNK         0.0000 
     32 C32         1.0223   57.4531   12.7165 C.2       1 UNK         0.0000 
     33 C33         1.1598   58.9032   12.6843 C.2       1 UNK         0.0000 
     34 C34         2.0218   59.5632   13.5023 C.2       1 UNK         0.0000 
     35 C35         2.8192   58.8539   14.4092 C.2       1 UNK         0.0000 
     36 N36         3.6871   59.2967   15.2842 N.pl3     1 UNK         0.0000 
     37 C37         4.2829   58.1840   16.0217 C.3       1 UNK         0.0000 
     38 H38        -1.0891   50.5415   24.3266 H         1 UNK         0.0000 
     39 H39        -1.2405   52.9907   24.6235 H         1 UNK         0.0000 
     40 H40         0.6261   54.4331   23.9225 H         1 UNK         0.0000 
     41 H41         2.7590   50.9442   22.5716 H         1 UNK         0.0000 
     42 H42         0.9160   49.5342   23.2916 H         1 UNK         0.0000 
     43 H43         5.7174   54.3854   22.5113 H         1 UNK         0.0000 
     44 H44         7.3540   54.8250   24.2594 H         1 UNK         0.0000 
     45 H45         4.3255   54.3174   27.2548 H         1 UNK         0.0000 
     46 H46         2.6695   53.8605   25.5219 H         1 UNK         0.0000 
     47 H47         3.0571   54.0772   20.7118 H         1 UNK         0.0000 
     48 H48         5.8588   52.3742   19.4232 H         1 UNK         0.0000 
     49 H49         4.2642   51.7829   18.9961 H         1 UNK         0.0000 
     50 H50         5.3749   56.7141   17.9090 H         1 UNK         0.0000 
     51 H51         4.7458   55.2283   15.6325 H         1 UNK         0.0000 
     52 H52         3.0367   54.9351   15.4894 H         1 UNK         0.0000 
     53 H53         1.6780   55.6877   13.6147 H         1 UNK         0.0000 
     54 H54         0.3286   56.9472   12.0583 H         1 UNK         0.0000 
     55 H55         0.5536   59.4699   11.9910 H         1 UNK         0.0000 
     56 H56         2.0799   60.6410   13.4406 H         1 UNK         0.0000 
     57 H57         4.0793   58.3592   17.0786 H         1 UNK         0.0000 
     58 H58         5.3585   58.1966   15.8363 H         1 UNK         0.0000 
     59 H59         3.9043   60.2814   15.4895 H         1 UNK         0.0000 
@<TRIPOS>BOND
     1    1    6 ar   
     2    1    2 ar   
     3    1   38 1    
     4    2    3 ar   
     5    2   39 1    
     6    3    4 ar   
     7    3   40 1    
     8    4    5 ar   
     9    4    7 1    
    10    5    6 ar   
    11    5   41 1    
    12    6   42 1    
    13    7    8 1    
    14    7    9 1    
    15    7   16 1    
    16    9   14 ar   
    17    9   10 ar   
    18   10   11 ar   
    19   10   43 1    
    20   11   12 ar   
    21   11   44 1    
    22   12   13 ar   
    23   12   15 1    
    24   13   14 ar   
    25   13   45 1    
    26   14   46 1    
    27   16   17 am   BACKBONE|DICT|INTERRES
    28   16   47 1    
    29   17   18 2    
    30   17   19 1    
    31   19   20 1    
    32   19   48 1    
    33   19   49 1    
    34   20   26 am   BACKBONE|DICT|INTERRES
    35   20   21 am   BACKBONE|DICT|INTERRES
    36   21   22 2    
    37   21   23 1    
    38   23   24 1    
    39   23   25 1    
    40   23   28 1    
    41   25   26 am   BACKBONE|DICT|INTERRES
    42   25   50 1    
    43   26   27 2    
    44   28   29 1    
    45   28   51 1    
    46   28   52 1    
    47   29   37 1    
    48   29   30 2    
    49   30   35 1    
    50   30   31 1    
    51   31   32 2    
    52   31   53 1    
    53   32   33 1    
    54   32   54 1    
    55   33   34 2    
    56   33   55 1    
    57   34   35 1    
    58   34   56 1    
    59   35   36 2    
    60   36   37 1    
    61   36   59 1    
    62   37   57 1    
    63   37   58 1    
@<TRIPOS>SUBSTRUCTURE
     1 UNK         1 GROUP             0       ****    0 ROOT    
