@<TRIPOS>MOLECULE
ZINC08132043_1421
48   52    1
SMALL
USER_CHARGES


@<TRIPOS>ATOM
      1 C1         -4.0005   51.9091   24.2688 C.ar      1 UNK         0.0000 
      2 C2         -3.4199   52.4943   25.3881 C.ar      1 UNK         0.0000 
      3 C3         -2.0356   52.4964   25.5250 C.ar      1 UNK         0.0000 
      4 C4         -1.2097   51.9166   24.5475 C.ar      1 UNK         0.0000 
      5 C5         -1.8216   51.3486   23.4163 C.ar      1 UNK         0.0000 
      6 C6         -3.2068   51.3364   23.2814 C.ar      1 UNK         0.0000 
      7 C7          0.3425   51.8902   24.7034 C.3       1 UNK         0.0000 
      8 C8          0.9473   52.8909   23.7159 C.2       1 UNK         0.0000 
      9 O9          0.7051   54.0965   23.6815 O.2       1 UNK         0.0000 
     10 N10         1.8220   52.1924   22.9610 N.am      1 UNK         0.0000 
     11 C11         1.7178   50.8499   23.1022 C.2       1 UNK         0.0000 
     12 O12         2.1680   49.9685   22.3732 O.2       1 UNK         0.0000 
     13 N13         0.9248   50.6788   24.1666 N.am      1 UNK         0.0000 
     14 N14         2.6708   52.7739   21.9986 N.am      1 UNK         0.0000 
     15 C15         3.7818   53.4579   22.3665 C.2       1 UNK         0.0000 
     16 O16         4.0706   53.6972   23.5428 O.2       1 UNK         0.0000 
     17 C17         4.6847   53.9368   21.2486 C.ar      1 UNK         0.0000 
     18 C18         4.5738   53.4201   19.9335 C.ar      1 UNK         0.0000 
     19 C19         5.4314   53.8429   18.9084 C.ar      1 UNK         0.0000 
     20 C20         6.4000   54.7852   19.2263 C.ar      1 UNK         0.0000 
     21 C21         6.5181   55.2970   20.4856 C.ar      1 UNK         0.0000 
     22 C22         5.6843   54.8946   21.5219 C.ar      1 UNK         0.0000 
     23 O23         7.5389   56.1913   20.5103 O.3       1 UNK         0.0000 
     24 C24         8.2126   56.0180   19.2923 C.3       1 UNK         0.0000 
     25 O25         7.3445   55.3423   18.4244 O.3       1 UNK         0.0000 
     26 C26         0.8449   52.0966   26.1675 C.ar      1 UNK         0.0000 
     27 C27         0.2900   51.3042   27.1839 C.ar      1 UNK         0.0000 
     28 C28         0.6473   51.4951   28.5133 C.ar      1 UNK         0.0000 
     29 C29         1.6007   52.4492   28.8489 C.ar      1 UNK         0.0000 
     30 C30         2.1969   53.2207   27.8571 C.ar      1 UNK         0.0000 
     31 C31         1.8215   53.0489   26.5281 C.ar      1 UNK         0.0000 
     32 H32        -5.0761   51.8997   24.1649 H         1 UNK         0.0000 
     33 H33        -4.0413   52.9391   26.1506 H         1 UNK         0.0000 
     34 H34        -1.6146   52.9607   26.4035 H         1 UNK         0.0000 
     35 H35        -1.2248   50.8965   22.6382 H         1 UNK         0.0000 
     36 H36        -3.6645   50.8836   22.4126 H         1 UNK         0.0000 
     37 H37         0.9678   49.8446   24.7354 H         1 UNK         0.0000 
     38 H38         2.3391   52.6743   21.0502 H         1 UNK         0.0000 
     39 H39         3.8381   52.6696   19.6827 H         1 UNK         0.0000 
     40 H40         5.3460   53.4282   17.9143 H         1 UNK         0.0000 
     41 H41         5.8196   55.2966   22.5153 H         1 UNK         0.0000 
     42 H42         8.5200   56.9754   18.8721 H         1 UNK         0.0000 
     43 H43         9.1030   55.4074   19.4590 H         1 UNK         0.0000 
     44 H44        -0.4524   50.5504   26.9509 H         1 UNK         0.0000 
     45 H45         0.1808   50.8973   29.2819 H         1 UNK         0.0000 
     46 H46         1.8771   52.5892   29.8839 H         1 UNK         0.0000 
     47 H47         2.9417   53.9585   28.1188 H         1 UNK         0.0000 
     48 H48         2.3077   53.6741   25.7938 H         1 UNK         0.0000 
@<TRIPOS>BOND
     1    1    6 ar   
     2    1    2 ar   
     3    1   32 1    
     4    2    3 ar   
     5    2   33 1    
     6    3    4 ar   
     7    3   34 1    
     8    4    5 ar   
     9    4    7 1    
    10    5    6 ar   
    11    5   35 1    
    12    6   36 1    
    13    7   13 1    
    14    7    8 1    
    15    7   26 1    
    16    8    9 2    
    17    8   10 am   BACKBONE|DICT|INTERRES
    18   10   11 am   BACKBONE|DICT|INTERRES
    19   10   14 1    
    20   11   12 2    
    21   11   13 am   BACKBONE|DICT|INTERRES
    22   13   37 1    
    23   14   15 am   BACKBONE|DICT|INTERRES
    24   14   38 1    
    25   15   16 2    
    26   15   17 1    
    27   17   22 ar   
    28   17   18 ar   
    29   18   19 ar   
    30   18   39 1    
    31   19   20 ar   
    32   19   40 1    
    33   20   25 1    
    34   20   21 ar   
    35   21   22 ar   
    36   21   23 1    
    37   22   41 1    
    38   23   24 1    
    39   24   25 1    
    40   24   42 1    
    41   24   43 1    
    42   26   31 ar   
    43   26   27 ar   
    44   27   28 ar   
    45   27   44 1    
    46   28   29 ar   
    47   28   45 1    
    48   29   30 ar   
    49   29   46 1    
    50   30   31 ar   
    51   30   47 1    
    52   31   48 1    
@<TRIPOS>SUBSTRUCTURE
     1 UNK         1 GROUP             0       ****    0 ROOT    
