@<TRIPOS>MOLECULE
ZINC58836599_453
48   51    1
SMALL
USER_CHARGES


@<TRIPOS>ATOM
      1 C1         -3.2573   46.1497   20.8871 C.ar      1 UNK         0.0000 
      2 C2         -2.2005   46.9310   20.4434 C.ar      1 UNK         0.0000 
      3 C3         -1.4374   47.6657   21.3449 C.ar      1 UNK         0.0000 
      4 C4         -1.7118   47.6434   22.7491 C.ar      1 UNK         0.0000 
      5 C5         -2.7924   46.8083   23.1882 C.ar      1 UNK         0.0000 
      6 C6         -3.5583   46.0813   22.2417 C.ar      1 UNK         0.0000 
      7 C7         -3.0849   46.7131   24.5645 C.ar      1 UNK         0.0000 
      8 C8         -2.3201   47.4010   25.4906 C.ar      1 UNK         0.0000 
      9 C9         -1.2805   48.2295   25.0900 C.ar      1 UNK         0.0000 
     10 C10        -0.9554   48.3923   23.7292 C.ar      1 UNK         0.0000 
     11 C11         0.1358   49.3255   23.3882 C.2       1 UNK         0.0000 
     12 N12         0.1043   50.1465   22.4006 N.2       1 UNK         0.0000 
     13 N13         1.2499   50.9067   22.1860 N.am      1 UNK         0.0000 
     14 C14         1.1700   52.1836   22.7204 C.2       1 UNK         0.0000 
     15 O15         0.1759   52.6617   23.2811 O.2       1 UNK         0.0000 
     16 C16         2.4624   53.0233   22.6826 C.3       1 UNK         0.0000 
     17 C17         3.1576   52.9695   21.3094 C.3       1 UNK         0.0000 
     18 H18         2.4995   53.2967   20.5022 H         1 UNK         0.0000 
     19 S19         3.7208   51.2972   20.9584 S.3       1 UNK         0.0000 
     20 C20         2.2618   50.3424   21.4117 C.2       1 UNK         0.0000 
     21 N21         2.3044   49.1517   20.9756 N.2       1 UNK         0.0000 
     22 C22         4.4383   53.8346   21.2839 C.2       1 UNK         0.0000 
     23 O23         5.1429   53.9185   22.2923 O.2       1 UNK         0.0000 
     24 N24         4.7042   54.4522   20.1114 N.am      1 UNK         0.0000 
     25 C25         5.8094   55.2389   19.7348 C.ar      1 UNK         0.0000 
     26 C26         6.9977   55.3517   20.4746 C.ar      1 UNK         0.0000 
     27 C27         8.0611   56.0965   19.9737 C.ar      1 UNK         0.0000 
     28 C28         7.9332   56.7563   18.7547 C.ar      1 UNK         0.0000 
     29 C29         6.7502   56.6711   18.0258 C.ar      1 UNK         0.0000 
     30 C30         5.6934   55.9056   18.5118 C.ar      1 UNK         0.0000 
     31 Br31        9.3877   57.7828   18.0817 Br        1 UNK         0.0000 
     32 O32        -0.5996   48.8951   26.0817 O.3       1 UNK         0.0000 
     33 H33        -3.8469   45.5919   20.1741 H         1 UNK         0.0000 
     34 H34        -1.9695   46.9721   19.3888 H         1 UNK         0.0000 
     35 H35        -0.6181   48.2480   20.9535 H         1 UNK         0.0000 
     36 H36        -4.3833   45.4691   22.5773 H         1 UNK         0.0000 
     37 H37        -3.9065   46.0967   24.9000 H         1 UNK         0.0000 
     38 H38        -2.5503   47.3004   26.5417 H         1 UNK         0.0000 
     39 H39         0.9941   49.2717   24.0563 H         1 UNK         0.0000 
     40 H40         3.1044   52.6636   23.4862 H         1 UNK         0.0000 
     41 H41         2.1987   54.0545   22.9274 H         1 UNK         0.0000 
     42 H42         3.1521   48.9602   20.4556 H         1 UNK         0.0000 
     43 H43         4.0130   54.3348   19.3859 H         1 UNK         0.0000 
     44 H44         7.1365   54.8573   21.4221 H         1 UNK         0.0000 
     45 H45         8.9866   56.1590   20.5290 H         1 UNK         0.0000 
     46 H46         6.6566   57.1876   17.0815 H         1 UNK         0.0000 
     47 H47         4.7878   55.8336   17.9263 H         1 UNK         0.0000 
     48 H48        -0.8956   48.6439   26.9854 H         1 UNK         0.0000 
@<TRIPOS>BOND
     1    1    6 ar   
     2    1    2 ar   
     3    1   33 1    
     4    2    3 ar   
     5    2   34 1    
     6    3    4 ar   
     7    3   35 1    
     8    4   10 ar   
     9    4    5 ar   
    10    5    6 ar   
    11    5    7 ar   
    12    6   36 1    
    13    7    8 ar   
    14    7   37 1    
    15    8    9 ar   
    16    8   38 1    
    17    9   10 ar   
    18    9   32 1    
    19   10   11 1    
    20   11   12 2    
    21   11   39 1    
    22   12   13 1    
    23   13   20 am   BACKBONE|DICT|INTERRES
    24   13   14 am   BACKBONE|DICT|INTERRES
    25   14   15 2    
    26   14   16 1    
    27   16   17 1    
    28   16   40 1    
    29   16   41 1    
    30   17   18 1    
    31   17   19 1    
    32   17   22 1    
    33   19   20 1    
    34   20   21 2    
    35   21   42 1    
    36   22   23 2    
    37   22   24 am   BACKBONE|DICT|INTERRES
    38   24   25 1    
    39   24   43 1    
    40   25   30 ar   
    41   25   26 ar   
    42   26   27 ar   
    43   26   44 1    
    44   27   28 ar   
    45   27   45 1    
    46   28   29 ar   
    47   28   31 1    
    48   29   30 ar   
    49   29   46 1    
    50   30   47 1    
    51   32   48 1    
@<TRIPOS>SUBSTRUCTURE
     1 UNK         1 GROUP             0       ****    0 ROOT    
