@<TRIPOS>MOLECULE
ZINC27739356_4033
68   72    1
SMALL
USER_CHARGES


@<TRIPOS>ATOM
      1 C1          0.7525   52.9219   31.2788 C.3       1 UNK         0.0000 
      2 C2          0.3417   52.5149   29.8695 C.ar      1 UNK         0.0000 
      3 C3         -0.7869   51.6968   29.7169 C.ar      1 UNK         0.0000 
      4 C4         -1.2330   51.3310   28.4496 C.ar      1 UNK         0.0000 
      5 C5         -0.5504   51.7748   27.3221 C.ar      1 UNK         0.0000 
      6 C6          0.5729   52.5845   27.4660 C.ar      1 UNK         0.0000 
      7 C7          1.0314   52.9826   28.7326 C.ar      1 UNK         0.0000 
      8 N8          2.2129   53.7174   28.8396 N.pl3     1 UNK         0.0000 
      9 C9          3.4570   52.9527   29.0391 C.3       1 UNK         0.0000 
     10 C10         4.7738   53.6475   28.5956 C.3       1 UNK         0.0000 
     11 N11         4.6171   54.0444   27.1796 N.am      1 UNK         0.0000 
     12 C12         3.3276   54.6387   26.7651 C.3       1 UNK         0.0000 
     13 C13         2.4248   54.9000   27.9949 C.3       1 UNK         0.0000 
     14 C14         5.7428   54.2206   26.4290 C.2       1 UNK         0.0000 
     15 O15         6.8695   54.1631   26.9311 O.2       1 UNK         0.0000 
     16 C16         5.6528   54.4653   24.9270 C.ar      1 UNK         0.0000 
     17 C17         6.6846   55.1616   24.2913 C.ar      1 UNK         0.0000 
     18 C18         6.7049   55.2965   22.9100 C.ar      1 UNK         0.0000 
     19 C19         5.6996   54.7384   22.1183 C.ar      1 UNK         0.0000 
     20 C20         4.6619   54.0421   22.7353 C.ar      1 UNK         0.0000 
     21 C21         4.6391   53.9138   24.1243 C.ar      1 UNK         0.0000 
     22 N22         5.7188   54.8011   20.7148 N.am      1 UNK         0.0000 
     23 C23         6.2489   55.7713   19.9402 C.2       1 UNK         0.0000 
     24 O24         6.7054   56.8289   20.3813 O.2       1 UNK         0.0000 
     25 C25         6.3130   55.4739   18.4219 C.3       1 UNK         0.0000 
     26 H26         7.0967   54.7124   18.4267 H         1 UNK         0.0000 
     27 C27         6.8151   56.6177   17.5490 C.3       1 UNK         0.0000 
     28 C28         6.2405   56.2134   16.2001 C.2       1 UNK         0.0000 
     29 O29         6.5565   56.6365   15.0918 O.2       1 UNK         0.0000 
     30 O30         5.2935   55.2579   16.3540 O.3       1 UNK         0.0000 
     31 C31         5.0597   54.9010   17.7205 C.3       1 UNK         0.0000 
     32 C32         3.7156   55.5537   18.1540 C.3       1 UNK         0.0000 
     33 C33         2.5318   55.0883   17.2802 C.3       1 UNK         0.0000 
     34 C34         2.4084   53.5481   17.2872 C.3       1 UNK         0.0000 
     35 C35         3.7359   52.8415   16.9262 C.3       1 UNK         0.0000 
     36 C36         4.9098   53.3552   17.7945 C.3       1 UNK         0.0000 
     37 Cl37       -1.0835   51.3157   25.7457 Cl        1 UNK         0.0000 
     38 H38        -0.0941   52.8965   31.9694 H         1 UNK         0.0000 
     39 H39         1.5451   52.2785   31.6571 H         1 UNK         0.0000 
     40 H40         1.1059   53.9537   31.2889 H         1 UNK         0.0000 
     41 H41        -1.3066   51.3239   30.5892 H         1 UNK         0.0000 
     42 H42        -2.0918   50.6840   28.3467 H         1 UNK         0.0000 
     43 H43         1.0912   52.8890   26.5725 H         1 UNK         0.0000 
     44 H44         3.5432   52.6863   30.0919 H         1 UNK         0.0000 
     45 H45         3.3654   52.0334   28.4585 H         1 UNK         0.0000 
     46 H46         5.5721   52.9138   28.7339 H         1 UNK         0.0000 
     47 H47         4.9169   54.5200   29.2338 H         1 UNK         0.0000 
     48 H48         3.5050   55.5748   26.2283 H         1 UNK         0.0000 
     49 H49         2.7987   53.9724   26.0924 H         1 UNK         0.0000 
     50 H50         2.8977   55.6470   28.6328 H         1 UNK         0.0000 
     51 H51         1.4627   55.3078   27.6812 H         1 UNK         0.0000 
     52 H52         7.5036   55.5783   24.8577 H         1 UNK         0.0000 
     53 H53         7.5448   55.8107   22.4652 H         1 UNK         0.0000 
     54 H54         3.8811   53.5827   22.1444 H         1 UNK         0.0000 
     55 H55         3.8644   53.2981   24.5499 H         1 UNK         0.0000 
     56 H56         5.2196   54.0644   20.2441 H         1 UNK         0.0000 
     57 H57         6.3904   57.5789   17.8407 H         1 UNK         0.0000 
     58 H58         7.9027   56.6855   17.5168 H         1 UNK         0.0000 
     59 H59         3.7942   56.6427   18.1101 H         1 UNK         0.0000 
     60 H60         3.5080   55.3023   19.1936 H         1 UNK         0.0000 
     61 H61         2.6591   55.4456   16.2571 H         1 UNK         0.0000 
     62 H62         1.6038   55.5360   17.6399 H         1 UNK         0.0000 
     63 H63         1.6233   53.2342   16.5965 H         1 UNK         0.0000 
     64 H64         2.0872   53.2200   18.2785 H         1 UNK         0.0000 
     65 H65         3.9580   52.9969   15.8693 H         1 UNK         0.0000 
     66 H66         3.6221   51.7621   17.0522 H         1 UNK         0.0000 
     67 H67         4.7658   53.0252   18.8241 H         1 UNK         0.0000 
     68 H68         5.8325   52.8687   17.4680 H         1 UNK         0.0000 
@<TRIPOS>BOND
     1    1    2 1    
     2    1   38 1    
     3    1   39 1    
     4    1   40 1    
     5    2    7 ar   
     6    2    3 ar   
     7    3    4 ar   
     8    3   41 1    
     9    4    5 ar   
    10    4   42 1    
    11    5    6 ar   
    12    5   37 1    
    13    6    7 ar   
    14    6   43 1    
    15    7    8 1    
    16    8   13 1    
    17    8    9 1    
    18    9   10 1    
    19    9   44 1    
    20    9   45 1    
    21   10   11 1    
    22   10   46 1    
    23   10   47 1    
    24   11   12 1    
    25   11   14 am   BACKBONE|DICT|INTERRES
    26   12   13 1    
    27   12   48 1    
    28   12   49 1    
    29   13   50 1    
    30   13   51 1    
    31   14   15 2    
    32   14   16 1    
    33   16   21 ar   
    34   16   17 ar   
    35   17   18 ar   
    36   17   52 1    
    37   18   19 ar   
    38   18   53 1    
    39   19   20 ar   
    40   19   22 1    
    41   20   21 ar   
    42   20   54 1    
    43   21   55 1    
    44   22   23 am   BACKBONE|DICT|INTERRES
    45   22   56 1    
    46   23   24 2    
    47   23   25 1    
    48   25   26 1    
    49   25   31 1    
    50   25   27 1    
    51   27   28 1    
    52   27   57 1    
    53   27   58 1    
    54   28   29 2    
    55   28   30 1    
    56   30   31 1    
    57   31   36 1    
    58   31   32 1    
    59   32   33 1    
    60   32   59 1    
    61   32   60 1    
    62   33   34 1    
    63   33   61 1    
    64   33   62 1    
    65   34   35 1    
    66   34   63 1    
    67   34   64 1    
    68   35   36 1    
    69   35   65 1    
    70   35   66 1    
    71   36   67 1    
    72   36   68 1    
@<TRIPOS>SUBSTRUCTURE
     1 UNK         1 GROUP             0       ****    0 ROOT    
