@<TRIPOS>MOLECULE
ZINC20467674_2616
31   32    1
SMALL
USER_CHARGES


@<TRIPOS>ATOM
      1 C1          1.5070   53.2958   26.3505 C.ar      1 UNK         0.0000 
      2 C2          1.2193   53.3628   27.7090 C.ar      1 UNK         0.0000 
      3 C3          0.4932   52.3385   28.3228 C.ar      1 UNK         0.0000 
      4 C4          0.0353   51.2838   27.5400 C.ar      1 UNK         0.0000 
      5 C5          0.3520   51.2127   26.1839 C.ar      1 UNK         0.0000 
      6 C6          1.1040   52.2125   25.5577 C.ar      1 UNK         0.0000 
      7 N7          1.4323   52.0395   24.2321 N.2       1 UNK         0.0000 
      8 S8          1.5658   53.2022   23.1869 S.o2      1 UNK         0.0000 
      9 O9          1.1060   52.7993   21.8536 O.2       1 UNK         0.0000 
     10 O10         1.1043   54.4967   23.6814 O.2       1 UNK         0.0000 
     11 C11         3.3555   53.4074   23.0695 C.ar      1 UNK         0.0000 
     12 C12         4.0125   54.2278   23.9978 C.ar      1 UNK         0.0000 
     13 C13         5.3983   54.3567   23.9729 C.ar      1 UNK         0.0000 
     14 C14         6.1027   53.6969   22.9765 C.ar      1 UNK         0.0000 
     15 N15         5.4930   52.9304   22.0408 N.ar      1 UNK         0.0000 
     16 C16         4.1450   52.7955   22.0817 C.ar      1 UNK         0.0000 
     17 N17         3.6049   51.9906   21.0875 N.pl3     1 UNK         0.0000 
     18 Br18        6.3074   55.3937   25.2807 Br        1 UNK         0.0000 
     19 O19         0.1978   52.2982   29.6718 O.3       1 UNK         0.0000 
     20 C20         0.9861   53.0579   30.5889 C.3       1 UNK         0.0000 
     21 F21         2.2950   52.8590   30.4089 F         1 UNK         0.0000 
     22 F22         0.7045   52.6479   31.8208 F         1 UNK         0.0000 
     23 F23         0.6978   54.3589   30.5132 F         1 UNK         0.0000 
     24 H24         2.0642   54.1055   25.9350 H         1 UNK         0.0000 
     25 H25         1.5764   54.2149   28.2656 H         1 UNK         0.0000 
     26 H26        -0.5455   50.4966   27.9961 H         1 UNK         0.0000 
     27 H27         0.0154   50.3578   25.6154 H         1 UNK         0.0000 
     28 H28         3.4696   54.7917   24.7333 H         1 UNK         0.0000 
     29 H29         7.1791   53.7735   22.9213 H         1 UNK         0.0000 
     30 H30         2.5897   51.9883   21.0195 H         1 UNK         0.0000 
     31 H31         4.1881   51.6940   20.3174 H         1 UNK         0.0000 
@<TRIPOS>BOND
     1    1    6 ar   
     2    1    2 ar   
     3    1   24 1    
     4    2    3 ar   
     5    2   25 1    
     6    3    4 ar   
     7    3   19 1    
     8    4    5 ar   
     9    4   26 1    
    10    5    6 ar   
    11    5   27 1    
    12    6    7 1    
    13    7    8 1    
    14    8    9 2    
    15    8   10 2    
    16    8   11 1    
    17   11   16 ar   
    18   11   12 ar   
    19   12   13 ar   
    20   12   28 1    
    21   13   14 ar   
    22   13   18 1    
    23   14   15 ar   
    24   14   29 1    
    25   15   16 ar   
    26   16   17 1    
    27   17   30 1    
    28   17   31 1    
    29   19   20 1    
    30   20   21 1    
    31   20   22 1    
    32   20   23 1    
@<TRIPOS>SUBSTRUCTURE
     1 UNK         1 GROUP             0       ****    0 ROOT    
