ZINC40369114_1840
                    3D
 Schrodinger Suite 2024-2.
 32 33  0  0  1  0            999 V2000
   -0.6173   51.7002   26.3413 C   0  0  0  0  0  0
   -0.6758   52.0093   27.6971 C   0  0  0  0  0  0
    0.3467   52.7336   28.3455 C   0  0  0  0  0  0
    1.4569   53.1062   27.5539 C   0  0  0  0  0  0
    1.5029   52.8497   26.1789 C   0  0  0  0  0  0
    0.4648   52.1262   25.5809 C   0  0  0  0  0  0
    2.6157   53.2977   25.4426 N   0  0  0  0  0  0
    2.5831   53.8048   24.1877 C   0  0  0  0  0  0
    1.5360   54.0229   23.5699 O   0  0  0  0  0  0
    3.9160   54.0968   23.5329 C   0  0  0  0  0  0
    5.0710   54.3863   24.2809 C   0  0  0  0  0  0
    6.2638   54.7190   23.6358 C   0  0  0  0  0  0
    6.3042   54.7767   22.2459 C   0  0  0  0  0  0
    5.1788   54.4596   21.4928 C   0  0  0  0  0  0
    3.9919   54.1163   22.1321 C   0  0  0  0  0  0
    7.9048   55.2986   21.3576 Br  0  0  0  0  0  0
    0.2510   53.0516   29.8148 C   0  0  0  0  0  0
    0.7561   54.0609   30.4207 N   0  0  0  0  0  0
    1.2704   55.1024   29.6192 O   0  0  0  0  0  0
   -0.4850   52.0966   30.4816 N   0  0  0  0  0  0
   -1.4123   51.1334   25.8819 H   0  0  0  0  0  0
   -1.5493   51.6702   28.2356 H   0  0  0  0  0  0
    2.3085   53.5990   28.0000 H   0  0  0  0  0  0
    0.4912   51.8788   24.5293 H   0  0  0  0  0  0
    3.5098   53.2401   25.9036 H   0  0  0  0  0  0
    5.0549   54.3836   25.3616 H   0  0  0  0  0  0
    7.1478   54.9580   24.2085 H   0  0  0  0  0  0
    5.2168   54.4955   20.4131 H   0  0  0  0  0  0
    3.1229   53.9012   21.5257 H   0  0  0  0  0  0
    1.0346   54.8256   28.7308 H   0  0  0  0  0  0
   -0.6774   52.1672   31.4796 H   0  0  0  0  0  0
   -0.7975   51.2590   30.0110 H   0  0  0  0  0  0
  1  6  2  0  0  0
  1  2  1  0  0  0
  1 21  1  0  0  0
  2  3  2  0  0  0
  2 22  1  0  0  0
  3  4  1  0  0  0
  3 17  1  0  0  0
  4  5  2  0  0  0
  4 23  1  0  0  0
  5  6  1  0  0  0
  5  7  1  0  0  0
  6 24  1  0  0  0
  7  8  1  0  0  0
  7 25  1  0  0  0
  8  9  2  0  0  0
  8 10  1  0  0  0
 10 15  2  0  0  0
 10 11  1  0  0  0
 11 12  2  0  0  0
 11 26  1  0  0  0
 12 13  1  0  0  0
 12 27  1  0  0  0
 13 14  2  0  0  0
 13 16  1  0  0  0
 14 15  1  0  0  0
 14 28  1  0  0  0
 15 29  1  0  0  0
 17 18  2  0  0  0
 17 20  1  0  0  0
 18 19  1  0  0  0
 19 30  1  0  0  0
 20 31  1  0  0  0
 20 32  1  0  0  0
M  END
> <i_i_glide_confnum>
32

> <i_i_glide_lignum>
1841

> <i_i_glide_posenum>
306

> <i_i_glide_rotatable_bonds>
5

> <i_m_Source_File_Index>
5181

> <b_m_subgroup_collapsed>
0

> <r_i_docking_score>
-5.40332

> <r_i_glide_ecoul>
-5.34916

> <r_i_glide_eff_state_penalty>
0

> <r_i_glide_einternal>
4.42425

> <r_i_glide_emodel>
-52.0607

> <r_i_glide_energy>
-40.5255

> <r_i_glide_erotb>
0.844332

> <r_i_glide_esite>
-0.1

> <r_i_glide_evdw>
-35.1763

> <r_i_glide_gscore>
-5.40332

> <r_i_glide_hbond>
-0.16

> <r_i_glide_ligand_efficiency>
-0.270166

> <r_i_glide_ligand_efficiency_ln>
-1.35227

> <r_i_glide_ligand_efficiency_sa>
-0.733343

> <r_i_glide_lipo>
-1.92276

> <r_i_glide_metal>
0

> <r_i_glide_rewards>
-1.5037

> <s_i_glide_gridfile>
wee1_glide-grid

> <s_m_Source_File>
wee1_decoys_glide_SP.sdf

> <s_m_Source_Path>
/Users/zhangxujun/Desktop

> <s_m_entry_id>
5456

> <s_m_entry_name>
wee1_decoys_glide_SP.5181

> <s_m_subgroup_title>
wee1_decoys_glide_SP

> <s_m_subgroupid>
wee1_decoys_glide_SP


$$$$
