@<TRIPOS>MOLECULE
ZINC22790608_4882
70   72    1
SMALL
USER_CHARGES


@<TRIPOS>ATOM
      1 C1         -1.2474   49.3097   25.0845 C.3       1 UNK         0.0000 
      2 C2          0.1435   49.9629   24.9932 C.3       1 UNK         0.0000 
      3 H3          0.8758   49.2980   25.4580 H         1 UNK         0.0000 
      4 C4          0.0715   51.2807   25.8216 C.2       1 UNK         0.0000 
      5 O5         -0.4202   52.3048   25.3353 O.2       1 UNK         0.0000 
      6 N6          0.5582   51.2044   27.0803 N.am      1 UNK         0.0000 
      7 C7          0.7298   52.2707   27.9805 C.ar      1 UNK         0.0000 
      8 C8          0.1803   52.0966   29.2558 C.ar      1 UNK         0.0000 
      9 C9          0.3038   53.0887   30.2267 C.ar      1 UNK         0.0000 
     10 C10         0.9844   54.2688   29.9315 C.ar      1 UNK         0.0000 
     11 C11         1.5604   54.4462   28.6739 C.ar      1 UNK         0.0000 
     12 C12         1.4662   53.4451   27.6995 C.ar      1 UNK         0.0000 
     13 S13         2.3049   53.6965   26.1463 S.3       1 UNK         0.0000 
     14 C14         4.0124   53.9495   26.5403 C.ar      1 UNK         0.0000 
     15 C15         4.8194   54.5666   25.5843 C.ar      1 UNK         0.0000 
     16 C16         6.1713   54.7705   25.8422 C.ar      1 UNK         0.0000 
     17 C17         6.7070   54.3474   27.0565 C.ar      1 UNK         0.0000 
     18 C18         5.9110   53.7123   28.0054 C.ar      1 UNK         0.0000 
     19 C19         4.5589   53.5140   27.7510 C.ar      1 UNK         0.0000 
     20 N20         0.5851   50.1998   23.5850 N.3       1 UNK         0.0000 
     21 C21         0.3428   49.0609   22.6907 C.3       1 UNK         0.0000 
     22 C22         1.1660   48.8957   21.3984 C.3       1 UNK         0.0000 
     23 C23         1.2346   50.1017   20.4600 C.3       1 UNK         0.0000 
     24 N24         2.3115   51.1321   20.8732 N.4       1 UNK         0.0000 
     25 C25         2.0391   51.8038   22.2471 C.3       1 UNK         0.0000 
     26 C26         1.9035   50.8428   23.4479 C.3       1 UNK         0.0000 
     27 C27         2.4903   52.1782   19.7332 C.3       1 UNK         0.0000 
     28 C28         3.8863   52.8254   19.7108 C.2       1 UNK         0.0000 
     29 O29         4.7203   52.5848   20.5863 O.2       1 UNK         0.0000 
     30 N30         4.1130   53.6223   18.6466 N.am      1 UNK         0.0000 
     31 C31         5.3588   54.2778   18.2299 C.3       1 UNK         0.0000 
     32 C32         5.8211   55.3342   19.2568 C.3       1 UNK         0.0000 
     33 C33         5.0723   54.9976   16.8962 C.3       1 UNK         0.0000 
     34 C34         6.4727   53.2368   17.9788 C.3       1 UNK         0.0000 
     35 H35        -1.5941   49.2614   26.1192 H         1 UNK         0.0000 
     36 H36        -1.9748   49.8775   24.5011 H         1 UNK         0.0000 
     37 H37        -1.2146   48.2843   24.7161 H         1 UNK         0.0000 
     38 H38         0.6095   50.2797   27.4837 H         1 UNK         0.0000 
     39 H39        -0.3671   51.1958   29.5001 H         1 UNK         0.0000 
     40 H40        -0.1401   52.9445   31.2020 H         1 UNK         0.0000 
     41 H41         1.0692   55.0439   30.6790 H         1 UNK         0.0000 
     42 H42         2.1010   55.3568   28.4627 H         1 UNK         0.0000 
     43 H43         4.3982   54.8876   24.6412 H         1 UNK         0.0000 
     44 H44         6.7984   55.2440   25.1019 H         1 UNK         0.0000 
     45 H45         7.7536   54.4947   27.2693 H         1 UNK         0.0000 
     46 H46         6.3511   53.3710   28.9277 H         1 UNK         0.0000 
     47 H47         3.9564   53.0016   28.4844 H         1 UNK         0.0000 
     48 H48         0.6590   48.1997   23.2829 H         1 UNK         0.0000 
     49 H49        -0.7246   48.9187   22.5185 H         1 UNK         0.0000 
     50 H50         0.6902   48.0966   20.8319 H         1 UNK         0.0000 
     51 H51         2.1589   48.5002   21.6220 H         1 UNK         0.0000 
     52 H52         0.2856   50.6340   20.3674 H         1 UNK         0.0000 
     53 H53         1.5490   49.7503   19.4727 H         1 UNK         0.0000 
     54 H54         2.8842   52.4732   22.4192 H         1 UNK         0.0000 
     55 H55         1.1622   52.4462   22.1472 H         1 UNK         0.0000 
     56 H56         2.6747   50.0731   23.3714 H         1 UNK         0.0000 
     57 H57         2.1994   51.3957   24.3375 H         1 UNK         0.0000 
     58 H58         1.6840   52.8996   19.8479 H         1 UNK         0.0000 
     59 H59         2.3278   51.6677   18.7827 H         1 UNK         0.0000 
     60 H60         3.3442   53.7584   18.0100 H         1 UNK         0.0000 
     61 H61         6.7751   55.7769   18.9676 H         1 UNK         0.0000 
     62 H62         5.9481   54.9134   20.2548 H         1 UNK         0.0000 
     63 H63         5.1024   56.1512   19.3184 H         1 UNK         0.0000 
     64 H64         4.7588   54.2993   16.1185 H         1 UNK         0.0000 
     65 H65         4.2834   55.7444   17.0032 H         1 UNK         0.0000 
     66 H66         5.9585   55.5160   16.5257 H         1 UNK         0.0000 
     67 H67         6.1722   52.4974   17.2337 H         1 UNK         0.0000 
     68 H68         7.3952   53.7003   17.6303 H         1 UNK         0.0000 
     69 H69         6.7039   52.6807   18.8815 H         1 UNK         0.0000 
     70 H70         3.1920   50.6339   20.9359 H         1 UNK         0.0000 
@<TRIPOS>BOND
     1    1    2 1    
     2    1   35 1    
     3    1   36 1    
     4    1   37 1    
     5    2    3 1    
     6    2    4 1    
     7    2   20 1    
     8    4    5 2    
     9    4    6 am   BACKBONE|DICT|INTERRES
    10    6    7 1    
    11    6   38 1    
    12    7   12 ar   
    13    7    8 ar   
    14    8    9 ar   
    15    8   39 1    
    16    9   10 ar   
    17    9   40 1    
    18   10   11 ar   
    19   10   41 1    
    20   11   12 ar   
    21   11   42 1    
    22   12   13 1    
    23   13   14 1    
    24   14   19 ar   
    25   14   15 ar   
    26   15   16 ar   
    27   15   43 1    
    28   16   17 ar   
    29   16   44 1    
    30   17   18 ar   
    31   17   45 1    
    32   18   19 ar   
    33   18   46 1    
    34   19   47 1    
    35   20   26 1    
    36   20   21 1    
    37   21   22 1    
    38   21   48 1    
    39   21   49 1    
    40   22   23 1    
    41   22   50 1    
    42   22   51 1    
    43   23   24 1    
    44   23   52 1    
    45   23   53 1    
    46   24   25 1    
    47   24   27 1    
    48   24   70 1    
    49   25   26 1    
    50   25   54 1    
    51   25   55 1    
    52   26   56 1    
    53   26   57 1    
    54   27   28 1    
    55   27   58 1    
    56   27   59 1    
    57   28   29 2    
    58   28   30 am   BACKBONE|DICT|INTERRES
    59   30   31 1    
    60   30   60 1    
    61   31   32 1    
    62   31   33 1    
    63   31   34 1    
    64   32   61 1    
    65   32   62 1    
    66   32   63 1    
    67   33   64 1    
    68   33   65 1    
    69   33   66 1    
    70   34   67 1    
    71   34   68 1    
    72   34   69 1    
@<TRIPOS>SUBSTRUCTURE
     1 UNK         1 GROUP             0       ****    0 ROOT    
