@<TRIPOS>MOLECULE
ZINC39653014_5537
70   73    1
SMALL
USER_CHARGES


@<TRIPOS>ATOM
      1 C1          6.3611   55.7373   19.0175 C.3       1 UNK         0.0000 
      2 O2          6.9502   55.7932   20.3145 O.3       1 UNK         0.0000 
      3 C3          6.2945   55.1914   21.3702 C.ar      1 UNK         0.0000 
      4 C4          5.0795   54.4979   21.2612 C.ar      1 UNK         0.0000 
      5 C5          4.4634   53.9531   22.3897 C.ar      1 UNK         0.0000 
      6 C6          5.0759   54.0911   23.6392 C.ar      1 UNK         0.0000 
      7 C7          6.3042   54.7576   23.7698 C.ar      1 UNK         0.0000 
      8 C8          6.8914   55.2974   22.6243 C.ar      1 UNK         0.0000 
      9 O9          6.9738   54.9383   24.9655 O.3       1 UNK         0.0000 
     10 C10         6.4294   54.3855   26.1606 C.3       1 UNK         0.0000 
     11 C11         3.1214   53.2414   22.2621 C.3       1 UNK         0.0000 
     12 C12         3.1601   51.9897   21.3594 C.3       1 UNK         0.0000 
     13 N13         1.9100   51.2276   21.3835 N.am      1 UNK         0.0000 
     14 C14         1.5735   50.3363   22.3328 C.2       1 UNK         0.0000 
     15 O15         2.3044   50.0967   23.2814 O.2       1 UNK         0.0000 
     16 C16         0.2132   49.5980   22.2501 C.3       1 UNK         0.0000 
     17 H17         0.4029   48.5805   22.5862 H         1 UNK         0.0000 
     18 C18        -0.3505   49.5484   20.8166 C.3       1 UNK         0.0000 
     19 N19        -1.1131   50.8007   20.7255 N.am      1 UNK         0.0000 
     20 C20        -1.4293   51.3466   22.0575 C.3       1 UNK         0.0000 
     21 C21        -0.9058   50.3012   23.0761 C.3       1 UNK         0.0000 
     22 C22        -0.5510   50.9373   24.4504 C.3       1 UNK         0.0000 
     23 C23        -0.0356   49.8835   25.4612 C.3       1 UNK         0.0000 
     24 N24        -1.1290   48.8176   25.6810 N.4       1 UNK         0.0000 
     25 C25        -1.6815   48.2027   24.3760 C.3       1 UNK         0.0000 
     26 C26        -2.0874   49.3410   23.4087 C.3       1 UNK         0.0000 
     27 C27        -1.4259   51.4647   19.5831 C.2       1 UNK         0.0000 
     28 O28        -2.0986   52.4965   19.5893 O.2       1 UNK         0.0000 
     29 C29        -0.9446   50.9342   18.2554 C.ar      1 UNK         0.0000 
     30 C30         0.4193   50.7325   18.0056 C.ar      1 UNK         0.0000 
     31 C31         0.8473   50.2735   16.7640 C.ar      1 UNK         0.0000 
     32 C32        -0.0788   50.0381   15.7425 C.ar      1 UNK         0.0000 
     33 C33        -1.4417   50.2554   15.9843 C.ar      1 UNK         0.0000 
     34 C34        -1.8694   50.7047   17.2300 C.ar      1 UNK         0.0000 
     35 C35         0.4029   49.5339   14.3838 C.3       1 UNK         0.0000 
     36 F36         1.3106   48.5671   14.5376 F         1 UNK         0.0000 
     37 F37        -0.5970   49.0445   13.6483 F         1 UNK         0.0000 
     38 F38         0.9626   50.5430   13.7158 F         1 UNK         0.0000 
     39 H39         6.9935   56.2717   18.3082 H         1 UNK         0.0000 
     40 H40         6.2649   54.7083   18.6615 H         1 UNK         0.0000 
     41 H41         5.3773   56.2134   19.0054 H         1 UNK         0.0000 
     42 H42         4.5920   54.4007   20.3024 H         1 UNK         0.0000 
     43 H43         4.5867   53.6750   24.5063 H         1 UNK         0.0000 
     44 H44         7.8313   55.8253   22.7125 H         1 UNK         0.0000 
     45 H45         7.0860   54.6176   26.9991 H         1 UNK         0.0000 
     46 H46         5.4502   54.8110   26.3819 H         1 UNK         0.0000 
     47 H47         6.3445   53.2990   26.0996 H         1 UNK         0.0000 
     48 H48         2.3871   53.9505   21.8797 H         1 UNK         0.0000 
     49 H49         2.7691   52.9612   23.2541 H         1 UNK         0.0000 
     50 H50         3.9907   51.3501   21.6696 H         1 UNK         0.0000 
     51 H51         3.4323   52.2622   20.3378 H         1 UNK         0.0000 
     52 H52         1.2425   51.4276   20.6536 H         1 UNK         0.0000 
     53 H53        -1.0295   48.6989   20.7376 H         1 UNK         0.0000 
     54 H54         0.4501   49.4128   20.0957 H         1 UNK         0.0000 
     55 H55        -0.8345   52.2560   22.1808 H         1 UNK         0.0000 
     56 H56        -2.4682   51.6302   22.2265 H         1 UNK         0.0000 
     57 H57         0.2244   51.6937   24.3243 H         1 UNK         0.0000 
     58 H58        -1.4037   51.4783   24.8652 H         1 UNK         0.0000 
     59 H59         0.8462   49.3384   25.1280 H         1 UNK         0.0000 
     60 H60         0.1682   50.3071   26.4445 H         1 UNK         0.0000 
     61 H61        -0.7814   48.0964   26.3095 H         1 UNK         0.0000 
     62 H62        -0.9049   47.5445   23.9884 H         1 UNK         0.0000 
     63 H63        -2.5344   47.5914   24.6738 H         1 UNK         0.0000 
     64 H64        -2.9343   49.8930   23.8188 H         1 UNK         0.0000 
     65 H65        -2.4760   48.8862   22.4964 H         1 UNK         0.0000 
     66 H66         1.1618   50.9382   18.7621 H         1 UNK         0.0000 
     67 H67         1.9052   50.1123   16.5937 H         1 UNK         0.0000 
     68 H68        -2.1730   50.0844   15.2061 H         1 UNK         0.0000 
     69 H69        -2.9265   50.8770   17.3914 H         1 UNK         0.0000 
     70 H70        -1.8856   49.2367   26.2088 H         1 UNK         0.0000 
@<TRIPOS>BOND
     1    1    2 1    
     2    1   39 1    
     3    1   40 1    
     4    1   41 1    
     5    2    3 1    
     6    3    8 ar   
     7    3    4 ar   
     8    4    5 ar   
     9    4   42 1    
    10    5    6 ar   
    11    5   11 1    
    12    6    7 ar   
    13    6   43 1    
    14    7    8 ar   
    15    7    9 1    
    16    8   44 1    
    17    9   10 1    
    18   10   45 1    
    19   10   46 1    
    20   10   47 1    
    21   11   12 1    
    22   11   48 1    
    23   11   49 1    
    24   12   13 1    
    25   12   50 1    
    26   12   51 1    
    27   13   14 am   BACKBONE|DICT|INTERRES
    28   13   52 1    
    29   14   15 2    
    30   14   16 1    
    31   16   17 1    
    32   16   21 1    
    33   16   18 1    
    34   18   19 1    
    35   18   53 1    
    36   18   54 1    
    37   19   20 1    
    38   19   27 am   BACKBONE|DICT|INTERRES
    39   20   21 1    
    40   20   55 1    
    41   20   56 1    
    42   21   26 1    
    43   21   22 1    
    44   22   23 1    
    45   22   57 1    
    46   22   58 1    
    47   23   24 1    
    48   23   59 1    
    49   23   60 1    
    50   24   25 1    
    51   24   61 1    
    52   24   70 1    
    53   25   26 1    
    54   25   62 1    
    55   25   63 1    
    56   26   64 1    
    57   26   65 1    
    58   27   28 2    
    59   27   29 1    
    60   29   34 ar   
    61   29   30 ar   
    62   30   31 ar   
    63   30   66 1    
    64   31   32 ar   
    65   31   67 1    
    66   32   33 ar   
    67   32   35 1    
    68   33   34 ar   
    69   33   68 1    
    70   34   69 1    
    71   35   36 1    
    72   35   37 1    
    73   35   38 1    
@<TRIPOS>SUBSTRUCTURE
     1 UNK         1 GROUP             0       ****    0 ROOT    
