@<TRIPOS>MOLECULE
ZINC39677001_591
74   77    1
SMALL
USER_CHARGES


@<TRIPOS>ATOM
      1 C1         -5.4162   47.1404   20.6030 C.3       1 UNK         0.0000 
      2 C2         -4.3133   48.1277   20.1878 C.3       1 UNK         0.0000 
      3 C3         -4.6274   49.6076   20.5562 C.3       1 UNK         0.0000 
      4 H4         -4.8821   49.6268   21.6157 H         1 UNK         0.0000 
      5 C5         -5.8531   50.1573   19.7919 C.ar      1 UNK         0.0000 
      6 C6         -5.9259   50.0679   18.3935 C.ar      1 UNK         0.0000 
      7 C7         -7.0241   50.5809   17.7082 C.ar      1 UNK         0.0000 
      8 C8         -8.0567   51.1897   18.4164 C.ar      1 UNK         0.0000 
      9 C9         -7.9973   51.2914   19.8044 C.ar      1 UNK         0.0000 
     10 C10        -6.8991   50.7760   20.4885 C.ar      1 UNK         0.0000 
     11 C11        -3.3707   50.5089   20.3898 C.2       1 UNK         0.0000 
     12 O12        -3.2430   51.1726   19.3569 O.2       1 UNK         0.0000 
     13 N13        -2.4538   50.6033   21.3889 N.am      1 UNK         0.0000 
     14 C14        -1.2056   51.3475   21.2001 C.3       1 UNK         0.0000 
     15 C15        -0.1915   50.4646   21.9457 C.3       1 UNK         0.0000 
     16 H16         0.0694   49.6524   21.2641 H         1 UNK         0.0000 
     17 C17        -0.9878   49.9721   23.1884 C.3       1 UNK         0.0000 
     18 C18        -2.4187   49.7820   22.6120 C.3       1 UNK         0.0000 
     19 C19        -1.0082   51.0363   24.3465 C.3       1 UNK         0.0000 
     20 C20        -1.6909   50.5402   25.6373 C.3       1 UNK         0.0000 
     21 N21        -0.9633   49.2583   26.0816 N.4       1 UNK         0.0000 
     22 C22        -1.0530   48.1494   25.0194 C.3       1 UNK         0.0000 
     23 C23        -0.3634   48.6674   23.7509 C.3       1 UNK         0.0000 
     24 C24         1.1304   51.2208   22.2503 C.2       1 UNK         0.0000 
     25 O25         2.0307   50.6078   22.8211 O.2       1 UNK         0.0000 
     26 N26         1.2798   52.4986   21.8647 N.am      1 UNK         0.0000 
     27 C27         2.4598   53.3045   22.1623 C.3       1 UNK         0.0000 
     28 C28         3.6605   52.9976   21.2441 C.3       1 UNK         0.0000 
     29 C29         4.8710   53.8959   21.5014 C.ar      1 UNK         0.0000 
     30 C30         5.3683   53.9840   22.8072 C.ar      1 UNK         0.0000 
     31 C31         6.4644   54.7896   23.1064 C.ar      1 UNK         0.0000 
     32 C32         7.1043   55.4878   22.0815 C.ar      1 UNK         0.0000 
     33 C33         6.6264   55.4061   20.7747 C.ar      1 UNK         0.0000 
     34 C34         5.5095   54.6177   20.4728 C.ar      1 UNK         0.0000 
     35 C35         5.0285   54.5601   19.0295 C.3       1 UNK         0.0000 
     36 C36         6.9197   54.9295   24.5457 C.3       1 UNK         0.0000 
     37 H37        -5.1446   46.1172   20.3426 H         1 UNK         0.0000 
     38 H38        -5.5923   47.1725   21.6782 H         1 UNK         0.0000 
     39 H39        -6.3607   47.3652   20.1049 H         1 UNK         0.0000 
     40 H40        -4.1335   48.0311   19.1170 H         1 UNK         0.0000 
     41 H41        -3.3799   47.8027   20.6456 H         1 UNK         0.0000 
     42 H42        -5.1232   49.6137   17.8317 H         1 UNK         0.0000 
     43 H43        -7.0698   50.5117   16.6316 H         1 UNK         0.0000 
     44 H44        -8.9073   51.5921   17.8853 H         1 UNK         0.0000 
     45 H45        -8.7976   51.7734   20.3474 H         1 UNK         0.0000 
     46 H46        -6.8619   50.8714   21.5643 H         1 UNK         0.0000 
     47 H47        -0.9051   51.5018   20.1609 H         1 UNK         0.0000 
     48 H48        -1.3140   52.2945   21.7299 H         1 UNK         0.0000 
     49 H49        -3.2048   49.9855   23.3396 H         1 UNK         0.0000 
     50 H50        -2.4838   48.7390   22.3076 H         1 UNK         0.0000 
     51 H51         0.0045   51.3331   24.6232 H         1 UNK         0.0000 
     52 H52        -1.4854   51.9580   24.0118 H         1 UNK         0.0000 
     53 H53        -1.5884   51.2461   26.4631 H         1 UNK         0.0000 
     54 H54        -2.7448   50.2860   25.5178 H         1 UNK         0.0000 
     55 H55         0.0122   49.4665   26.2410 H         1 UNK         0.0000 
     56 H56        -0.5225   47.2965   25.4383 H         1 UNK         0.0000 
     57 H57        -2.1075   47.9017   24.8920 H         1 UNK         0.0000 
     58 H58        -0.3986   47.8922   22.9867 H         1 UNK         0.0000 
     59 H59         0.6991   48.8029   23.9615 H         1 UNK         0.0000 
     60 H60         0.5707   52.9379   21.3001 H         1 UNK         0.0000 
     61 H61         2.2056   54.3617   22.0820 H         1 UNK         0.0000 
     62 H62         2.7345   53.2172   23.2146 H         1 UNK         0.0000 
     63 H63         3.9762   51.9616   21.3771 H         1 UNK         0.0000 
     64 H64         3.3220   53.0663   20.2119 H         1 UNK         0.0000 
     65 H65         4.9010   53.4262   23.6044 H         1 UNK         0.0000 
     66 H66         7.9664   56.0989   22.2991 H         1 UNK         0.0000 
     67 H67         7.1308   55.9549   19.9923 H         1 UNK         0.0000 
     68 H68         5.6528   55.1512   18.3563 H         1 UNK         0.0000 
     69 H69         5.0367   53.5302   18.6696 H         1 UNK         0.0000 
     70 H70         4.0058   54.9312   18.9558 H         1 UNK         0.0000 
     71 H71         7.5039   54.0604   24.8443 H         1 UNK         0.0000 
     72 H72         7.5048   55.8385   24.6922 H         1 UNK         0.0000 
     73 H73         6.0587   54.9985   25.2112 H         1 UNK         0.0000 
     74 H74        -1.2959   48.9062   26.9978 H         1 UNK         0.0000 
@<TRIPOS>BOND
     1    1    2 1    
     2    1   37 1    
     3    1   38 1    
     4    1   39 1    
     5    2    3 1    
     6    2   40 1    
     7    2   41 1    
     8    3    4 1    
     9    3    5 1    
    10    3   11 1    
    11    5   10 ar   
    12    5    6 ar   
    13    6    7 ar   
    14    6   42 1    
    15    7    8 ar   
    16    7   43 1    
    17    8    9 ar   
    18    8   44 1    
    19    9   10 ar   
    20    9   45 1    
    21   10   46 1    
    22   11   12 2    
    23   11   13 am   BACKBONE|DICT|INTERRES
    24   13   18 1    
    25   13   14 1    
    26   14   15 1    
    27   14   47 1    
    28   14   48 1    
    29   15   16 1    
    30   15   17 1    
    31   15   24 1    
    32   17   23 1    
    33   17   18 1    
    34   17   19 1    
    35   18   49 1    
    36   18   50 1    
    37   19   20 1    
    38   19   51 1    
    39   19   52 1    
    40   20   21 1    
    41   20   53 1    
    42   20   54 1    
    43   21   22 1    
    44   21   55 1    
    45   21   74 1    
    46   22   23 1    
    47   22   56 1    
    48   22   57 1    
    49   23   58 1    
    50   23   59 1    
    51   24   25 2    
    52   24   26 am   BACKBONE|DICT|INTERRES
    53   26   27 1    
    54   26   60 1    
    55   27   28 1    
    56   27   61 1    
    57   27   62 1    
    58   28   29 1    
    59   28   63 1    
    60   28   64 1    
    61   29   34 ar   
    62   29   30 ar   
    63   30   31 ar   
    64   30   65 1    
    65   31   32 ar   
    66   31   36 1    
    67   32   33 ar   
    68   32   66 1    
    69   33   34 ar   
    70   33   67 1    
    71   34   35 1    
    72   35   68 1    
    73   35   69 1    
    74   35   70 1    
    75   36   71 1    
    76   36   72 1    
    77   36   73 1    
@<TRIPOS>SUBSTRUCTURE
     1 UNK         1 GROUP             0       ****    0 ROOT    
