@<TRIPOS>MOLECULE
ZINC32692419_2973
53   55    1
SMALL
USER_CHARGES


@<TRIPOS>ATOM
      1 C1          0.5315   51.5021   23.9517 C.3       1 UNK         0.0000 
      2 C2          0.6032   52.8423   24.6976 C.3       1 UNK         0.0000 
      3 O3          1.9520   53.2293   24.9489 O.3       1 UNK         0.0000 
      4 C4          2.7150   53.8205   23.9993 C.2       1 UNK         0.0000 
      5 O5          2.3138   54.0909   22.8660 O.2       1 UNK         0.0000 
      6 C6          4.0973   54.0969   24.4565 C.2       1 UNK         0.0000 
      7 C7          4.5653   54.0997   25.8102 C.2       1 UNK         0.0000 
      8 C8          5.9226   54.4348   25.9199 C.2       1 UNK         0.0000 
      9 S9          6.6624   54.7104   24.3986 S.3       1 UNK         0.0000 
     10 C10         5.1588   54.4076   23.5706 C.2       1 UNK         0.0000 
     11 N11         5.0489   54.4964   22.1765 N.am      1 UNK         0.0000 
     12 C12         5.9459   54.9706   21.2805 C.2       1 UNK         0.0000 
     13 O13         7.0786   55.3679   21.5555 O.2       1 UNK         0.0000 
     14 C14         5.4494   55.0780   19.8342 C.3       1 UNK         0.0000 
     15 S15         6.7234   54.7754   18.5569 S.3       1 UNK         0.0000 
     16 C16         6.0724   53.3115   17.6892 C.3       1 UNK         0.0000 
     17 C17         4.6531   53.4960   17.1351 C.2       1 UNK         0.0000 
     18 O18         4.3700   54.5257   16.5207 O.2       1 UNK         0.0000 
     19 N19         3.7836   52.4967   17.3982 N.am      1 UNK         0.0000 
     20 C20         2.3792   52.5186   17.3006 C.ar      1 UNK         0.0000 
     21 C21         1.6230   53.7013   17.2820 C.ar      1 UNK         0.0000 
     22 C22         0.2332   53.6433   17.2856 C.ar      1 UNK         0.0000 
     23 C23        -0.4067   52.4085   17.3156 C.ar      1 UNK         0.0000 
     24 C24         0.3330   51.2267   17.3177 C.ar      1 UNK         0.0000 
     25 C25         1.7264   51.2835   17.3126 C.ar      1 UNK         0.0000 
     26 Br26       -2.3086   52.3416   17.3859 Br        1 UNK         0.0000 
     27 C27         6.6865   54.6168   27.2179 C.3       1 UNK         0.0000 
     28 C28         5.9579   53.8573   28.3319 C.3       1 UNK         0.0000 
     29 C29         4.4687   54.2251   28.3689 C.3       1 UNK         0.0000 
     30 C30         3.7249   53.8324   27.0729 C.3       1 UNK         0.0000 
     31 H31        -0.5042   51.1923   23.8133 H         1 UNK         0.0000 
     32 H32         0.9908   51.5718   22.9652 H         1 UNK         0.0000 
     33 H33         1.0424   50.7154   24.5080 H         1 UNK         0.0000 
     34 H34         0.1036   52.7398   25.6605 H         1 UNK         0.0000 
     35 H35         0.0701   53.6223   24.1522 H         1 UNK         0.0000 
     36 H36         4.1276   54.2708   21.8226 H         1 UNK         0.0000 
     37 H37         4.5808   54.4376   19.6821 H         1 UNK         0.0000 
     38 H38         5.1048   56.0996   19.6818 H         1 UNK         0.0000 
     39 H39         6.7421   53.0473   16.8722 H         1 UNK         0.0000 
     40 H40         6.0976   52.4967   18.4088 H         1 UNK         0.0000 
     41 H41         4.1975   51.6077   17.6820 H         1 UNK         0.0000 
     42 H42         2.0887   54.6743   17.3106 H         1 UNK         0.0000 
     43 H43        -0.3425   54.5568   17.2940 H         1 UNK         0.0000 
     44 H44        -0.1689   50.2692   17.3387 H         1 UNK         0.0000 
     45 H45         2.2964   50.3641   17.3319 H         1 UNK         0.0000 
     46 H46         6.7232   55.6771   27.4683 H         1 UNK         0.0000 
     47 H47         7.7160   54.2711   27.1373 H         1 UNK         0.0000 
     48 H48         6.4352   54.0954   29.2817 H         1 UNK         0.0000 
     49 H49         6.0696   52.7817   28.1861 H         1 UNK         0.0000 
     50 H50         4.3684   55.2965   28.5377 H         1 UNK         0.0000 
     51 H51         3.9885   53.7464   29.2233 H         1 UNK         0.0000 
     52 H52         3.4720   52.7733   27.1175 H         1 UNK         0.0000 
     53 H53         2.7782   54.3720   27.0404 H         1 UNK         0.0000 
@<TRIPOS>BOND
     1    1    2 1    
     2    1   31 1    
     3    1   32 1    
     4    1   33 1    
     5    2    3 1    
     6    2   34 1    
     7    2   35 1    
     8    3    4 1    
     9    4    5 2    
    10    4    6 1    
    11    6   10 2    
    12    6    7 1    
    13    7   30 1    
    14    7    8 2    
    15    8    9 1    
    16    8   27 1    
    17    9   10 1    
    18   10   11 am   BACKBONE|DICT|INTERRES
    19   11   12 am   BACKBONE|DICT|INTERRES
    20   11   36 1    
    21   12   13 2    
    22   12   14 1    
    23   14   15 1    
    24   14   37 1    
    25   14   38 1    
    26   15   16 1    
    27   16   17 1    
    28   16   39 1    
    29   16   40 1    
    30   17   18 2    
    31   17   19 am   BACKBONE|DICT|INTERRES
    32   19   20 1    
    33   19   41 1    
    34   20   25 ar   
    35   20   21 ar   
    36   21   22 ar   
    37   21   42 1    
    38   22   23 ar   
    39   22   43 1    
    40   23   24 ar   
    41   23   26 1    
    42   24   25 ar   
    43   24   44 1    
    44   25   45 1    
    45   27   28 1    
    46   27   46 1    
    47   27   47 1    
    48   28   29 1    
    49   28   48 1    
    50   28   49 1    
    51   29   30 1    
    52   29   50 1    
    53   29   51 1    
    54   30   52 1    
    55   30   53 1    
@<TRIPOS>SUBSTRUCTURE
     1 UNK         1 GROUP             0       ****    0 ROOT    
