@<TRIPOS>MOLECULE
ZINC12657090_1881
58   61    1
SMALL
USER_CHARGES


@<TRIPOS>ATOM
      1 C1          2.5288   49.6686   19.7560 C.3       1 UNK         0.0000 
      2 C2          1.9386   51.0918   19.5650 C.3       1 UNK         0.0000 
      3 C3          1.5673   51.2284   18.0461 C.3       1 UNK         0.0000 
      4 C4          1.5765   52.6631   17.4825 C.3       1 UNK         0.0000 
      5 C5          2.9166   53.3448   17.7575 C.2       1 UNK         0.0000 
      6 O6          3.4152   54.1566   16.9836 O.2       1 UNK         0.0000 
      7 C7          3.4755   53.0969   19.0729 C.2       1 UNK         0.0000 
      8 C8          3.0627   52.1157   19.9091 C.2       1 UNK         0.0000 
      9 C9          3.6090   52.0276   21.3353 C.3       1 UNK         0.0000 
     10 C10         2.4859   51.7170   22.3540 C.3       1 UNK         0.0000 
     11 C11         1.0707   52.1021   21.8647 C.3       1 UNK         0.0000 
     12 H12         1.1601   53.1559   21.5796 H         1 UNK         0.0000 
     13 C13         0.6921   51.3424   20.5297 C.3       1 UNK         0.0000 
     14 H14         0.0627   52.0734   20.0175 H         1 UNK         0.0000 
     15 C15        -0.2504   50.0971   20.7512 C.3       1 UNK         0.0000 
     16 H16         0.3495   49.2712   21.1272 H         1 UNK         0.0000 
     17 C17        -1.3776   50.3458   21.7779 C.3       1 UNK         0.0000 
     18 C18        -0.8117   50.7395   23.1748 C.3       1 UNK         0.0000 
     19 C19        -0.0809   52.0928   22.9211 C.3       1 UNK         0.0000 
     20 H20        -0.8273   52.7544   22.4753 H         1 UNK         0.0000 
     21 C21         0.1571   52.6704   24.3183 C.3       1 UNK         0.0000 
     22 C22        -1.0004   52.1070   25.1697 C.3       1 UNK         0.0000 
     23 C23        -1.8856   51.2015   24.2585 C.3       1 UNK         0.0000 
     24 C24        -2.6705   50.1067   25.0398 C.2       1 UNK         0.0000 
     25 C25        -2.8267   48.8342   24.6173 C.2       1 UNK         0.0000 
     26 C26        -3.3851   50.5217   26.3357 C.3       1 UNK         0.0000 
     27 O27        -2.4614   50.7326   27.3849 O.3       1 UNK         0.0000 
     28 O28        -2.8711   52.0518   23.6788 O.3       1 UNK         0.0000 
     29 C29         0.1433   49.6351   23.7591 C.3       1 UNK         0.0000 
     30 O30        -0.8167   49.6179   19.5491 O.3       1 UNK         0.0000 
     31 H31         1.8982   48.8938   19.3230 H         1 UNK         0.0000 
     32 H32         3.5044   49.5805   19.2784 H         1 UNK         0.0000 
     33 H33         2.6777   49.4047   20.8017 H         1 UNK         0.0000 
     34 H34         2.2856   50.6587   17.4492 H         1 UNK         0.0000 
     35 H35         0.6062   50.7695   17.8246 H         1 UNK         0.0000 
     36 H36         0.8094   53.2600   17.9748 H         1 UNK         0.0000 
     37 H37         1.3755   52.6887   16.4112 H         1 UNK         0.0000 
     38 H38         4.2521   53.7608   19.4176 H         1 UNK         0.0000 
     39 H39         4.4058   51.2872   21.4046 H         1 UNK         0.0000 
     40 H40         4.0669   52.9836   21.5955 H         1 UNK         0.0000 
     41 H41         2.7053   52.2951   23.2504 H         1 UNK         0.0000 
     42 H42         2.5578   50.6903   22.6920 H         1 UNK         0.0000 
     43 H43        -2.0103   49.4626   21.8435 H         1 UNK         0.0000 
     44 H44        -2.0307   51.1332   21.3974 H         1 UNK         0.0000 
     45 H45         0.2163   53.7596   24.3150 H         1 UNK         0.0000 
     46 H46         1.0878   52.2940   24.7451 H         1 UNK         0.0000 
     47 H47        -1.5720   52.8968   25.6594 H         1 UNK         0.0000 
     48 H48        -0.5511   51.5198   25.9709 H         1 UNK         0.0000 
     49 H49        -2.4168   48.4646   23.6938 H         1 UNK         0.0000 
     50 H50        -3.3948   48.1246   25.2020 H         1 UNK         0.0000 
     51 H51        -4.1343   49.7873   26.6438 H         1 UNK         0.0000 
     52 H52        -3.9154   51.4623   26.1705 H         1 UNK         0.0000 
     53 H53        -2.1130   49.8702   27.6828 H         1 UNK         0.0000 
     54 H54        -3.4230   52.3816   24.3920 H         1 UNK         0.0000 
     55 H55         1.0046   49.4295   23.1383 H         1 UNK         0.0000 
     56 H56         0.5316   49.8940   24.7433 H         1 UNK         0.0000 
     57 H57        -0.3314   48.6647   23.8648 H         1 UNK         0.0000 
     58 H58        -0.1021   49.3764   18.9539 H         1 UNK         0.0000 
@<TRIPOS>BOND
     1    1    2 1    
     2    1   31 1    
     3    1   32 1    
     4    1   33 1    
     5    2    8 1    
     6    2   13 1    
     7    2    3 1    
     8    3    4 1    
     9    3   34 1    
    10    3   35 1    
    11    4    5 1    
    12    4   36 1    
    13    4   37 1    
    14    5    6 2    
    15    5    7 1    
    16    7    8 2    
    17    7   38 1    
    18    8    9 1    
    19    9   10 1    
    20    9   39 1    
    21    9   40 1    
    22   10   11 1    
    23   10   41 1    
    24   10   42 1    
    25   11   12 1    
    26   11   19 1    
    27   11   13 1    
    28   13   14 1    
    29   13   15 1    
    30   15   16 1    
    31   15   17 1    
    32   15   30 1    
    33   17   18 1    
    34   17   43 1    
    35   17   44 1    
    36   18   23 1    
    37   18   19 1    
    38   18   29 1    
    39   19   20 1    
    40   19   21 1    
    41   21   22 1    
    42   21   45 1    
    43   21   46 1    
    44   22   23 1    
    45   22   47 1    
    46   22   48 1    
    47   23   24 1    
    48   23   28 1    
    49   24   25 2    
    50   24   26 1    
    51   25   49 1    
    52   25   50 1    
    53   26   27 1    
    54   26   51 1    
    55   26   52 1    
    56   27   53 1    
    57   28   54 1    
    58   29   55 1    
    59   29   56 1    
    60   29   57 1    
    61   30   58 1    
@<TRIPOS>SUBSTRUCTURE
     1 UNK         1 GROUP             0       ****    0 ROOT    
