ZINC35651037_1624
                    3D
 Schrodinger Suite 2024-2.
 32 32  0  0  1  0            999 V2000
    3.2525   54.3255   24.0191 C   0  0  0  0  0  0
    3.2347   53.9847   25.5037 C   0  0  0  0  0  0
    4.3147   54.3950   26.2999 C   0  0  0  0  0  0
    4.3725   54.0551   27.6498 C   0  0  0  0  0  0
    3.3663   53.2782   28.2329 C   0  0  0  0  0  0
    2.2756   52.8913   27.4448 C   0  0  0  0  0  0
    2.1858   53.2447   26.0903 C   0  0  0  0  0  0
    0.7044   52.7061   25.1922 S   0  0  0  0  0  0
    0.4607   53.6325   24.0817 O   0  0  0  0  0  0
   -0.3369   52.4967   26.2037 O   0  0  0  0  0  0
    1.1044   51.1433   24.4782 N   0  0  0  0  0  0
    0.0786   50.0688   24.3893 C   0  0  2  0  0  0
    0.5411   49.2737   23.8019 H   0  0  0  0  0  0
   -1.1697   50.5569   23.6269 C   0  0  0  0  0  0
   -0.2155   49.4448   25.7746 C   0  0  0  0  0  0
   -1.0883   48.3380   25.6817 O   0  0  0  0  0  0
    3.4623   52.8593   29.6644 C   0  0  0  0  0  0
    3.1044   51.6967   29.9617 O   0  0  0  0  0  0
    3.9044   53.6967   30.4817 O   0  5  0  0  0  0
    5.3254   55.1236   25.7687 F   0  0  0  0  0  0
    4.2444   54.6129   23.6697 H   0  0  0  0  0  0
    2.9629   53.4599   23.4235 H   0  0  0  0  0  0
    2.5575   55.1365   23.8058 H   0  0  0  0  0  0
    5.2217   54.3783   28.2365 H   0  0  0  0  0  0
    1.4900   52.2974   27.8935 H   0  0  0  0  0  0
    1.5433   51.2746   23.5641 H   0  0  0  0  0  0
   -1.8676   49.7372   23.4554 H   0  0  0  0  0  0
   -1.7063   51.3286   24.1794 H   0  0  0  0  0  0
   -0.9043   50.9666   22.6519 H   0  0  0  0  0  0
   -0.6848   50.1472   26.4597 H   0  0  0  0  0  0
    0.7072   49.1014   26.2454 H   0  0  0  0  0  0
   -1.2956   48.0967   26.6047 H   0  0  0  0  0  0
  1  2  1  0  0  0
  1 21  1  0  0  0
  1 22  1  0  0  0
  1 23  1  0  0  0
  2  7  2  0  0  0
  2  3  1  0  0  0
  3  4  2  0  0  0
  3 20  1  0  0  0
  4  5  1  0  0  0
  4 24  1  0  0  0
  5  6  2  0  0  0
  5 17  1  0  0  0
  6  7  1  0  0  0
  6 25  1  0  0  0
  7  8  1  0  0  0
  8  9  2  0  0  0
  8 10  2  0  0  0
  8 11  1  0  0  0
 11 12  1  0  0  0
 11 26  1  0  0  0
 12 13  1  0  0  0
 12 14  1  0  0  0
 12 15  1  0  0  0
 14 27  1  0  0  0
 14 28  1  0  0  0
 14 29  1  0  0  0
 15 16  1  0  0  0
 15 30  1  0  0  0
 15 31  1  0  0  0
 16 32  1  0  0  0
 17 18  2  0  0  0
 17 19  1  0  0  0
M  CHG  1  19  -1
M  END
> <i_i_glide_confnum>
18

> <i_i_glide_lignum>
1625

> <i_i_glide_posenum>
263

> <i_i_glide_rotatable_bonds>
6

> <i_m_Source_File_Index>
2518

> <b_m_subgroup_collapsed>
0

> <r_i_docking_score>
-5.30472

> <r_i_glide_ecoul>
-13.2615

> <r_i_glide_eff_state_penalty>
0

> <r_i_glide_einternal>
6.75277

> <r_i_glide_emodel>
-43.2799

> <r_i_glide_energy>
-35.3848

> <r_i_glide_erotb>
0.864986

> <r_i_glide_esite>
-0.00417572

> <r_i_glide_evdw>
-22.1232

> <r_i_glide_gscore>
-5.30472

> <r_i_glide_hbond>
-0.48

> <r_i_glide_ligand_efficiency>
-0.279196

> <r_i_glide_ligand_efficiency_ln>
-1.34486

> <r_i_glide_ligand_efficiency_sa>
-0.745006

> <r_i_glide_lipo>
-1.4588

> <r_i_glide_metal>
0

> <r_i_glide_rewards>
-1.13134

> <s_i_glide_gridfile>
wee1_glide-grid

> <s_m_Source_File>
wee1_decoys_glide_SP.sdf

> <s_m_Source_Path>
/Users/zhangxujun/Desktop

> <s_m_entry_id>
2793

> <s_m_entry_name>
wee1_decoys_glide_SP.2518

> <s_m_subgroup_title>
wee1_decoys_glide_SP

> <s_m_subgroupid>
wee1_decoys_glide_SP


$$$$
