ZINC13364638_5632
                    3D
 Schrodinger Suite 2024-2.
 54 57  0  0  1  0            999 V2000
   -3.3392   49.5467   23.1265 C   0  0  0  0  0  0
   -4.0641   50.2213   24.3042 C   0  0  0  0  0  0
   -3.2230   50.3329   25.5999 C   0  0  2  0  0  0
   -2.9039   49.3197   25.8553 H   0  0  0  0  0  0
   -4.0711   50.9147   26.7569 C   0  0  0  0  0  0
   -3.3500   50.7918   28.1142 C   0  0  0  0  0  0
   -1.9322   51.3151   27.9455 C   0  0  0  0  0  0
   -1.2853   51.5000   26.7192 C   0  0  0  0  0  0
    0.0454   51.9014   26.8888 C   0  0  0  0  0  0
    0.4257   52.0814   28.2170 C   0  0  0  0  0  0
   -0.8955   51.6968   29.2810 S   0  0  0  0  0  0
    1.7216   52.4748   28.7615 C   0  0  0  0  0  0
    2.1663   52.0975   29.9375 N   0  0  0  0  0  0
    3.4099   52.6842   30.1256 N   0  0  0  0  0  0
    3.6649   53.4020   29.0617 C   0  0  0  0  0  0
    2.6269   53.3275   28.1594 N   0  0  0  0  0  0
    2.4907   54.0456   26.9005 C   0  0  0  0  0  0
    5.1044   54.3838   28.8815 S   0  0  0  0  0  0
    5.8803   53.4485   27.5253 C   0  0  0  0  0  0
    6.1147   54.3224   26.2914 C   0  0  0  0  0  0
    6.8527   55.2968   26.4019 O   0  0  0  0  0  0
    5.4876   53.9540   25.1536 N   0  0  0  0  0  0
    5.6418   54.4613   23.8492 C   0  0  0  0  0  0
    6.7046   55.2826   23.4677 C   0  0  0  0  0  0
    6.8506   55.6938   22.1514 C   0  0  0  0  0  0
    5.9185   55.3154   21.1799 C   0  0  0  0  0  0
    4.8537   54.4814   21.5576 C   0  0  0  0  0  0
    4.7195   54.0555   22.8816 C   0  0  0  0  0  0
    6.0530   55.8362   19.7809 C   0  0  0  0  0  0
    5.3097   55.3487   18.9006 O   0  0  0  0  0  0
   -1.9546   51.2039   25.3783 C   0  0  0  0  0  0
   -4.0103   49.4346   22.2749 H   0  0  0  0  0  0
   -2.4833   50.1320   22.7889 H   0  0  0  0  0  0
   -2.9813   48.5523   23.3973 H   0  0  0  0  0  0
   -4.9685   49.6476   24.5165 H   0  0  0  0  0  0
   -4.4061   51.2112   23.9966 H   0  0  0  0  0  0
   -5.0137   50.3713   26.8272 H   0  0  0  0  0  0
   -4.3655   51.9421   26.5362 H   0  0  0  0  0  0
   -3.3195   49.7454   28.4217 H   0  0  0  0  0  0
   -3.8915   51.3342   28.8883 H   0  0  0  0  0  0
    0.7112   52.0497   26.0536 H   0  0  0  0  0  0
    1.5030   54.4935   26.8499 H   0  0  0  0  0  0
    3.2254   54.8474   26.8298 H   0  0  0  0  0  0
    2.6445   53.3543   26.0688 H   0  0  0  0  0  0
    5.3244   52.5391   27.2823 H   0  0  0  0  0  0
    6.8566   53.1146   27.8756 H   0  0  0  0  0  0
    4.8614   53.1677   25.2234 H   0  0  0  0  0  0
    7.4704   55.5983   24.1567 H   0  0  0  0  0  0
    7.6995   56.3120   21.8975 H   0  0  0  0  0  0
    4.1152   54.1751   20.8286 H   0  0  0  0  0  0
    3.8933   53.4102   23.1445 H   0  0  0  0  0  0
   -2.2157   52.1449   24.8917 H   0  0  0  0  0  0
   -1.2521   50.6929   24.7198 H   0  0  0  0  0  0
    6.8834   56.7568   19.5874 O   0  5  0  0  0  0
  1  2  1  0  0  0
  1 32  1  0  0  0
  1 33  1  0  0  0
  1 34  1  0  0  0
  2  3  1  0  0  0
  2 35  1  0  0  0
  2 36  1  0  0  0
  3  4  1  0  0  0
  3 31  1  0  0  0
  3  5  1  0  0  0
  5  6  1  0  0  0
  5 37  1  0  0  0
  5 38  1  0  0  0
  6  7  1  0  0  0
  6 39  1  0  0  0
  6 40  1  0  0  0
  7 11  1  0  0  0
  7  8  2  0  0  0
  8  9  1  0  0  0
  8 31  1  0  0  0
  9 10  2  0  0  0
  9 41  1  0  0  0
 10 11  1  0  0  0
 10 12  1  0  0  0
 12 16  1  0  0  0
 12 13  2  0  0  0
 13 14  1  0  0  0
 14 15  2  0  0  0
 15 16  1  0  0  0
 15 18  1  0  0  0
 16 17  1  0  0  0
 17 42  1  0  0  0
 17 43  1  0  0  0
 17 44  1  0  0  0
 18 19  1  0  0  0
 19 20  1  0  0  0
 19 45  1  0  0  0
 19 46  1  0  0  0
 20 21  2  0  0  0
 20 22  1  0  0  0
 22 23  1  0  0  0
 22 47  1  0  0  0
 23 28  2  0  0  0
 23 24  1  0  0  0
 24 25  2  0  0  0
 24 48  1  0  0  0
 25 26  1  0  0  0
 25 49  1  0  0  0
 26 27  2  0  0  0
 26 29  1  0  0  0
 27 28  1  0  0  0
 27 50  1  0  0  0
 28 51  1  0  0  0
 29 30  2  0  0  0
 29 54  1  0  0  0
 31 52  1  0  0  0
 31 53  1  0  0  0
M  CHG  1  54  -1
M  END
> <i_i_glide_confnum>
39

> <i_i_glide_lignum>
5633

> <i_i_glide_posenum>
343

> <i_i_glide_rotatable_bonds>
8

> <i_m_Source_File_Index>
4370

> <b_m_subgroup_collapsed>
0

> <r_i_docking_score>
-6.42718

> <r_i_glide_ecoul>
-7.05773

> <r_i_glide_eff_state_penalty>
0

> <r_i_glide_einternal>
4.767

> <r_i_glide_emodel>
-72.0217

> <r_i_glide_energy>
-51.2895

> <r_i_glide_erotb>
0.580784

> <r_i_glide_esite>
-0.0140515

> <r_i_glide_evdw>
-44.2318

> <r_i_glide_gscore>
-6.42718

> <r_i_glide_hbond>
-0.350706

> <r_i_glide_ligand_efficiency>
-0.207328

> <r_i_glide_ligand_efficiency_ln>
-1.44953

> <r_i_glide_ligand_efficiency_sa>
-0.651297

> <r_i_glide_lipo>
-1.72008

> <r_i_glide_metal>
0

> <r_i_glide_rewards>
-1.65287

> <s_i_glide_gridfile>
wee1_glide-grid

> <s_m_Source_File>
wee1_decoys_glide_SP.sdf

> <s_m_Source_Path>
/Users/zhangxujun/Desktop

> <s_m_entry_id>
4645

> <s_m_entry_name>
wee1_decoys_glide_SP.4370

> <s_m_subgroup_title>
wee1_decoys_glide_SP

> <s_m_subgroupid>
wee1_decoys_glide_SP


$$$$
