ZINC32962016_5898
                    3D
 Schrodinger Suite 2024-2.
 59 62  0  0  1  0            999 V2000
   -0.4517   51.9222   23.1458 C   0  0  0  0  0  0
    0.6904   51.5606   22.2107 C   0  0  0  0  0  0
    0.5001   50.4989   21.3186 C   0  0  0  0  0  0
    1.5111   50.1189   20.4380 C   0  0  0  0  0  0
    2.7258   50.7976   20.4422 C   0  0  0  0  0  0
    2.9327   51.8488   21.3332 C   0  0  0  0  0  0
    1.9245   52.2419   22.2259 C   0  0  0  0  0  0
    2.2738   53.6210   23.3403 S   0  0  0  0  0  0
    3.5837   54.1521   22.9567 O   0  0  0  0  0  0
    1.1044   54.4967   23.3511 O   0  0  0  0  0  0
    2.3588   52.9138   24.9762 N   0  0  0  0  0  0
    3.1284   53.4309   26.0428 C   0  0  0  0  0  0
    4.3833   54.0032   25.8188 C   0  0  0  0  0  0
    5.2087   54.3890   26.8739 C   0  0  0  0  0  0
    4.7629   54.2402   28.1895 C   0  0  0  0  0  0
    3.5124   53.6828   28.4364 C   0  0  0  0  0  0
    2.7020   53.2581   27.3794 C   0  0  0  0  0  0
    1.5106   52.6313   27.6819 N   0  0  0  0  0  0
    0.2570   53.3381   27.9128 C   0  0  0  0  0  0
   -0.8747   52.7447   27.0485 C   0  0  0  0  0  0
   -1.0425   51.3146   27.3083 N   0  0  0  0  0  0
    0.2148   50.6140   27.0278 C   0  0  0  0  0  0
    1.3650   51.1896   27.8887 C   0  0  0  0  0  0
   -2.1263   50.7427   26.5043 C   0  0  0  0  0  0
   -3.5004   51.1013   27.0523 C   0  0  0  0  0  0
   -3.9504   50.5012   28.2330 C   0  0  0  0  0  0
   -5.2168   50.8015   28.7366 C   0  0  0  0  0  0
   -6.0428   51.6960   28.0566 C   0  0  0  0  0  0
   -5.5995   52.2965   26.8783 C   0  0  0  0  0  0
   -4.3301   52.0048   26.3767 C   0  0  0  0  0  0
   -3.9161   52.5993   25.2331 F   0  0  0  0  0  0
    6.5705   54.8968   26.5797 C   0  0  0  0  0  0
    6.7054   55.6969   25.6296 O   0  0  0  0  0  0
    7.5040   54.4718   27.2841 O   0  5  0  0  0  0
   -0.8810   52.8871   22.8781 H   0  0  0  0  0  0
   -1.2442   51.1726   23.1428 H   0  0  0  0  0  0
   -0.0848   51.9879   24.1645 H   0  0  0  0  0  0
   -0.4388   49.9640   21.3015 H   0  0  0  0  0  0
    1.3531   49.3049   19.7467 H   0  0  0  0  0  0
    3.5038   50.5119   19.7467 H   0  0  0  0  0  0
    3.8840   52.3608   21.3145 H   0  0  0  0  0  0
    1.4334   52.7083   25.3181 H   0  0  0  0  0  0
    4.7969   54.0830   24.8288 H   0  0  0  0  0  0
    5.3954   54.5312   29.0179 H   0  0  0  0  0  0
    3.1853   53.5471   29.4572 H   0  0  0  0  0  0
    0.0097   53.2851   28.9741 H   0  0  0  0  0  0
    0.3986   54.3959   27.6974 H   0  0  0  0  0  0
   -1.7829   53.2896   27.2731 H   0  0  0  0  0  0
   -0.6434   52.8967   25.9958 H   0  0  0  0  0  0
    0.4810   50.7083   25.9738 H   0  0  0  0  0  0
    0.0999   49.5555   27.2489 H   0  0  0  0  0  0
    2.3019   50.6778   27.6819 H   0  0  0  0  0  0
    1.1763   51.0126   28.9482 H   0  0  0  0  0  0
   -2.0401   51.0209   25.4529 H   0  0  0  0  0  0
   -2.0589   49.6530   26.5170 H   0  0  0  0  0  0
   -3.3091   49.8041   28.7594 H   0  0  0  0  0  0
   -5.5557   50.3324   29.6485 H   0  0  0  0  0  0
   -7.0273   51.9197   28.4402 H   0  0  0  0  0  0
   -6.2381   52.9869   26.3501 H   0  0  0  0  0  0
  1  2  1  0  0  0
  1 35  1  0  0  0
  1 36  1  0  0  0
  1 37  1  0  0  0
  2  7  2  0  0  0
  2  3  1  0  0  0
  3  4  2  0  0  0
  3 38  1  0  0  0
  4  5  1  0  0  0
  4 39  1  0  0  0
  5  6  2  0  0  0
  5 40  1  0  0  0
  6  7  1  0  0  0
  6 41  1  0  0  0
  7  8  1  0  0  0
  8  9  2  0  0  0
  8 10  2  0  0  0
  8 11  1  0  0  0
 11 12  1  0  0  0
 11 42  1  0  0  0
 12 17  2  0  0  0
 12 13  1  0  0  0
 13 14  2  0  0  0
 13 43  1  0  0  0
 14 15  1  0  0  0
 14 32  1  0  0  0
 15 16  2  0  0  0
 15 44  1  0  0  0
 16 17  1  0  0  0
 16 45  1  0  0  0
 17 18  1  0  0  0
 18 23  1  0  0  0
 18 19  1  0  0  0
 19 20  1  0  0  0
 19 46  1  0  0  0
 19 47  1  0  0  0
 20 21  1  0  0  0
 20 48  1  0  0  0
 20 49  1  0  0  0
 21 22  1  0  0  0
 21 24  1  0  0  0
 22 23  1  0  0  0
 22 50  1  0  0  0
 22 51  1  0  0  0
 23 52  1  0  0  0
 23 53  1  0  0  0
 24 25  1  0  0  0
 24 54  1  0  0  0
 24 55  1  0  0  0
 25 30  2  0  0  0
 25 26  1  0  0  0
 26 27  2  0  0  0
 26 56  1  0  0  0
 27 28  1  0  0  0
 27 57  1  0  0  0
 28 29  2  0  0  0
 28 58  1  0  0  0
 29 30  1  0  0  0
 29 59  1  0  0  0
 30 31  1  0  0  0
 32 33  2  0  0  0
 32 34  1  0  0  0
M  CHG  1  34  -1
M  END
> <i_i_glide_confnum>
208

> <i_i_glide_lignum>
5899

> <i_i_glide_posenum>
213

> <i_i_glide_rotatable_bonds>
7

> <i_m_Source_File_Index>
5065

> <b_m_subgroup_collapsed>
0

> <r_i_docking_score>
-3.05416

> <r_i_glide_ecoul>
-4.09438

> <r_i_glide_eff_state_penalty>
0

> <r_i_glide_einternal>
10.0464

> <r_i_glide_emodel>
-38.5006

> <r_i_glide_energy>
-40.409

> <r_i_glide_erotb>
0.522932

> <r_i_glide_esite>
0

> <r_i_glide_evdw>
-36.3146

> <r_i_glide_gscore>
-3.05416

> <r_i_glide_hbond>
-0.299872

> <r_i_glide_ligand_efficiency>
-0.0898281

> <r_i_glide_ligand_efficiency_ln>
-0.674749

> <r_i_glide_ligand_efficiency_sa>
-0.291008

> <r_i_glide_lipo>
-1.69051

> <r_i_glide_metal>
0

> <r_i_glide_rewards>
0.843178

> <s_i_glide_gridfile>
wee1_glide-grid

> <s_m_Source_File>
wee1_decoys_glide_SP.sdf

> <s_m_Source_Path>
/Users/zhangxujun/Desktop

> <s_m_entry_id>
5340

> <s_m_entry_name>
wee1_decoys_glide_SP.5065

> <s_m_subgroup_title>
wee1_decoys_glide_SP

> <s_m_subgroupid>
wee1_decoys_glide_SP


$$$$
