@<TRIPOS>MOLECULE
ZINC10149126_4421
40   41    1
SMALL
USER_CHARGES


@<TRIPOS>ATOM
      1 C1          6.5356   56.0136   21.6193 C.3       1 UNK         0.0000 
      2 C2          6.3142   54.5174   21.8283 C.3       1 UNK         0.0000 
      3 C3          5.0309   54.1447   22.5586 C.2       1 UNK         0.0000 
      4 C4          3.9049   53.7022   21.8474 C.2       1 UNK         0.0000 
      5 S5          2.5879   53.3358   22.9018 S.3       1 UNK         0.0000 
      6 C6          3.5290   53.7287   24.3067 C.2       1 UNK         0.0000 
      7 C7          4.8484   54.0967   23.9758 C.2       1 UNK         0.0000 
      8 C8          5.8621   54.4968   24.9570 C.2       1 UNK         0.0000 
      9 O9          6.7044   55.3619   24.7468 O.2       1 UNK         0.0000 
     10 N10         5.8120   53.8912   26.1461 N.am      1 UNK         0.0000 
     11 N11         2.9802   53.7223   25.5840 N.am      1 UNK         0.0000 
     12 C12         1.8411   53.1496   26.0214 C.2       1 UNK         0.0000 
     13 O13         1.1209   52.4030   25.3575 O.2       1 UNK         0.0000 
     14 C14         1.5046   53.4518   27.4605 C.ar      1 UNK         0.0000 
     15 C15         0.7042   52.5713   28.2010 C.ar      1 UNK         0.0000 
     16 C16         0.3086   52.8988   29.4974 C.ar      1 UNK         0.0000 
     17 C17         0.6855   54.1270   30.0624 C.ar      1 UNK         0.0000 
     18 C18         1.4734   55.0018   29.3266 C.ar      1 UNK         0.0000 
     19 C19         1.9117   54.6550   28.0584 C.ar      1 UNK         0.0000 
     20 I20         1.9044   56.8967   30.0818 I         1 UNK         0.0000 
     21 O21         0.3043   54.5447   31.3133 O.3       1 UNK         0.0000 
     22 C22         0.3045   53.5667   32.3287 C.3       1 UNK         0.0000 
     23 C23         3.7329   53.5241   20.3534 C.3       1 UNK         0.0000 
     24 H24         7.4191   56.1899   21.0054 H         1 UNK         0.0000 
     25 H25         5.6861   56.4860   21.1266 H         1 UNK         0.0000 
     26 H26         6.7045   56.4967   22.5721 H         1 UNK         0.0000 
     27 H27         7.1760   54.0968   22.3490 H         1 UNK         0.0000 
     28 H28         6.3044   54.0967   20.8254 H         1 UNK         0.0000 
     29 H29         5.3005   53.0257   26.2479 H         1 UNK         0.0000 
     30 H30         6.4516   54.1794   26.8705 H         1 UNK         0.0000 
     31 H31         3.5773   54.1107   26.2983 H         1 UNK         0.0000 
     32 H32         0.3664   51.6365   27.7726 H         1 UNK         0.0000 
     33 H33        -0.3207   52.2051   30.0351 H         1 UNK         0.0000 
     34 H34         2.5140   55.3731   27.5230 H         1 UNK         0.0000 
     35 H35         0.1078   54.0122   33.3031 H         1 UNK         0.0000 
     36 H36        -0.4956   52.8967   32.0817 H         1 UNK         0.0000 
     37 H37         1.2307   52.9927   32.3787 H         1 UNK         0.0000 
     38 H38         4.0119   54.4251   19.8067 H         1 UNK         0.0000 
     39 H39         4.3487   52.7089   19.9717 H         1 UNK         0.0000 
     40 H40         2.7042   53.2963   20.0738 H         1 UNK         0.0000 
@<TRIPOS>BOND
     1    1    2 1    
     2    1   24 1    
     3    1   25 1    
     4    1   26 1    
     5    2    3 1    
     6    2   27 1    
     7    2   28 1    
     8    3    7 1    
     9    3    4 2    
    10    4    5 1    
    11    4   23 1    
    12    5    6 1    
    13    6    7 2    
    14    6   11 am   BACKBONE|DICT|INTERRES
    15    7    8 1    
    16    8    9 2    
    17    8   10 am   BACKBONE|DICT|INTERRES
    18   10   29 1    
    19   10   30 1    
    20   11   12 am   BACKBONE|DICT|INTERRES
    21   11   31 1    
    22   12   13 2    
    23   12   14 1    
    24   14   19 ar   
    25   14   15 ar   
    26   15   16 ar   
    27   15   32 1    
    28   16   17 ar   
    29   16   33 1    
    30   17   18 ar   
    31   17   21 1    
    32   18   19 ar   
    33   18   20 1    
    34   19   34 1    
    35   21   22 1    
    36   22   35 1    
    37   22   36 1    
    38   22   37 1    
    39   23   38 1    
    40   23   39 1    
    41   23   40 1    
@<TRIPOS>SUBSTRUCTURE
     1 UNK         1 GROUP             0       ****    0 ROOT    
