@<TRIPOS>MOLECULE
ZINC11739475_2243
44   47    1
SMALL
USER_CHARGES


@<TRIPOS>ATOM
      1 C1         15.4996   61.7438   25.2692 C.3       1 UNK         0.0000 
      2 C2         15.3047   61.4474   23.7932 C.ar      1 UNK         0.0000 
      3 C3         16.4144   61.1683   22.9906 C.ar      1 UNK         0.0000 
      4 C4         16.2789   60.8926   21.6288 C.ar      1 UNK         0.0000 
      5 C5         14.9938   60.9068   21.0701 C.ar      1 UNK         0.0000 
      6 C6         13.8726   61.2172   21.8832 C.ar      1 UNK         0.0000 
      7 C7         14.0174   61.4807   23.2511 C.ar      1 UNK         0.0000 
      8 S8         12.4265   61.1956   20.8903 S.3       1 UNK         0.0000 
      9 C9         13.4325   60.6979   19.5338 C.2       1 UNK         0.0000 
     10 N10        14.7091   60.6106   19.7740 N.2       1 UNK         0.0000 
     11 N11        12.9518   60.3695   18.2757 N.am      1 UNK         0.0000 
     12 C12        11.6810   60.4444   17.8282 C.2       1 UNK         0.0000 
     13 O13        10.7368   60.8960   18.4763 O.2       1 UNK         0.0000 
     14 C14        11.4619   59.9215   16.4008 C.3       1 UNK         0.0000 
     15 S15         9.7292   59.8705   15.8204 S.3       1 UNK         0.0000 
     16 C16         8.7764   58.7361   16.7961 C.ar      1 UNK         0.0000 
     17 C17         9.3575   57.9455   17.7915 C.ar      1 UNK         0.0000 
     18 C18         8.5352   57.0733   18.4997 C.ar      1 UNK         0.0000 
     19 C19         7.1736   57.0260   18.1684 C.ar      1 UNK         0.0000 
     20 N20         6.6590   57.8009   17.1763 N.ar      1 UNK         0.0000 
     21 N21         7.4505   58.6558   16.5049 N.ar      1 UNK         0.0000 
     22 N22         6.2784   56.1380   18.7817 N.am      1 UNK         0.0000 
     23 C23         6.3109   55.7087   20.0606 C.2       1 UNK         0.0000 
     24 O24         6.9756   56.2398   20.9528 O.2       1 UNK         0.0000 
     25 C25         5.4931   54.5466   20.3110 C.2       1 UNK         0.0000 
     26 C26         5.0301   53.5876   19.4020 C.2       1 UNK         0.0000 
     27 C27         4.3185   52.5497   20.0101 C.2       1 UNK         0.0000 
     28 C28         4.2469   52.6865   21.3858 C.2       1 UNK         0.0000 
     29 S29         5.0889   54.0946   21.9475 S.3       1 UNK         0.0000 
     30 H30        14.7607   62.4628   25.6245 H         1 UNK         0.0000 
     31 H31        15.4091   60.8323   25.8597 H         1 UNK         0.0000 
     32 H32        16.4780   62.1877   25.4568 H         1 UNK         0.0000 
     33 H33        17.4016   61.1572   23.4314 H         1 UNK         0.0000 
     34 H34        17.1442   60.6665   21.0237 H         1 UNK         0.0000 
     35 H35        13.1594   61.6966   23.8705 H         1 UNK         0.0000 
     36 H36        13.6540   60.0441   17.6292 H         1 UNK         0.0000 
     37 H37        12.0140   60.5639   15.7148 H         1 UNK         0.0000 
     38 H38        11.8833   58.9205   16.3039 H         1 UNK         0.0000 
     39 H39        10.4101   57.9838   18.0202 H         1 UNK         0.0000 
     40 H40         8.9582   56.4411   19.2681 H         1 UNK         0.0000 
     41 H41         5.5890   55.7277   18.1715 H         1 UNK         0.0000 
     42 H42         5.2026   53.6182   18.3356 H         1 UNK         0.0000 
     43 H43         3.8898   51.7233   19.4590 H         1 UNK         0.0000 
     44 H44         3.7567   52.0238   22.0815 H         1 UNK         0.0000 
@<TRIPOS>BOND
     1    1    2 1    
     2    1   30 1    
     3    1   31 1    
     4    1   32 1    
     5    2    7 ar   
     6    2    3 ar   
     7    3    4 ar   
     8    3   33 1    
     9    4    5 ar   
    10    4   34 1    
    11    5   10 1    
    12    5    6 ar   
    13    6    7 ar   
    14    6    8 1    
    15    7   35 1    
    16    8    9 1    
    17    9   10 2    
    18    9   11 am   BACKBONE|DICT|INTERRES
    19   11   12 am   BACKBONE|DICT|INTERRES
    20   11   36 1    
    21   12   13 2    
    22   12   14 1    
    23   14   15 1    
    24   14   37 1    
    25   14   38 1    
    26   15   16 1    
    27   16   21 ar   
    28   16   17 ar   
    29   17   18 ar   
    30   17   39 1    
    31   18   19 ar   
    32   18   40 1    
    33   19   20 ar   
    34   19   22 1    
    35   20   21 ar   
    36   22   23 am   BACKBONE|DICT|INTERRES
    37   22   41 1    
    38   23   24 2    
    39   23   25 1    
    40   25   29 1    
    41   25   26 2    
    42   26   27 1    
    43   26   42 1    
    44   27   28 2    
    45   27   43 1    
    46   28   29 1    
    47   28   44 1    
@<TRIPOS>SUBSTRUCTURE
     1 UNK         1 GROUP             0       ****    0 ROOT    
