@<TRIPOS>MOLECULE
ZINC33635875_1320
40   42    1
SMALL
USER_CHARGES


@<TRIPOS>ATOM
      1 C1          2.6028   53.6802   27.9380 C.ar      1 UNK         0.0000 
      2 C2          1.8738   53.2804   29.0583 C.ar      1 UNK         0.0000 
      3 C3          2.5261   52.6792   30.1308 C.ar      1 UNK         0.0000 
      4 C4          3.9042   52.4967   30.1035 C.ar      1 UNK         0.0000 
      5 C5          4.6312   52.8963   28.9860 C.ar      1 UNK         0.0000 
      6 C6          3.9918   53.4700   27.8825 C.ar      1 UNK         0.0000 
      7 C7          4.8219   53.7982   26.6737 C.2       1 UNK         0.0000 
      8 O8          6.0515   53.6968   26.6710 O.2       1 UNK         0.0000 
      9 C9          4.0507   54.1734   25.3831 C.3       1 UNK         0.0000 
     10 N10         4.7932   54.0976   24.1087 N.am      1 UNK         0.0000 
     11 C11         5.9046   54.7587   23.7278 C.2       1 UNK         0.0000 
     12 O12         6.6052   55.4387   24.4806 O.2       1 UNK         0.0000 
     13 C13         6.1485   54.7222   22.3023 C.2       1 UNK         0.0000 
     14 C14         7.2430   55.3016   21.6738 C.2       1 UNK         0.0000 
     15 O15         7.0743   55.1906   20.3348 O.3       1 UNK         0.0000 
     16 C16         5.9045   54.5132   20.2158 C.2       1 UNK         0.0000 
     17 N17         5.3422   54.2176   21.3677 N.2       1 UNK         0.0000 
     18 C18         5.4278   54.1765   18.8107 C.3       1 UNK         0.0000 
     19 H19         6.2911   53.9651   18.1746 H         1 UNK         0.0000 
     20 C20         4.5066   55.2302   18.1822 C.3       1 UNK         0.0000 
     21 C21         3.6225   54.4958   17.1671 C.3       1 UNK         0.0000 
     22 C22         3.8788   52.9966   17.3593 C.3       1 UNK         0.0000 
     23 N23         4.5803   52.8967   18.7203 N.4       1 UNK         0.0000 
     24 Br24        1.5366   52.0967   31.6496 Br        1 UNK         0.0000 
     25 H25         2.0602   54.1322   27.1212 H         1 UNK         0.0000 
     26 H26         0.8041   53.4246   29.0894 H         1 UNK         0.0000 
     27 H27         4.4097   52.0417   30.9432 H         1 UNK         0.0000 
     28 H28         5.6990   52.7344   28.9706 H         1 UNK         0.0000 
     29 H29         3.2153   53.4812   25.2790 H         1 UNK         0.0000 
     30 H30         3.6198   55.1677   25.4989 H         1 UNK         0.0000 
     31 H31         4.3352   53.5712   23.3794 H         1 UNK         0.0000 
     32 H32         8.1246   55.8195   22.0269 H         1 UNK         0.0000 
     33 H33         3.8482   55.6493   18.9452 H         1 UNK         0.0000 
     34 H34         5.0593   56.0763   17.7686 H         1 UNK         0.0000 
     35 H35         2.5664   54.7335   17.3181 H         1 UNK         0.0000 
     36 H36         3.8708   54.7926   16.1460 H         1 UNK         0.0000 
     37 H37         2.9871   52.3671   17.3836 H         1 UNK         0.0000 
     38 H38         4.5967   52.5953   16.6397 H         1 UNK         0.0000 
     39 H39         5.1044   52.0165   18.7595 H         1 UNK         0.0000 
     40 H40         3.8928   52.8769   19.4590 H         1 UNK         0.0000 
@<TRIPOS>BOND
     1    1    6 ar   
     2    1    2 ar   
     3    1   25 1    
     4    2    3 ar   
     5    2   26 1    
     6    3    4 ar   
     7    3   24 1    
     8    4    5 ar   
     9    4   27 1    
    10    5    6 ar   
    11    5   28 1    
    12    6    7 1    
    13    7    8 2    
    14    7    9 1    
    15    9   10 1    
    16    9   29 1    
    17    9   30 1    
    18   10   11 am   BACKBONE|DICT|INTERRES
    19   10   31 1    
    20   11   12 2    
    21   11   13 1    
    22   13   17 1    
    23   13   14 2    
    24   14   15 1    
    25   14   32 1    
    26   15   16 1    
    27   16   17 2    
    28   16   18 1    
    29   18   19 1    
    30   18   23 1    
    31   18   20 1    
    32   20   21 1    
    33   20   33 1    
    34   20   34 1    
    35   21   22 1    
    36   21   35 1    
    37   21   36 1    
    38   22   23 1    
    39   22   37 1    
    40   22   38 1    
    41   23   39 1    
    42   23   40 1    
@<TRIPOS>SUBSTRUCTURE
     1 UNK         1 GROUP             0       ****    0 ROOT    
