@<TRIPOS>MOLECULE
ZINC00675051_3627
49   52    1
SMALL
USER_CHARGES


@<TRIPOS>ATOM
      1 C1          4.4153   54.2959   27.5639 C.3       1 UNK         0.0000 
      2 C2          5.6995   54.0525   26.7491 C.3       1 UNK         0.0000 
      3 H3          6.0247   53.0259   26.9256 H         1 UNK         0.0000 
      4 C4          5.5612   54.2090   25.2261 C.ar      1 UNK         0.0000 
      5 C5          6.7122   54.4293   24.4655 C.ar      1 UNK         0.0000 
      6 C6          6.6474   54.5742   23.0891 C.ar      1 UNK         0.0000 
      7 C7          5.4122   54.4947   22.4442 C.ar      1 UNK         0.0000 
      8 C8          4.2582   54.2101   23.1781 C.ar      1 UNK         0.0000 
      9 C9          4.3288   54.0959   24.5664 C.ar      1 UNK         0.0000 
     10 N10         5.2745   54.7289   21.0691 N.am      1 UNK         0.0000 
     11 C11         5.9042   55.6961   20.3543 C.2       1 UNK         0.0000 
     12 O12         6.7323   56.4666   20.8495 O.2       1 UNK         0.0000 
     13 C13         5.4850   55.8065   18.9638 C.ar      1 UNK         0.0000 
     14 C14         5.7329   56.8699   18.1593 C.ar      1 UNK         0.0000 
     15 C15         5.0331   56.6324   16.9396 C.ar      1 UNK         0.0000 
     16 N16         5.1091   57.2878   15.8481 N.2       1 UNK         0.0000 
     17 C17         4.3656   56.8408   14.6608 C.3       1 UNK         0.0000 
     18 H18         5.1166   56.4139   13.9931 H         1 UNK         0.0000 
     19 C19         3.3067   55.7206   14.9258 C.3       1 UNK         0.0000 
     20 C20         3.7397   54.7158   16.0264 C.3       1 UNK         0.0000 
     21 H21         4.6260   54.1810   15.6757 H         1 UNK         0.0000 
     22 N22         4.1841   55.5193   17.1753 N.pl3     1 UNK         0.0000 
     23 N23         4.6671   54.8691   18.3329 N.pl3     1 UNK         0.0000 
     24 C24         2.6288   53.6760   16.3448 C.3       1 UNK         0.0000 
     25 F25         2.2934   52.9924   15.2514 F         1 UNK         0.0000 
     26 F26         3.0134   52.7883   17.2605 F         1 UNK         0.0000 
     27 F27         1.5199   54.2586   16.8025 F         1 UNK         0.0000 
     28 C28         3.7670   58.0384   13.9354 C.2       1 UNK         0.0000 
     29 C29         3.5902   59.3571   14.3669 C.2       1 UNK         0.0000 
     30 C30         2.9895   60.2028   13.4311 C.2       1 UNK         0.0000 
     31 C31         2.6882   59.5502   12.2507 C.2       1 UNK         0.0000 
     32 S32         3.1537   57.8852   12.3073 S.3       1 UNK         0.0000 
     33 Br33        6.8243   58.4937   18.4970 Br        1 UNK         0.0000 
     34 O34         6.7056   54.8963   27.2814 O.3       1 UNK         0.0000 
     35 H35         4.6006   54.2026   28.6343 H         1 UNK         0.0000 
     36 H36         4.0080   55.2902   27.3821 H         1 UNK         0.0000 
     37 H37         3.6438   53.5655   27.3196 H         1 UNK         0.0000 
     38 H38         7.6768   54.4998   24.9400 H         1 UNK         0.0000 
     39 H39         7.5555   54.7662   22.5367 H         1 UNK         0.0000 
     40 H40         3.2983   54.1350   22.6876 H         1 UNK         0.0000 
     41 H41         3.4183   53.9018   25.1127 H         1 UNK         0.0000 
     42 H42         4.5479   54.2038   20.6108 H         1 UNK         0.0000 
     43 H43         2.3833   56.2048   15.2525 H         1 UNK         0.0000 
     44 H44         3.0774   55.2024   13.9942 H         1 UNK         0.0000 
     45 H45         3.8576   54.4424   18.7685 H         1 UNK         0.0000 
     46 H46         3.8963   59.6963   15.3476 H         1 UNK         0.0000 
     47 H47         2.7914   61.2484   13.6169 H         1 UNK         0.0000 
     48 H48         2.2262   59.9608   11.3657 H         1 UNK         0.0000 
     49 H49         6.6101   54.9566   28.2375 H         1 UNK         0.0000 
@<TRIPOS>BOND
     1    1    2 1    
     2    1   35 1    
     3    1   36 1    
     4    1   37 1    
     5    2    3 1    
     6    2    4 1    
     7    2   34 1    
     8    4    9 ar   
     9    4    5 ar   
    10    5    6 ar   
    11    5   38 1    
    12    6    7 ar   
    13    6   39 1    
    14    7    8 ar   
    15    7   10 1    
    16    8    9 ar   
    17    8   40 1    
    18    9   41 1    
    19   10   11 am   BACKBONE|DICT|INTERRES
    20   10   42 1    
    21   11   12 2    
    22   11   13 1    
    23   13   23 ar   
    24   13   14 ar   
    25   14   15 ar   
    26   14   33 1    
    27   15   22 ar   
    28   15   16 2    
    29   16   17 1    
    30   17   18 1    
    31   17   19 1    
    32   17   28 1    
    33   19   20 1    
    34   19   43 1    
    35   19   44 1    
    36   20   21 1    
    37   20   22 1    
    38   20   24 1    
    39   22   23 1    
    40   23   45 1    
    41   24   25 1    
    42   24   26 1    
    43   24   27 1    
    44   28   32 1    
    45   28   29 2    
    46   29   30 1    
    47   29   46 1    
    48   30   31 2    
    49   30   47 1    
    50   31   32 1    
    51   31   48 1    
    52   34   49 1    
@<TRIPOS>SUBSTRUCTURE
     1 UNK         1 GROUP             0       ****    0 ROOT    
