ZINC00989001_2286
                    3D
 Schrodinger Suite 2024-2.
 62 66  0  0  1  0            999 V2000
    5.0264   59.2480   14.4515 C   0  0  0  0  0  0
    5.2150   58.3930   15.6894 C   0  0  0  0  0  0
    6.4738   58.2975   16.2841 C   0  0  0  0  0  0
    6.6495   57.5101   17.4181 C   0  0  0  0  0  0
    5.5617   56.8149   17.9631 C   0  0  0  0  0  0
    4.3044   56.9041   17.3556 C   0  0  0  0  0  0
    4.1319   57.6948   16.2240 C   0  0  0  0  0  0
    5.7210   56.0458   19.1394 N   0  0  0  0  0  0
    5.0860   54.8919   19.5181 C   0  0  0  0  0  0
    5.5051   54.5473   20.7863 C   0  0  0  0  0  0
    6.4834   55.5216   21.0681 C   0  0  0  0  0  0
    6.5775   56.4213   20.1059 N   0  0  0  0  0  0
    7.3888   55.6326   22.2683 C   0  0  0  0  0  0
    4.8962   53.3470   21.5185 C   0  0  2  0  0  0
    5.6847   52.6346   21.7598 H   0  0  0  0  0  0
    3.9554   52.6180   20.5303 C   0  0  0  0  0  0
    3.6935   53.0873   19.2824 C   0  0  0  0  0  0
    4.1863   54.2282   18.7237 O   0  0  0  0  0  0
    2.8921   52.4959   18.3454 N   0  0  0  0  0  0
    3.3262   51.4153   20.9708 C   0  0  0  0  0  0
    2.7709   50.4722   21.3426 N   0  0  0  0  0  0
    4.2968   53.7014   22.8873 C   0  0  0  0  0  0
    2.9175   53.8579   23.0718 C   0  0  0  0  0  0
    2.3979   54.0956   24.3428 C   0  0  0  0  0  0
    3.2478   54.2085   25.4440 C   0  0  0  0  0  0
    4.6333   54.1229   25.2771 C   0  0  0  0  0  0
    5.1408   53.8555   23.9942 C   0  0  0  0  0  0
    5.4142   54.3122   26.4016 O   0  0  0  0  0  0
    6.8241   54.2036   26.2971 C   0  0  0  0  0  0
    2.7052   54.4535   26.6828 O   0  0  0  0  0  0
    2.6461   53.3161   27.5417 C   0  0  0  0  0  0
    1.8110   53.6271   28.7796 C   0  0  0  0  0  0
    1.8070   54.9133   29.3336 C   0  0  0  0  0  0
    1.0522   55.1789   30.4747 C   0  0  0  0  0  0
    0.3051   54.1580   31.0579 C   0  0  0  0  0  0
    0.3026   52.8762   30.5138 C   0  0  0  0  0  0
    1.0587   52.6086   29.3749 C   0  0  0  0  0  0
    4.2643   58.8234   13.7978 H   0  0  0  0  0  0
    5.9451   59.3046   13.8676 H   0  0  0  0  0  0
    4.7245   60.2574   14.7303 H   0  0  0  0  0  0
    7.3130   58.8423   15.8767 H   0  0  0  0  0  0
    7.6291   57.4532   17.8726 H   0  0  0  0  0  0
    3.4478   56.3876   17.7672 H   0  0  0  0  0  0
    3.1549   57.7711   15.7704 H   0  0  0  0  0  0
    7.7227   54.6446   22.5789 H   0  0  0  0  0  0
    8.2994   56.2020   22.0758 H   0  0  0  0  0  0
    6.8898   56.0965   23.1173 H   0  0  0  0  0  0
    2.5574   51.5603   18.5217 H   0  0  0  0  0  0
    3.0470   52.7224   17.3739 H   0  0  0  0  0  0
    2.2389   53.7771   22.2360 H   0  0  0  0  0  0
    1.3310   54.1942   24.4780 H   0  0  0  0  0  0
    6.1999   53.7257   23.8582 H   0  0  0  0  0  0
    7.2776   54.3946   27.2698 H   0  0  0  0  0  0
    7.1048   53.1981   25.9910 H   0  0  0  0  0  0
    7.2323   54.9247   25.5879 H   0  0  0  0  0  0
    2.2133   52.4641   27.0101 H   0  0  0  0  0  0
    3.6490   53.0261   27.8656 H   0  0  0  0  0  0
    2.3881   55.7054   28.8825 H   0  0  0  0  0  0
    1.0531   56.1687   30.9074 H   0  0  0  0  0  0
   -0.2723   54.3552   31.9505 H   0  0  0  0  0  0
   -0.2825   52.0963   30.9811 H   0  0  0  0  0  0
    1.0554   51.6098   28.9601 H   0  0  0  0  0  0
  1  2  1  0  0  0
  1 38  1  0  0  0
  1 39  1  0  0  0
  1 40  1  0  0  0
  2  7  2  0  0  0
  2  3  1  0  0  0
  3  4  2  0  0  0
  3 41  1  0  0  0
  4  5  1  0  0  0
  4 42  1  0  0  0
  5  6  2  0  0  0
  5  8  1  0  0  0
  6  7  1  0  0  0
  6 43  1  0  0  0
  7 44  1  0  0  0
  8 12  1  0  0  0
  8  9  1  0  0  0
  9 18  1  0  0  0
  9 10  2  0  0  0
 10 11  1  0  0  0
 10 14  1  0  0  0
 11 12  2  0  0  0
 11 13  1  0  0  0
 13 45  1  0  0  0
 13 46  1  0  0  0
 13 47  1  0  0  0
 14 15  1  0  0  0
 14 16  1  0  0  0
 14 22  1  0  0  0
 16 17  2  0  0  0
 16 20  1  0  0  0
 17 18  1  0  0  0
 17 19  1  0  0  0
 19 48  1  0  0  0
 19 49  1  0  0  0
 20 21  3  0  0  0
 22 27  2  0  0  0
 22 23  1  0  0  0
 23 24  2  0  0  0
 23 50  1  0  0  0
 24 25  1  0  0  0
 24 51  1  0  0  0
 25 26  2  0  0  0
 25 30  1  0  0  0
 26 27  1  0  0  0
 26 28  1  0  0  0
 27 52  1  0  0  0
 28 29  1  0  0  0
 29 53  1  0  0  0
 29 54  1  0  0  0
 29 55  1  0  0  0
 30 31  1  0  0  0
 31 32  1  0  0  0
 31 56  1  0  0  0
 31 57  1  0  0  0
 32 37  2  0  0  0
 32 33  1  0  0  0
 33 34  2  0  0  0
 33 58  1  0  0  0
 34 35  1  0  0  0
 34 59  1  0  0  0
 35 36  2  0  0  0
 35 60  1  0  0  0
 36 37  1  0  0  0
 36 61  1  0  0  0
 37 62  1  0  0  0
M  END
> <i_i_glide_confnum>
194

> <i_i_glide_lignum>
2287

> <i_i_glide_posenum>
129

> <i_i_glide_rotatable_bonds>
7

> <i_m_Source_File_Index>
2605

> <b_m_subgroup_collapsed>
0

> <r_i_docking_score>
-6.16989

> <r_i_glide_ecoul>
-2.14293

> <r_i_glide_eff_state_penalty>
0

> <r_i_glide_einternal>
9.62528

> <r_i_glide_emodel>
-66.2793

> <r_i_glide_energy>
-50.7414

> <r_i_glide_erotb>
0.442468

> <r_i_glide_esite>
-0.0507058

> <r_i_glide_evdw>
-48.5984

> <r_i_glide_gscore>
-6.16989

> <r_i_glide_hbond>
0

> <r_i_glide_ligand_efficiency>
-0.171386

> <r_i_glide_ligand_efficiency_ln>
-1.3461

> <r_i_glide_ligand_efficiency_sa>
-0.565903

> <r_i_glide_lipo>
-3.53904

> <r_i_glide_metal>
0

> <r_i_glide_rewards>
-0.271247

> <s_i_glide_gridfile>
wee1_glide-grid

> <s_m_Source_File>
wee1_decoys_glide_SP.sdf

> <s_m_Source_Path>
/Users/zhangxujun/Desktop

> <s_m_entry_id>
2880

> <s_m_entry_name>
wee1_decoys_glide_SP.2605

> <s_m_subgroup_title>
wee1_decoys_glide_SP

> <s_m_subgroupid>
wee1_decoys_glide_SP


$$$$
