ZINC12467935_801
                    3D
 Schrodinger Suite 2024-2.
 52 56  0  0  1  0            999 V2000
    3.6031   53.2869   19.4897 C   0  0  0  0  0  0
    4.1148   53.6280   20.7749 O   0  0  0  0  0  0
    5.3118   54.3221   20.8698 C   0  0  0  0  0  0
    6.0422   54.7641   19.7505 C   0  0  0  0  0  0
    7.2473   55.4445   19.9098 C   0  0  0  0  0  0
    7.7382   55.6966   21.1867 C   0  0  0  0  0  0
    7.0222   55.2830   22.3071 C   0  0  0  0  0  0
    5.8064   54.5939   22.1593 C   0  0  0  0  0  0
    5.0057   54.1678   23.2402 N   0  0  0  0  0  0
    5.0505   54.4969   24.5518 C   0  0  0  0  0  0
    5.9631   55.1221   25.0986 O   0  0  0  0  0  0
    3.8686   54.0925   25.2924 C   0  0  0  0  0  0
    2.7436   53.4092   24.7797 C   0  0  0  0  0  0
    1.9205   53.1489   25.8501 C   0  0  0  0  0  0
    2.5136   53.7661   26.9280 N   0  0  0  0  0  0
    3.6934   54.3165   26.5820 N   0  0  0  0  0  0
    2.0408   53.7506   28.3151 C   0  0  1  0  0  0
    2.1813   54.7541   28.7151 H   0  0  0  0  0  0
    0.5200   53.4218   28.2805 C   0  0  0  0  0  0
    0.1341   52.2874   27.2871 C   0  0  2  0  0  0
    0.5597   51.3484   27.6437 H   0  0  0  0  0  0
    0.7131   52.4971   25.9551 N   0  0  0  0  0  0
   -1.3715   52.0263   27.2665 C   0  0  0  0  0  0
   -1.9536   51.2965   28.3192 C   0  0  0  0  0  0
   -3.3226   50.9989   28.3333 C   0  0  0  0  0  0
   -4.0943   51.4822   27.2827 C   0  0  0  0  0  0
   -3.5476   52.2061   26.2635 C   0  0  0  0  0  0
   -2.1895   52.4969   26.2196 C   0  0  0  0  0  0
   -4.5255   52.5951   25.4060 O   0  0  0  0  0  0
   -5.6934   51.9427   25.8329 C   0  0  0  0  0  0
   -5.4356   51.3807   27.0950 O   0  0  0  0  0  0
    2.8464   52.7968   29.2308 C   0  0  0  0  0  0
    4.1509   53.0711   29.2324 F   0  0  0  0  0  0
    2.4271   52.8983   30.4897 F   0  0  0  0  0  0
    2.7040   51.5214   28.8817 F   0  0  0  0  0  0
    2.6611   52.7541   19.6118 H   0  0  0  0  0  0
    3.4042   54.1745   18.8876 H   0  0  0  0  0  0
    4.2880   52.6316   18.9506 H   0  0  0  0  0  0
    5.6960   54.5746   18.7470 H   0  0  0  0  0  0
    7.8074   55.7600   19.0408 H   0  0  0  0  0  0
    8.6903   56.1902   21.3123 H   0  0  0  0  0  0
    7.4454   55.4937   23.2760 H   0  0  0  0  0  0
    4.1965   53.6452   22.9426 H   0  0  0  0  0  0
    2.5615   53.0937   23.7628 H   0  0  0  0  0  0
    0.1850   53.1465   29.2819 H   0  0  0  0  0  0
   -0.0442   54.3327   28.0818 H   0  0  0  0  0  0
    0.5322   51.7079   25.3520 H   0  0  0  0  0  0
   -1.3370   50.9193   29.1243 H   0  0  0  0  0  0
   -3.7436   50.4179   29.1401 H   0  0  0  0  0  0
   -1.7803   53.0762   25.4081 H   0  0  0  0  0  0
   -5.9387   51.1447   25.1265 H   0  0  0  0  0  0
   -6.5175   52.6557   25.9006 H   0  0  0  0  0  0
  1  2  1  0  0  0
  1 36  1  0  0  0
  1 37  1  0  0  0
  1 38  1  0  0  0
  2  3  1  0  0  0
  3  8  2  0  0  0
  3  4  1  0  0  0
  4  5  2  0  0  0
  4 39  1  0  0  0
  5  6  1  0  0  0
  5 40  1  0  0  0
  6  7  2  0  0  0
  6 41  1  0  0  0
  7  8  1  0  0  0
  7 42  1  0  0  0
  8  9  1  0  0  0
  9 10  1  0  0  0
  9 43  1  0  0  0
 10 11  2  0  0  0
 10 12  1  0  0  0
 12 16  2  0  0  0
 12 13  1  0  0  0
 13 14  2  0  0  0
 13 44  1  0  0  0
 14 22  1  0  0  0
 14 15  1  0  0  0
 15 16  1  0  0  0
 15 17  1  0  0  0
 17 18  1  0  0  0
 17 19  1  0  0  0
 17 32  1  0  0  0
 19 20  1  0  0  0
 19 45  1  0  0  0
 19 46  1  0  0  0
 20 21  1  0  0  0
 20 22  1  0  0  0
 20 23  1  0  0  0
 22 47  1  0  0  0
 23 28  2  0  0  0
 23 24  1  0  0  0
 24 25  2  0  0  0
 24 48  1  0  0  0
 25 26  1  0  0  0
 25 49  1  0  0  0
 26 31  1  0  0  0
 26 27  2  0  0  0
 27 28  1  0  0  0
 27 29  1  0  0  0
 28 50  1  0  0  0
 29 30  1  0  0  0
 30 31  1  0  0  0
 30 51  1  0  0  0
 30 52  1  0  0  0
 32 33  1  0  0  0
 32 34  1  0  0  0
 32 35  1  0  0  0
M  END
> <i_i_glide_confnum>
14

> <i_i_glide_lignum>
802

> <i_i_glide_posenum>
184

> <i_i_glide_rotatable_bonds>
6

> <i_m_Source_File_Index>
5022

> <b_m_subgroup_collapsed>
0

> <r_i_docking_score>
-5.48802

> <r_i_glide_ecoul>
-4.15405

> <r_i_glide_eff_state_penalty>
0

> <r_i_glide_einternal>
1.8303

> <r_i_glide_emodel>
-56.3464

> <r_i_glide_energy>
-42.9705

> <r_i_glide_erotb>
0.379824

> <r_i_glide_esite>
-0.000139772

> <r_i_glide_evdw>
-38.8165

> <r_i_glide_gscore>
-5.48802

> <r_i_glide_hbond>
0

> <r_i_glide_ligand_efficiency>
-0.166304

> <r_i_glide_ligand_efficiency_ln>
-1.22051

> <r_i_glide_ligand_efficiency_sa>
-0.533424

> <r_i_glide_lipo>
-1.94287

> <r_i_glide_metal>
0

> <r_i_glide_rewards>
-1.3609

> <s_i_glide_gridfile>
wee1_glide-grid

> <s_m_Source_File>
wee1_decoys_glide_SP.sdf

> <s_m_Source_Path>
/Users/zhangxujun/Desktop

> <s_m_entry_id>
5297

> <s_m_entry_name>
wee1_decoys_glide_SP.5022

> <s_m_subgroup_title>
wee1_decoys_glide_SP

> <s_m_subgroupid>
wee1_decoys_glide_SP


$$$$
