@<TRIPOS>MOLECULE
ZINC46581460_3950
45   47    1
SMALL
USER_CHARGES


@<TRIPOS>ATOM
      1 C1          0.4212   51.5099   28.3249 C.3       1 UNK         0.0000 
      2 C2          0.7442   52.8643   28.9430 C.ar      1 UNK         0.0000 
      3 C3          0.2358   53.1539   30.2141 C.ar      1 UNK         0.0000 
      4 C4          0.4703   54.3929   30.8038 C.ar      1 UNK         0.0000 
      5 C5          1.2189   55.3542   30.1288 C.ar      1 UNK         0.0000 
      6 C6          1.7463   55.0722   28.8719 C.ar      1 UNK         0.0000 
      7 C7          1.5255   53.8231   28.2672 C.ar      1 UNK         0.0000 
      8 N8          2.0127   53.5066   26.9825 N.am      1 UNK         0.0000 
      9 C9          3.0403   54.0558   26.2959 C.2       1 UNK         0.0000 
     10 O10         3.8150   54.8925   26.7611 O.2       1 UNK         0.0000 
     11 C11         3.1983   53.5779   24.8367 C.3       1 UNK         0.0000 
     12 H12         3.2089   52.4967   24.8777 H         1 UNK         0.0000 
     13 C13         4.5241   54.0248   24.1839 C.3       1 UNK         0.0000 
     14 S14         1.7521   54.0224   23.8180 S.3       1 UNK         0.0000 
     15 C15         0.4821   52.8359   24.1580 C.ar      1 UNK         0.0000 
     16 N16         0.8590   51.5745   24.4834 N.ar      1 UNK         0.0000 
     17 C17        -0.1210   50.6739   24.7473 C.ar      1 UNK         0.0000 
     18 C18        -1.4927   51.0335   24.6948 C.ar      1 UNK         0.0000 
     19 C19        -2.7187   50.3082   24.8934 C.2       1 UNK         0.0000 
     20 C20        -3.8417   51.1315   24.7785 C.2       1 UNK         0.0000 
     21 S21        -3.4251   52.7898   24.3865 S.3       1 UNK         0.0000 
     22 C22        -1.7302   52.3957   24.3645 C.ar      1 UNK         0.0000 
     23 N23        -0.7878   53.2958   24.0793 N.ar      1 UNK         0.0000 
     24 C24        -5.3060   50.7803   24.9277 C.3       1 UNK         0.0000 
     25 C25        -2.7393   48.8171   25.1802 C.3       1 UNK         0.0000 
     26 N26         0.3051   49.3862   25.0745 N.pl3     1 UNK         0.0000 
     27 Cl27        1.5036   56.8934   30.8531 Cl        1 UNK         0.0000 
     28 H28        -0.1285   51.6449   27.3944 H         1 UNK         0.0000 
     29 H29         1.3350   50.9611   28.0959 H         1 UNK         0.0000 
     30 H30        -0.1941   50.8967   28.9836 H         1 UNK         0.0000 
     31 H31        -0.3553   52.4226   30.7500 H         1 UNK         0.0000 
     32 H32         0.0692   54.6044   31.7845 H         1 UNK         0.0000 
     33 H33         2.3053   55.8481   28.3730 H         1 UNK         0.0000 
     34 H34         1.5342   52.7412   26.5319 H         1 UNK         0.0000 
     35 H35         5.3876   53.6993   24.7663 H         1 UNK         0.0000 
     36 H36         4.6311   53.6016   23.1847 H         1 UNK         0.0000 
     37 H37         4.5794   55.1086   24.0898 H         1 UNK         0.0000 
     38 H38        -5.8101   50.7614   23.9609 H         1 UNK         0.0000 
     39 H39        -5.4692   49.8085   25.3919 H         1 UNK         0.0000 
     40 H40        -5.8289   51.5080   25.5487 H         1 UNK         0.0000 
     41 H41        -3.7419   48.4149   25.3159 H         1 UNK         0.0000 
     42 H42        -2.2878   48.2498   24.3662 H         1 UNK         0.0000 
     43 H43        -2.1865   48.5712   26.0854 H         1 UNK         0.0000 
     44 H44        -0.3426   48.7571   25.5332 H         1 UNK         0.0000 
     45 H45         1.2923   49.1664   25.0643 H         1 UNK         0.0000 
@<TRIPOS>BOND
     1    1    2 1    
     2    1   28 1    
     3    1   29 1    
     4    1   30 1    
     5    2    7 ar   
     6    2    3 ar   
     7    3    4 ar   
     8    3   31 1    
     9    4    5 ar   
    10    4   32 1    
    11    5    6 ar   
    12    5   27 1    
    13    6    7 ar   
    14    6   33 1    
    15    7    8 1    
    16    8    9 am   BACKBONE|DICT|INTERRES
    17    8   34 1    
    18    9   10 2    
    19    9   11 1    
    20   11   12 1    
    21   11   13 1    
    22   11   14 1    
    23   13   35 1    
    24   13   36 1    
    25   13   37 1    
    26   14   15 1    
    27   15   23 ar   
    28   15   16 ar   
    29   16   17 ar   
    30   17   18 ar   
    31   17   26 1    
    32   18   22 ar   
    33   18   19 1    
    34   19   20 2    
    35   19   25 1    
    36   20   21 1    
    37   20   24 1    
    38   21   22 1    
    39   22   23 ar   
    40   24   38 1    
    41   24   39 1    
    42   24   40 1    
    43   25   41 1    
    44   25   42 1    
    45   25   43 1    
    46   26   44 1    
    47   26   45 1    
@<TRIPOS>SUBSTRUCTURE
     1 UNK         1 GROUP             0       ****    0 ROOT    
