@<TRIPOS>MOLECULE
ZINC13511775_5137
63   65    1
SMALL
USER_CHARGES


@<TRIPOS>ATOM
      1 C1          6.5332   54.3019   24.3322 C.3       1 UNK         0.0000 
      2 C2          5.5408   54.2385   25.4797 C.ar      1 UNK         0.0000 
      3 C3          5.9930   54.2196   26.8024 C.ar      1 UNK         0.0000 
      4 C4          5.0756   54.1443   27.8485 C.ar      1 UNK         0.0000 
      5 C5          3.7097   54.0858   27.5650 C.ar      1 UNK         0.0000 
      6 C6          3.2576   54.0961   26.2457 C.ar      1 UNK         0.0000 
      7 C7          4.1753   54.1676   25.2023 C.ar      1 UNK         0.0000 
      8 S8          2.5178   54.0246   28.8969 S.o2      1 UNK         0.0000 
      9 O9          1.8839   55.3481   28.9440 O.2       1 UNK         0.0000 
     10 O10         3.2081   53.5009   30.0826 O.2       1 UNK         0.0000 
     11 N11         1.3052   52.8361   28.3882 N.pl3     1 UNK         0.0000 
     12 C12         1.6486   51.4006   28.3112 C.3       1 UNK         0.0000 
     13 C13         1.0164   50.7938   27.0378 C.3       1 UNK         0.0000 
     14 C14        -0.5071   51.0734   27.0092 C.3       1 UNK         0.0000 
     15 C15        -0.8388   52.5700   27.1872 C.3       1 UNK         0.0000 
     16 C16        -0.1388   53.1541   28.4335 C.3       1 UNK         0.0000 
     17 C17        -1.1218   50.5103   25.7076 C.2       1 UNK         0.0000 
     18 O18        -1.4036   51.2575   24.7675 O.2       1 UNK         0.0000 
     19 N19        -1.3630   49.1905   25.6819 N.am      1 UNK         0.0000 
     20 C20        -2.0571   48.4703   24.6049 C.3       1 UNK         0.0000 
     21 H21        -2.6505   49.2018   24.0527 H         1 UNK         0.0000 
     22 C22        -1.0414   47.8247   23.5900 C.3       1 UNK         0.0000 
     23 C23        -0.1301   48.8964   22.9443 C.3       1 UNK         0.0000 
     24 C24        -1.6439   46.9500   22.4675 C.3       1 UNK         0.0000 
     25 C25        -3.1364   47.4776   25.1446 C.2       1 UNK         0.0000 
     26 O26        -3.8762   46.9149   24.3344 O.2       1 UNK         0.0000 
     27 N27        -3.2956   47.3714   26.4844 N.am      1 UNK         0.0000 
     28 C28        -4.3952   46.7900   27.1293 C.ar      1 UNK         0.0000 
     29 C29        -5.0721   47.5758   28.0670 C.ar      1 UNK         0.0000 
     30 C30        -6.1880   47.0670   28.7311 C.ar      1 UNK         0.0000 
     31 C31        -6.6192   45.7651   28.4757 C.ar      1 UNK         0.0000 
     32 C32        -5.9169   44.9612   27.5784 C.ar      1 UNK         0.0000 
     33 C33        -4.7974   45.4628   26.9127 C.ar      1 UNK         0.0000 
     34 F34        -4.1036   44.6545   26.0816 F         1 UNK         0.0000 
     35 F35        -7.6960   45.2743   29.1267 F         1 UNK         0.0000 
     36 H36         7.5055   53.9080   24.6274 H         1 UNK         0.0000 
     37 H37         6.1907   53.6829   23.4987 H         1 UNK         0.0000 
     38 H38         6.6497   55.3272   23.9722 H         1 UNK         0.0000 
     39 H39         7.0498   54.2565   27.0242 H         1 UNK         0.0000 
     40 H40         5.4294   54.1426   28.8708 H         1 UNK         0.0000 
     41 H41         2.2003   54.0575   26.0249 H         1 UNK         0.0000 
     42 H42         3.8230   54.1767   24.1815 H         1 UNK         0.0000 
     43 H43         1.2518   50.9012   29.1964 H         1 UNK         0.0000 
     44 H44         2.7325   51.2972   28.3279 H         1 UNK         0.0000 
     45 H45         1.2403   49.7257   27.0142 H         1 UNK         0.0000 
     46 H46         1.4988   51.3195   26.2124 H         1 UNK         0.0000 
     47 H47        -0.9657   50.4967   27.8119 H         1 UNK         0.0000 
     48 H48        -0.4247   53.1014   26.3334 H         1 UNK         0.0000 
     49 H49        -1.9116   52.7288   27.2811 H         1 UNK         0.0000 
     50 H50        -0.5573   52.7016   29.3329 H         1 UNK         0.0000 
     51 H51        -0.2783   54.2310   28.5045 H         1 UNK         0.0000 
     52 H52        -1.1536   48.6616   26.5280 H         1 UNK         0.0000 
     53 H53        -0.3774   47.1757   24.1638 H         1 UNK         0.0000 
     54 H54        -0.7208   49.6993   22.5015 H         1 UNK         0.0000 
     55 H55         0.5405   49.3435   23.6782 H         1 UNK         0.0000 
     56 H56         0.5004   48.4968   22.1534 H         1 UNK         0.0000 
     57 H57        -2.4470   47.4695   21.9453 H         1 UNK         0.0000 
     58 H58        -0.8960   46.6764   21.7227 H         1 UNK         0.0000 
     59 H59        -2.0400   46.0125   22.8543 H         1 UNK         0.0000 
     60 H60        -2.6557   47.8702   27.1010 H         1 UNK         0.0000 
     61 H61        -4.7468   48.5871   28.2749 H         1 UNK         0.0000 
     62 H62        -6.7207   47.6791   29.4426 H         1 UNK         0.0000 
     63 H63        -6.2361   43.9443   27.4039 H         1 UNK         0.0000 
@<TRIPOS>BOND
     1    1    2 1    
     2    1   36 1    
     3    1   37 1    
     4    1   38 1    
     5    2    7 ar   
     6    2    3 ar   
     7    3    4 ar   
     8    3   39 1    
     9    4    5 ar   
    10    4   40 1    
    11    5    6 ar   
    12    5    8 1    
    13    6    7 ar   
    14    6   41 1    
    15    7   42 1    
    16    8    9 2    
    17    8   10 2    
    18    8   11 1    
    19   11   16 1    
    20   11   12 1    
    21   12   13 1    
    22   12   43 1    
    23   12   44 1    
    24   13   14 1    
    25   13   45 1    
    26   13   46 1    
    27   14   15 1    
    28   14   17 1    
    29   14   47 1    
    30   15   16 1    
    31   15   48 1    
    32   15   49 1    
    33   16   50 1    
    34   16   51 1    
    35   17   18 2    
    36   17   19 am   BACKBONE|DICT|INTERRES
    37   19   20 1    
    38   19   52 1    
    39   20   21 1    
    40   20   22 1    
    41   20   25 1    
    42   22   23 1    
    43   22   24 1    
    44   22   53 1    
    45   23   54 1    
    46   23   55 1    
    47   23   56 1    
    48   24   57 1    
    49   24   58 1    
    50   24   59 1    
    51   25   26 2    
    52   25   27 am   BACKBONE|DICT|INTERRES
    53   27   28 1    
    54   27   60 1    
    55   28   33 ar   
    56   28   29 ar   
    57   29   30 ar   
    58   29   61 1    
    59   30   31 ar   
    60   30   62 1    
    61   31   32 ar   
    62   31   35 1    
    63   32   33 ar   
    64   32   63 1    
    65   33   34 1    
@<TRIPOS>SUBSTRUCTURE
     1 UNK         1 GROUP             0       ****    0 ROOT    
