@<TRIPOS>MOLECULE
ZINC00735874_6116
73   77    1
SMALL
USER_CHARGES


@<TRIPOS>ATOM
      1 C1          5.2092   57.1439   17.9531 C.3       1 UNK         0.0000 
      2 C2          6.7141   57.0504   18.1743 C.ar      1 UNK         0.0000 
      3 C3          7.5009   58.1796   17.9204 C.ar      1 UNK         0.0000 
      4 C4          8.8889   58.1135   18.0369 C.ar      1 UNK         0.0000 
      5 C5          9.5033   56.9162   18.4000 C.ar      1 UNK         0.0000 
      6 C6          8.7318   55.7855   18.6645 C.ar      1 UNK         0.0000 
      7 C7          7.3383   55.8481   18.5728 C.ar      1 UNK         0.0000 
      8 N8          6.6108   54.6874   18.8710 N.am      1 UNK         0.0000 
      9 C9          5.8138   54.5539   19.9470 C.2       1 UNK         0.0000 
     10 O10         5.7529   55.3845   20.8542 O.2       1 UNK         0.0000 
     11 N11         5.1044   53.4077   19.8870 N.am      1 UNK         0.0000 
     12 C12         4.0746   52.9543   20.7357 C.ar      1 UNK         0.0000 
     13 C13         3.5155   53.6896   21.7890 C.ar      1 UNK         0.0000 
     14 C14         2.4775   53.1476   22.5378 C.ar      1 UNK         0.0000 
     15 C15         1.9602   51.8780   22.2608 C.ar      1 UNK         0.0000 
     16 C16         2.4850   51.1392   21.1713 C.ar      1 UNK         0.0000 
     17 C17         3.5678   51.6835   20.4642 C.ar      1 UNK         0.0000 
     18 C18         2.0253   49.7346   20.8208 C.2       1 UNK         0.0000 
     19 O19         1.9057   48.8970   21.7105 O.2       1 UNK         0.0000 
     20 N20         1.7909   49.4187   19.5211 N.am      1 UNK         0.0000 
     21 C21         1.3730   48.0674   19.1230 C.3       1 UNK         0.0000 
     22 C22         1.3200   48.1490   17.6012 C.3       1 UNK         0.0000 
     23 C23         0.9893   49.6044   17.3279 C.3       1 UNK         0.0000 
     24 C24         1.7812   50.3591   18.3904 C.3       1 UNK         0.0000 
     25 N25         0.9168   51.4734   23.0800 N.pl3     1 UNK         0.0000 
     26 C26        -0.4913   51.7159   22.7634 C.3       1 UNK         0.0000 
     27 C27        -1.2413   52.1737   24.0410 C.3       1 UNK         0.0000 
     28 C28        -1.0250   51.2533   25.2746 C.3       1 UNK         0.0000 
     29 C29         0.4610   50.8335   25.3893 C.3       1 UNK         0.0000 
     30 C30         1.0396   50.3754   24.0385 C.3       1 UNK         0.0000 
     31 C31        -1.5821   51.8237   26.6015 C.3       1 UNK         0.0000 
     32 C32        -3.1050   51.8688   26.6847 C.ar      1 UNK         0.0000 
     33 C33        -3.8181   52.9059   26.0748 C.ar      1 UNK         0.0000 
     34 C34        -5.2067   52.9421   26.1575 C.ar      1 UNK         0.0000 
     35 C35        -5.8830   51.9539   26.8730 C.ar      1 UNK         0.0000 
     36 C36        -5.1786   50.9238   27.4965 C.ar      1 UNK         0.0000 
     37 C37        -3.7892   50.8824   27.4035 C.ar      1 UNK         0.0000 
     38 H38         4.6726   56.9627   18.8818 H         1 UNK         0.0000 
     39 H39         4.9038   58.1177   17.5687 H         1 UNK         0.0000 
     40 H40         4.8896   56.3825   17.2436 H         1 UNK         0.0000 
     41 H41         7.0421   59.1127   17.6149 H         1 UNK         0.0000 
     42 H42         9.4897   58.9866   17.8305 H         1 UNK         0.0000 
     43 H43        10.5811   56.8659   18.4809 H         1 UNK         0.0000 
     44 H44         9.2250   54.8674   18.9523 H         1 UNK         0.0000 
     45 H45         6.7587   53.8920   18.2715 H         1 UNK         0.0000 
     46 H46         5.3083   52.7830   19.1200 H         1 UNK         0.0000 
     47 H47         3.8509   54.6833   22.0427 H         1 UNK         0.0000 
     48 H48         2.0659   53.7339   23.3479 H         1 UNK         0.0000 
     49 H49         4.0286   51.1039   19.6815 H         1 UNK         0.0000 
     50 H50         2.0791   47.3009   19.4517 H         1 UNK         0.0000 
     51 H51         0.3778   47.8620   19.5194 H         1 UNK         0.0000 
     52 H52         2.3038   47.9150   17.1850 H         1 UNK         0.0000 
     53 H53         0.6111   47.4475   17.1603 H         1 UNK         0.0000 
     54 H54        -0.0808   49.7769   17.4615 H         1 UNK         0.0000 
     55 H55         1.2472   49.9208   16.3162 H         1 UNK         0.0000 
     56 H56         1.2926   51.3068   18.6237 H         1 UNK         0.0000 
     57 H57         2.8006   50.4977   18.0289 H         1 UNK         0.0000 
     58 H58        -0.5640   52.4966   22.0057 H         1 UNK         0.0000 
     59 H59        -0.9352   50.8133   22.3394 H         1 UNK         0.0000 
     60 H60        -0.8870   53.1802   24.2707 H         1 UNK         0.0000 
     61 H61        -2.3053   52.2995   23.8394 H         1 UNK         0.0000 
     62 H62        -1.5519   50.3254   25.0421 H         1 UNK         0.0000 
     63 H63         0.5741   50.0546   26.1448 H         1 UNK         0.0000 
     64 H64         1.0691   51.6633   25.7561 H         1 UNK         0.0000 
     65 H65         0.4811   49.5102   23.6743 H         1 UNK         0.0000 
     66 H66         2.0816   50.0669   24.1167 H         1 UNK         0.0000 
     67 H67        -1.2134   51.2269   27.4379 H         1 UNK         0.0000 
     68 H68        -1.1866   52.8246   26.7788 H         1 UNK         0.0000 
     69 H69        -3.2952   53.6747   25.5239 H         1 UNK         0.0000 
     70 H70        -5.7602   53.7345   25.6762 H         1 UNK         0.0000 
     71 H71        -6.9608   51.9833   26.9423 H         1 UNK         0.0000 
     72 H72        -5.7074   50.1610   28.0527 H         1 UNK         0.0000 
     73 H73        -3.2430   50.0882   27.8955 H         1 UNK         0.0000 
@<TRIPOS>BOND
     1    1    2 1    
     2    1   38 1    
     3    1   39 1    
     4    1   40 1    
     5    2    7 ar   
     6    2    3 ar   
     7    3    4 ar   
     8    3   41 1    
     9    4    5 ar   
    10    4   42 1    
    11    5    6 ar   
    12    5   43 1    
    13    6    7 ar   
    14    6   44 1    
    15    7    8 1    
    16    8    9 am   BACKBONE|DICT|INTERRES
    17    8   45 1    
    18    9   10 2    
    19    9   11 am   BACKBONE|DICT|INTERRES
    20   11   12 1    
    21   11   46 1    
    22   12   17 ar   
    23   12   13 ar   
    24   13   14 ar   
    25   13   47 1    
    26   14   15 ar   
    27   14   48 1    
    28   15   16 ar   
    29   15   25 1    
    30   16   17 ar   
    31   16   18 1    
    32   17   49 1    
    33   18   19 2    
    34   18   20 am   BACKBONE|DICT|INTERRES
    35   20   24 1    
    36   20   21 1    
    37   21   22 1    
    38   21   50 1    
    39   21   51 1    
    40   22   23 1    
    41   22   52 1    
    42   22   53 1    
    43   23   24 1    
    44   23   54 1    
    45   23   55 1    
    46   24   56 1    
    47   24   57 1    
    48   25   30 1    
    49   25   26 1    
    50   26   27 1    
    51   26   58 1    
    52   26   59 1    
    53   27   28 1    
    54   27   60 1    
    55   27   61 1    
    56   28   29 1    
    57   28   31 1    
    58   28   62 1    
    59   29   30 1    
    60   29   63 1    
    61   29   64 1    
    62   30   65 1    
    63   30   66 1    
    64   31   32 1    
    65   31   67 1    
    66   31   68 1    
    67   32   37 ar   
    68   32   33 ar   
    69   33   34 ar   
    70   33   69 1    
    71   34   35 ar   
    72   34   70 1    
    73   35   36 ar   
    74   35   71 1    
    75   36   37 ar   
    76   36   72 1    
    77   37   73 1    
@<TRIPOS>SUBSTRUCTURE
     1 UNK         1 GROUP             0       ****    0 ROOT    
