ZINC06757815_1702
                    3D
 Schrodinger Suite 2024-2.
 32 34  0  0  1  0            999 V2000
    5.8334   54.6032   21.3821 C   0  0  0  0  0  0
    6.7042   54.8967   22.9516 S   0  0  0  0  0  0
    5.4236   54.5393   24.1147 C   0  0  0  0  0  0
    5.6040   54.7527   25.4104 N   0  0  0  0  0  0
    4.4672   54.3645   25.9240 C   0  0  0  0  0  0
    3.6179   53.9108   24.9460 N   0  0  0  0  0  0
    4.2412   54.0670   23.7692 N   0  0  0  0  0  0
    2.3740   53.3132   25.2155 C   0  0  0  0  0  0
    1.9451   53.2848   26.4951 C   0  0  0  0  0  0
    2.7072   53.9827   27.6478 C   0  0  2  0  0  0
    2.2224   54.9519   27.7780 H   0  0  0  0  0  0
    4.1024   54.2950   27.2547 N   0  0  0  0  0  0
    2.5630   53.3168   29.0264 C   0  0  0  0  0  0
    3.6491   52.6840   29.6490 C   0  0  0  0  0  0
    3.4966   52.0967   30.9003 C   0  0  0  0  0  0
    2.2470   52.0967   31.5158 C   0  0  0  0  0  0
    1.1598   52.7242   30.9136 C   0  0  0  0  0  0
    1.3247   53.3509   29.6816 C   0  0  0  0  0  0
    0.7129   52.6191   26.7825 C   0  0  0  0  0  0
   -0.3004   52.0969   26.9781 N   0  0  0  0  0  0
    1.7283   52.7646   24.1313 N   0  0  0  0  0  0
    6.5031   54.8074   20.5466 H   0  0  0  0  0  0
    4.9713   55.2630   21.2875 H   0  0  0  0  0  0
    5.5044   53.5663   21.3051 H   0  0  0  0  0  0
    4.6861   54.6695   27.9882 H   0  0  0  0  0  0
    4.6173   52.6397   29.1713 H   0  0  0  0  0  0
    4.3406   51.6270   31.3840 H   0  0  0  0  0  0
    2.1200   51.6276   32.4814 H   0  0  0  0  0  0
    0.1966   52.7271   31.4064 H   0  0  0  0  0  0
    0.4768   53.8414   29.2256 H   0  0  0  0  0  0
    0.8597   52.2604   24.2395 H   0  0  0  0  0  0
    2.1299   52.8223   23.2060 H   0  0  0  0  0  0
  1  2  1  0  0  0
  1 22  1  0  0  0
  1 23  1  0  0  0
  1 24  1  0  0  0
  2  3  1  0  0  0
  3  7  2  0  0  0
  3  4  1  0  0  0
  4  5  2  0  0  0
  5 12  1  0  0  0
  5  6  1  0  0  0
  6  7  1  0  0  0
  6  8  1  0  0  0
  8  9  2  0  0  0
  8 21  1  0  0  0
  9 10  1  0  0  0
  9 19  1  0  0  0
 10 11  1  0  0  0
 10 12  1  0  0  0
 10 13  1  0  0  0
 12 25  1  0  0  0
 13 18  2  0  0  0
 13 14  1  0  0  0
 14 15  2  0  0  0
 14 26  1  0  0  0
 15 16  1  0  0  0
 15 27  1  0  0  0
 16 17  2  0  0  0
 16 28  1  0  0  0
 17 18  1  0  0  0
 17 29  1  0  0  0
 18 30  1  0  0  0
 19 20  3  0  0  0
 21 31  1  0  0  0
 21 32  1  0  0  0
M  END
> <i_i_glide_confnum>
2

> <i_i_glide_lignum>
1703

> <i_i_glide_posenum>
280

> <i_i_glide_rotatable_bonds>
3

> <i_m_Source_File_Index>
4564

> <b_m_subgroup_collapsed>
0

> <r_i_docking_score>
-6.03032

> <r_i_glide_ecoul>
-1.63739

> <r_i_glide_eff_state_penalty>
0

> <r_i_glide_einternal>
1.39899

> <r_i_glide_emodel>
-49.4794

> <r_i_glide_energy>
-36.4249

> <r_i_glide_erotb>
0.224187

> <r_i_glide_esite>
0

> <r_i_glide_evdw>
-34.7875

> <r_i_glide_gscore>
-6.03032

> <r_i_glide_hbond>
0

> <r_i_glide_ligand_efficiency>
-0.301516

> <r_i_glide_ligand_efficiency_ln>
-1.50919

> <r_i_glide_ligand_efficiency_sa>
-0.818441

> <r_i_glide_lipo>
-1.66063

> <r_i_glide_metal>
0

> <r_i_glide_rewards>
-2.60889

> <s_i_glide_gridfile>
wee1_glide-grid

> <s_m_Source_File>
wee1_decoys_glide_SP.sdf

> <s_m_Source_Path>
/Users/zhangxujun/Desktop

> <s_m_entry_id>
4839

> <s_m_entry_name>
wee1_decoys_glide_SP.4564

> <s_m_subgroup_title>
wee1_decoys_glide_SP

> <s_m_subgroupid>
wee1_decoys_glide_SP


$$$$
