ZINC35426984_758
                    3D
 Schrodinger Suite 2024-2.
 67 72  0  0  1  0            999 V2000
    6.9256   55.2063   24.8352 C   0  0  0  0  0  0
    6.3026   54.8598   23.4959 C   0  0  0  0  0  0
    6.8677   55.3256   22.3052 C   0  0  0  0  0  0
    6.2553   55.0552   21.0799 C   0  0  0  0  0  0
    5.0887   54.2931   21.0378 C   0  0  0  0  0  0
    4.5289   53.8013   22.2245 C   0  0  0  0  0  0
    5.1297   54.0967   23.4527 C   0  0  0  0  0  0
    3.3887   52.9814   22.1929 N   0  0  0  0  0  0
    3.3822   51.7500   21.6351 C   0  0  0  0  0  0
    4.4094   51.2968   21.1188 O   0  0  0  0  0  0
    2.2711   50.9762   21.8489 N   0  0  0  0  0  0
    2.3866   49.5203   21.5519 C   0  0  0  0  0  0
    1.1383   48.8971   20.9488 C   0  0  0  0  0  0
    1.0233   48.3747   19.6480 C   0  0  0  0  0  0
   -0.2433   47.8398   19.3840 C   0  0  0  0  0  0
   -1.3063   47.9892   20.7461 S   0  0  0  0  0  0
   -0.0715   48.7952   21.6495 C   0  0  0  0  0  0
   -0.1716   49.3245   22.9187 N   0  0  0  0  0  0
   -0.6909   48.7102   24.0334 C   0  0  0  0  0  0
   -0.5776   49.5669   25.1125 C   0  0  0  0  0  0
    0.0228   50.7361   24.6368 C   0  0  0  0  0  0
    0.2804   50.5896   23.2756 C   0  0  0  0  0  0
    0.9285   51.5241   22.2334 C   0  0  2  0  0  0
    1.0521   52.4928   22.7140 H   0  0  0  0  0  0
    0.0010   51.8130   21.0198 C   0  0  0  0  0  0
    0.5368   52.0967   19.7540 C   0  0  0  0  0  0
   -0.2907   52.2374   18.6430 C   0  0  0  0  0  0
   -1.6791   52.0959   18.7753 C   0  0  0  0  0  0
   -2.2150   51.8170   20.0268 C   0  0  0  0  0  0
   -1.3909   51.6991   21.1413 C   0  0  0  0  0  0
   -2.5813   52.2261   17.7399 O   0  0  0  0  0  0
   -2.1015   52.5303   16.4355 C   0  0  0  0  0  0
   -0.6426   47.1567   18.0870 C   0  0  0  0  0  0
    0.3239   47.7000   17.0037 N   0  3  1  0  0  0
    1.7951   47.4518   17.4101 C   0  0  0  0  0  0
    2.1437   48.3700   18.6034 C   0  0  0  0  0  0
    0.0246   47.0098   15.6561 C   0  0  0  0  0  0
    7.5037   54.3656   25.2181 H   0  0  0  0  0  0
    7.5606   56.0859   24.7525 H   0  0  0  0  0  0
    6.1487   55.4451   25.5638 H   0  0  0  0  0  0
    7.7792   55.9054   22.3267 H   0  0  0  0  0  0
    6.6934   55.4215   20.1614 H   0  0  0  0  0  0
    4.6282   54.0692   20.0845 H   0  0  0  0  0  0
    4.6954   53.7195   24.3683 H   0  0  0  0  0  0
    2.5834   53.2863   22.7184 H   0  0  0  0  0  0
    3.2170   49.3106   20.8864 H   0  0  0  0  0  0
    2.6575   49.0035   22.4735 H   0  0  0  0  0  0
   -1.0848   47.7062   23.9720 H   0  0  0  0  0  0
   -0.8866   49.3628   26.1316 H   0  0  0  0  0  0
    0.2631   51.6055   25.2307 H   0  0  0  0  0  0
    1.6012   52.2020   19.6081 H   0  0  0  0  0  0
    0.1675   52.4563   17.6896 H   0  0  0  0  0  0
   -3.2831   51.6960   20.1320 H   0  0  0  0  0  0
   -1.8489   51.4832   22.0945 H   0  0  0  0  0  0
   -1.4459   51.7430   16.0577 H   0  0  0  0  0  0
   -2.9447   52.6177   15.7501 H   0  0  0  0  0  0
   -1.5646   53.4804   16.4196 H   0  0  0  0  0  0
   -0.5325   46.0722   18.1373 H   0  0  0  0  0  0
   -1.6497   47.4154   17.7517 H   0  0  0  0  0  0
    1.8953   46.3900   17.6443 H   0  0  0  0  0  0
    2.4218   47.6962   16.5484 H   0  0  0  0  0  0
    2.2915   49.3884   18.2390 H   0  0  0  0  0  0
    3.1040   48.0726   19.0241 H   0  0  0  0  0  0
   -1.0106   47.2322   15.3950 H   0  0  0  0  0  0
    0.7049   47.4350   14.9165 H   0  0  0  0  0  0
    0.1860   45.9375   15.7733 H   0  0  0  0  0  0
    0.1901   48.6974   16.8847 H   0  0  0  0  0  0
  1  2  1  0  0  0
  1 38  1  0  0  0
  1 39  1  0  0  0
  1 40  1  0  0  0
  2  7  2  0  0  0
  2  3  1  0  0  0
  3  4  2  0  0  0
  3 41  1  0  0  0
  4  5  1  0  0  0
  4 42  1  0  0  0
  5  6  2  0  0  0
  5 43  1  0  0  0
  6  7  1  0  0  0
  6  8  1  0  0  0
  7 44  1  0  0  0
  8  9  1  0  0  0
  8 45  1  0  0  0
  9 10  2  0  0  0
  9 11  1  0  0  0
 11 23  1  0  0  0
 11 12  1  0  0  0
 12 13  1  0  0  0
 12 46  1  0  0  0
 12 47  1  0  0  0
 13 17  2  0  0  0
 13 14  1  0  0  0
 14 36  1  0  0  0
 14 15  2  0  0  0
 15 16  1  0  0  0
 15 33  1  0  0  0
 16 17  1  0  0  0
 17 18  1  0  0  0
 18 22  1  0  0  0
 18 19  1  0  0  0
 19 20  2  0  0  0
 19 48  1  0  0  0
 20 21  1  0  0  0
 20 49  1  0  0  0
 21 22  2  0  0  0
 21 50  1  0  0  0
 22 23  1  0  0  0
 23 24  1  0  0  0
 23 25  1  0  0  0
 25 30  2  0  0  0
 25 26  1  0  0  0
 26 27  2  0  0  0
 26 51  1  0  0  0
 27 28  1  0  0  0
 27 52  1  0  0  0
 28 29  2  0  0  0
 28 31  1  0  0  0
 29 30  1  0  0  0
 29 53  1  0  0  0
 30 54  1  0  0  0
 31 32  1  0  0  0
 32 55  1  0  0  0
 32 56  1  0  0  0
 32 57  1  0  0  0
 33 34  1  0  0  0
 33 58  1  0  0  0
 33 59  1  0  0  0
 34 35  1  0  0  0
 34 37  1  0  0  0
 34 67  1  0  0  0
 35 36  1  0  0  0
 35 60  1  0  0  0
 35 61  1  0  0  0
 36 62  1  0  0  0
 36 63  1  0  0  0
 37 64  1  0  0  0
 37 65  1  0  0  0
 37 66  1  0  0  0
M  CHG  1  34   1
M  END
> <i_i_glide_confnum>
60

> <i_i_glide_lignum>
759

> <i_i_glide_posenum>
147

> <i_i_glide_rotatable_bonds>
5

> <i_m_Source_File_Index>
1440

> <b_m_subgroup_collapsed>
0

> <r_i_docking_score>
-2.96662

> <r_i_glide_ecoul>
-5.19072

> <r_i_glide_eff_state_penalty>
0

> <r_i_glide_einternal>
3.45898

> <r_i_glide_emodel>
-45.4987

> <r_i_glide_energy>
-42.24

> <r_i_glide_erotb>
0.327089

> <r_i_glide_esite>
-0.0200981

> <r_i_glide_evdw>
-37.0493

> <r_i_glide_gscore>
-2.96662

> <r_i_glide_hbond>
0

> <r_i_glide_ligand_efficiency>
-0.0824061

> <r_i_glide_ligand_efficiency_ln>
-0.647237

> <r_i_glide_ligand_efficiency_sa>
-0.272099

> <r_i_glide_lipo>
-1.59864

> <r_i_glide_metal>
0

> <r_i_glide_rewards>
0.956102

> <s_i_glide_gridfile>
wee1_glide-grid

> <s_m_Source_File>
wee1_decoys_glide_SP.sdf

> <s_m_Source_Path>
/Users/zhangxujun/Desktop

> <s_m_entry_id>
1715

> <s_m_entry_name>
wee1_decoys_glide_SP.1440

> <s_m_subgroup_title>
wee1_decoys_glide_SP

> <s_m_subgroupid>
wee1_decoys_glide_SP


$$$$
