@<TRIPOS>MOLECULE
ZINC14885806_114
65   69    1
SMALL
USER_CHARGES


@<TRIPOS>ATOM
      1 C1          0.4953   51.9841   23.2249 C.ar      1 UNK         0.0000 
      2 C2         -0.0632   50.7393   23.5733 C.ar      1 UNK         0.0000 
      3 C3         -0.6253   49.8615   22.6043 C.ar      1 UNK         0.0000 
      4 C4         -1.0956   48.6377   23.0455 C.ar      1 UNK         0.0000 
      5 C5         -1.0505   48.2605   24.3558 C.ar      1 UNK         0.0000 
      6 C6         -0.5345   49.0846   25.3481 C.ar      1 UNK         0.0000 
      7 C7         -0.0281   50.3570   24.9528 C.ar      1 UNK         0.0000 
      8 N8          0.5063   51.1754   25.8973 N.ar      1 UNK         0.0000 
      9 C9          1.1045   52.3464   25.5348 C.ar      1 UNK         0.0000 
     10 C10         1.1261   52.7764   24.1879 C.ar      1 UNK         0.0000 
     11 C11         1.7533   54.0809   23.6930 C.3       1 UNK         0.0000 
     12 N12         3.1899   53.9303   23.1474 N.4       1 UNK         0.0000 
     13 C13         3.3407   52.9543   21.9640 C.3       1 UNK         0.0000 
     14 C14         4.8175   52.8149   21.5629 C.3       1 UNK         0.0000 
     15 C15         5.4879   54.0979   21.0990 C.2       1 UNK         0.0000 
     16 C16         5.2210   54.6219   19.8843 C.2       1 UNK         0.0000 
     17 C17         5.8518   55.8871   19.3122 C.3       1 UNK         0.0000 
     18 C18         6.6917   56.6471   20.3616 C.3       1 UNK         0.0000 
     19 C19         7.4431   55.7086   21.3201 C.3       1 UNK         0.0000 
     20 C20         6.4761   54.7607   22.0635 C.3       1 UNK         0.0000 
     21 N21         1.7022   53.0154   26.6091 N.pl3     1 UNK         0.0000 
     22 C22         2.9531   53.7951   26.5594 C.3       1 UNK         0.0000 
     23 C23         3.9296   53.4780   27.7177 C.3       1 UNK         0.0000 
     24 C24         3.2508   53.5370   29.0916 C.3       1 UNK         0.0000 
     25 C25         1.9832   52.6596   29.0811 C.3       1 UNK         0.0000 
     26 H26         2.3173   51.6546   28.8072 H         1 UNK         0.0000 
     27 C27         1.0657   53.1533   27.9359 C.3       1 UNK         0.0000 
     28 C28         1.2419   52.5728   30.4326 C.3       1 UNK         0.0000 
     29 O29         2.0992   52.0966   31.4512 O.3       1 UNK         0.0000 
     30 O30        -1.5418   46.9970   24.4711 O.3       1 UNK         0.0000 
     31 C31        -2.0671   46.6731   23.2108 C.3       1 UNK         0.0000 
     32 O32        -1.6172   47.6316   22.2962 O.3       1 UNK         0.0000 
     33 H33         0.4753   52.2865   22.1859 H         1 UNK         0.0000 
     34 H34        -0.6506   50.1438   21.5613 H         1 UNK         0.0000 
     35 H35        -0.4942   48.7783   26.3853 H         1 UNK         0.0000 
     36 H36         1.8031   54.8553   24.4574 H         1 UNK         0.0000 
     37 H37         1.1936   54.4977   22.8532 H         1 UNK         0.0000 
     38 H38         3.7884   53.6165   23.8982 H         1 UNK         0.0000 
     39 H39         2.7181   53.3510   21.1590 H         1 UNK         0.0000 
     40 H40         2.9510   51.9934   22.2957 H         1 UNK         0.0000 
     41 H41         4.8789   52.0916   20.7467 H         1 UNK         0.0000 
     42 H42         5.3953   52.3678   22.3736 H         1 UNK         0.0000 
     43 H43         4.5157   54.0935   19.2587 H         1 UNK         0.0000 
     44 H44         5.0905   56.5435   18.8864 H         1 UNK         0.0000 
     45 H45         6.4843   55.5905   18.4733 H         1 UNK         0.0000 
     46 H46         6.0365   57.2956   20.9427 H         1 UNK         0.0000 
     47 H47         7.3927   57.2970   19.8393 H         1 UNK         0.0000 
     48 H48         8.1655   55.1176   20.7536 H         1 UNK         0.0000 
     49 H49         8.0234   56.2765   22.0469 H         1 UNK         0.0000 
     50 H50         7.0465   54.0125   22.6172 H         1 UNK         0.0000 
     51 H51         5.9203   55.2981   22.8287 H         1 UNK         0.0000 
     52 H52         3.4875   53.5465   25.6450 H         1 UNK         0.0000 
     53 H53         2.7171   54.8595   26.5360 H         1 UNK         0.0000 
     54 H54         4.3905   52.5024   27.5520 H         1 UNK         0.0000 
     55 H55         4.7542   54.1904   27.6940 H         1 UNK         0.0000 
     56 H56         3.9410   53.1980   29.8655 H         1 UNK         0.0000 
     57 H57         3.0006   54.5613   29.3638 H         1 UNK         0.0000 
     58 H58         0.7259   54.1769   28.1103 H         1 UNK         0.0000 
     59 H59         0.1512   52.5589   27.9619 H         1 UNK         0.0000 
     60 H60         0.8584   53.5516   30.7231 H         1 UNK         0.0000 
     61 H61         0.3808   51.9079   30.3565 H         1 UNK         0.0000 
     62 H62         1.6153   52.0949   32.2855 H         1 UNK         0.0000 
     63 H63        -1.7213   45.6889   22.8994 H         1 UNK         0.0000 
     64 H64        -3.1576   46.7080   23.2509 H         1 UNK         0.0000 
     65 H65         3.5305   54.8332   22.8457 H         1 UNK         0.0000 
@<TRIPOS>BOND
     1    1   10 ar   
     2    1    2 ar   
     3    1   33 1    
     4    2    7 ar   
     5    2    3 ar   
     6    3    4 ar   
     7    3   34 1    
     8    4   32 1    
     9    4    5 ar   
    10    5    6 ar   
    11    5   30 1    
    12    6    7 ar   
    13    6   35 1    
    14    7    8 ar   
    15    8    9 ar   
    16    9   10 ar   
    17    9   21 1    
    18   10   11 1    
    19   11   12 1    
    20   11   36 1    
    21   11   37 1    
    22   12   13 1    
    23   12   38 1    
    24   12   65 1    
    25   13   14 1    
    26   13   39 1    
    27   13   40 1    
    28   14   15 1    
    29   14   41 1    
    30   14   42 1    
    31   15   20 1    
    32   15   16 2    
    33   16   17 1    
    34   16   43 1    
    35   17   18 1    
    36   17   44 1    
    37   17   45 1    
    38   18   19 1    
    39   18   46 1    
    40   18   47 1    
    41   19   20 1    
    42   19   48 1    
    43   19   49 1    
    44   20   50 1    
    45   20   51 1    
    46   21   27 1    
    47   21   22 1    
    48   22   23 1    
    49   22   52 1    
    50   22   53 1    
    51   23   24 1    
    52   23   54 1    
    53   23   55 1    
    54   24   25 1    
    55   24   56 1    
    56   24   57 1    
    57   25   26 1    
    58   25   27 1    
    59   25   28 1    
    60   27   58 1    
    61   27   59 1    
    62   28   29 1    
    63   28   60 1    
    64   28   61 1    
    65   29   62 1    
    66   30   31 1    
    67   31   32 1    
    68   31   63 1    
    69   31   64 1    
@<TRIPOS>SUBSTRUCTURE
     1 UNK         1 GROUP             0       ****    0 ROOT    
