ZINC09673637_4475
                    3D
 Schrodinger Suite 2024-2.
 55 58  0  0  1  0            999 V2000
    5.4860   57.2031   17.3963 C   0  0  0  0  0  0
    5.3225   56.1576   18.4846 C   0  0  0  0  0  0
    6.0632   56.2531   19.6645 C   0  0  0  0  0  0
    5.9043   55.2990   20.6673 C   0  0  0  0  0  0
    5.0088   54.2422   20.4848 C   0  0  0  0  0  0
    4.2912   54.1304   19.2927 C   0  0  0  0  0  0
    4.4409   55.0923   18.2976 C   0  0  0  0  0  0
    4.8594   52.9707   21.7386 S   0  0  0  0  0  0
    5.6869   53.3798   22.8813 O   0  0  0  0  0  0
    5.1043   51.6968   21.0594 O   0  0  0  0  0  0
    3.1221   52.9284   22.3027 C   0  0  0  0  0  0
    2.0989   52.2124   21.6497 C   0  0  0  0  0  0
    0.8696   52.2700   22.3008 C   0  0  0  0  0  0
    0.9481   53.2966   23.6909 S   0  0  0  0  0  0
    2.6675   53.4997   23.4971 C   0  0  0  0  0  0
    3.4490   54.1280   24.4439 N   0  0  0  0  0  0
    3.4488   54.0175   25.8496 C   0  0  0  0  0  0
    4.5111   54.6157   26.5303 C   0  0  0  0  0  0
    4.6298   54.4926   27.9146 C   0  0  0  0  0  0
    3.6972   53.7548   28.6424 C   0  0  0  0  0  0
    2.6193   53.1679   27.9666 C   0  0  0  0  0  0
    2.4992   53.2967   26.5857 C   0  0  0  0  0  0
    3.9044   53.6414   30.0041 O   0  0  0  0  0  0
    3.2599   52.5791   30.7016 C   0  0  0  0  0  0
   -0.3868   51.5912   22.0098 C   0  0  0  0  0  0
   -1.1706   52.0967   21.2045 O   0  0  0  0  0  0
   -0.6728   50.2797   22.6898 C   0  0  0  0  0  0
    0.2036   49.7257   23.6395 C   0  0  0  0  0  0
   -0.0957   48.5107   24.2529 C   0  0  0  0  0  0
   -1.2625   47.8314   23.9141 C   0  0  0  0  0  0
   -2.1403   48.3660   22.9766 C   0  0  0  0  0  0
   -1.8496   49.5856   22.3701 C   0  0  0  0  0  0
   -1.5413   46.6374   24.4860 F   0  0  0  0  0  0
    2.3009   51.4718   20.5196 N   0  0  0  0  0  0
    6.4308   57.7408   17.4890 H   0  0  0  0  0  0
    5.4867   56.7319   16.4128 H   0  0  0  0  0  0
    4.6655   57.9208   17.4263 H   0  0  0  0  0  0
    6.7568   57.0678   19.8040 H   0  0  0  0  0  0
    6.4871   55.3780   21.5737 H   0  0  0  0  0  0
    3.6171   53.3042   19.1284 H   0  0  0  0  0  0
    3.8740   55.0045   17.3819 H   0  0  0  0  0  0
    4.3614   54.4292   24.1258 H   0  0  0  0  0  0
    5.2640   55.1699   25.9888 H   0  0  0  0  0  0
    5.4652   54.9495   28.4256 H   0  0  0  0  0  0
    1.8733   52.5945   28.4948 H   0  0  0  0  0  0
    1.6769   52.7856   26.1192 H   0  0  0  0  0  0
    3.6745   52.4970   31.7067 H   0  0  0  0  0  0
    2.1878   52.7556   30.7972 H   0  0  0  0  0  0
    3.4221   51.6216   30.2051 H   0  0  0  0  0  0
    1.1234   50.2207   23.9176 H   0  0  0  0  0  0
    0.5794   48.0933   24.9871 H   0  0  0  0  0  0
   -3.0446   47.8341   22.7213 H   0  0  0  0  0  0
   -2.5476   49.9811   21.6450 H   0  0  0  0  0  0
    3.2381   51.3114   20.1637 H   0  0  0  0  0  0
    1.5511   50.9844   20.0520 H   0  0  0  0  0  0
  1  2  1  0  0  0
  1 35  1  0  0  0
  1 36  1  0  0  0
  1 37  1  0  0  0
  2  7  2  0  0  0
  2  3  1  0  0  0
  3  4  2  0  0  0
  3 38  1  0  0  0
  4  5  1  0  0  0
  4 39  1  0  0  0
  5  6  2  0  0  0
  5  8  1  0  0  0
  6  7  1  0  0  0
  6 40  1  0  0  0
  7 41  1  0  0  0
  8  9  2  0  0  0
  8 10  2  0  0  0
  8 11  1  0  0  0
 11 15  2  0  0  0
 11 12  1  0  0  0
 12 13  2  0  0  0
 12 34  1  0  0  0
 13 14  1  0  0  0
 13 25  1  0  0  0
 14 15  1  0  0  0
 15 16  1  0  0  0
 16 17  1  0  0  0
 16 42  1  0  0  0
 17 22  2  0  0  0
 17 18  1  0  0  0
 18 19  2  0  0  0
 18 43  1  0  0  0
 19 20  1  0  0  0
 19 44  1  0  0  0
 20 21  2  0  0  0
 20 23  1  0  0  0
 21 22  1  0  0  0
 21 45  1  0  0  0
 22 46  1  0  0  0
 23 24  1  0  0  0
 24 47  1  0  0  0
 24 48  1  0  0  0
 24 49  1  0  0  0
 25 26  2  0  0  0
 25 27  1  0  0  0
 27 32  2  0  0  0
 27 28  1  0  0  0
 28 29  2  0  0  0
 28 50  1  0  0  0
 29 30  1  0  0  0
 29 51  1  0  0  0
 30 31  2  0  0  0
 30 33  1  0  0  0
 31 32  1  0  0  0
 31 52  1  0  0  0
 32 53  1  0  0  0
 34 54  1  0  0  0
 34 55  1  0  0  0
M  END
> <i_i_glide_confnum>
34

> <i_i_glide_lignum>
4476

> <i_i_glide_posenum>
33

> <i_i_glide_rotatable_bonds>
7

> <i_m_Source_File_Index>
3098

> <b_m_subgroup_collapsed>
0

> <r_i_docking_score>
-5.31037

> <r_i_glide_ecoul>
-4.35453

> <r_i_glide_eff_state_penalty>
0

> <r_i_glide_einternal>
15.4435

> <r_i_glide_emodel>
-60.4131

> <r_i_glide_energy>
-51.7548

> <r_i_glide_erotb>
0.496211

> <r_i_glide_esite>
-0.0895198

> <r_i_glide_evdw>
-47.4003

> <r_i_glide_gscore>
-5.31037

> <r_i_glide_hbond>
-0.217986

> <r_i_glide_ligand_efficiency>
-0.156187

> <r_i_glide_ligand_efficiency_ln>
-1.17321

> <r_i_glide_ligand_efficiency_sa>
-0.505987

> <r_i_glide_lipo>
-2.25475

> <r_i_glide_metal>
0

> <r_i_glide_rewards>
-0.221139

> <s_i_glide_gridfile>
wee1_glide-grid

> <s_m_Source_File>
wee1_decoys_glide_SP.sdf

> <s_m_Source_Path>
/Users/zhangxujun/Desktop

> <s_m_entry_id>
3373

> <s_m_entry_name>
wee1_decoys_glide_SP.3098

> <s_m_subgroup_title>
wee1_decoys_glide_SP

> <s_m_subgroupid>
wee1_decoys_glide_SP


$$$$
