@<TRIPOS>MOLECULE
ZINC13272892_5791
49   51    1
SMALL
USER_CHARGES


@<TRIPOS>ATOM
      1 C1          5.6744   54.8997   25.2856 C.ar      1 UNK         0.0000 
      2 C2          6.1585   54.7075   26.5764 C.ar      1 UNK         0.0000 
      3 C3          5.3545   54.1113   27.5440 C.ar      1 UNK         0.0000 
      4 C4          4.0460   53.6970   27.2355 C.ar      1 UNK         0.0000 
      5 C5          3.5591   53.8925   25.9298 C.ar      1 UNK         0.0000 
      6 C6          4.3799   54.4961   24.9641 C.ar      1 UNK         0.0000 
      7 C7          2.1998   53.4278   25.5815 C.2       1 UNK         0.0000 
      8 C8          1.8044   52.9530   24.3782 C.2       1 UNK         0.0000 
      9 C9          0.4260   52.5008   24.1263 C.2       1 UNK         0.0000 
     10 O10        -0.3913   52.4967   25.0525 O.2       1 UNK         0.0000 
     11 C11         0.0207   52.0025   22.7633 C.ar      1 UNK         0.0000 
     12 C12         0.8303   52.1430   21.6227 C.ar      1 UNK         0.0000 
     13 C13         0.3962   51.6750   20.3834 C.ar      1 UNK         0.0000 
     14 C14        -0.8543   51.0688   20.2681 C.ar      1 UNK         0.0000 
     15 C15        -1.6749   50.9299   21.3856 C.ar      1 UNK         0.0000 
     16 C16        -1.2388   51.3955   22.6206 C.ar      1 UNK         0.0000 
     17 S17        -1.4013   50.4703   18.6720 S.o2      1 UNK         0.0000 
     18 O18        -2.8276   50.1324   18.7642 O.2       1 UNK         0.0000 
     19 O19        -0.9248   51.4369   17.6765 O.2       1 UNK         0.0000 
     20 N20        -0.4868   48.9716   18.3784 N.pl3     1 UNK         0.0000 
     21 C21        -0.7335   47.7239   18.9754 C.ar      1 UNK         0.0000 
     22 C22        -1.6952   47.5252   19.9715 C.ar      1 UNK         0.0000 
     23 C23        -1.8725   46.2647   20.5350 C.ar      1 UNK         0.0000 
     24 C24        -1.0923   45.1786   20.1194 C.ar      1 UNK         0.0000 
     25 C25        -0.1349   45.3815   19.1122 C.ar      1 UNK         0.0000 
     26 C26         0.0440   46.6446   18.5529 C.ar      1 UNK         0.0000 
     27 C27        -1.2449   43.8332   20.7713 C.2       1 UNK         0.0000 
     28 O28        -0.4958   42.8967   20.3974 O.co2     1 UNK         0.0000 
     29 O29         3.1974   53.0873   28.1483 O.3       1 UNK         0.0000 
     30 C30         3.5876   52.9182   29.5073 C.3       1 UNK         0.0000 
     31 F31         2.5641   52.3643   30.1522 F         1 UNK         0.0000 
     32 F32         4.6295   52.0960   29.6277 F         1 UNK         0.0000 
     33 F33         3.8416   54.0967   30.0817 F         1 UNK         0.0000 
     34 H34         6.3002   55.3613   24.5347 H         1 UNK         0.0000 
     35 H35         7.1560   55.0192   26.8402 H         1 UNK         0.0000 
     36 H36         5.7734   53.9774   28.5289 H         1 UNK         0.0000 
     37 H37         4.0171   54.6534   23.9580 H         1 UNK         0.0000 
     38 H38         1.4773   53.5003   26.3869 H         1 UNK         0.0000 
     39 H39         2.5176   52.8831   23.5725 H         1 UNK         0.0000 
     40 H40         1.7963   52.6226   21.6517 H         1 UNK         0.0000 
     41 H41         1.0287   51.7924   19.5141 H         1 UNK         0.0000 
     42 H42        -2.6493   50.4686   21.3057 H         1 UNK         0.0000 
     43 H43        -1.8955   51.2692   23.4705 H         1 UNK         0.0000 
     44 H44         0.3327   49.0549   17.7970 H         1 UNK         0.0000 
     45 H45        -2.3071   48.3335   20.3327 H         1 UNK         0.0000 
     46 H46        -2.6145   46.1451   21.3152 H         1 UNK         0.0000 
     47 H47         0.4886   44.5658   18.7723 H         1 UNK         0.0000 
     48 H48         0.7988   46.7773   17.7894 H         1 UNK         0.0000 
     49 O49        -2.0962   43.6976   21.6818 O.co2     1 UNK         0.0000 
@<TRIPOS>BOND
     1    1    6 ar   
     2    1    2 ar   
     3    1   34 1    
     4    2    3 ar   
     5    2   35 1    
     6    3    4 ar   
     7    3   36 1    
     8    4    5 ar   
     9    4   29 1    
    10    5    6 ar   
    11    5    7 1    
    12    6   37 1    
    13    7    8 2    
    14    7   38 1    
    15    8    9 1    
    16    8   39 1    
    17    9   10 2    
    18    9   11 1    
    19   11   16 ar   
    20   11   12 ar   
    21   12   13 ar   
    22   12   40 1    
    23   13   14 ar   
    24   13   41 1    
    25   14   15 ar   
    26   14   17 1    
    27   15   16 ar   
    28   15   42 1    
    29   16   43 1    
    30   17   18 2    
    31   17   19 2    
    32   17   20 1    
    33   20   21 1    
    34   20   44 1    
    35   21   26 ar   
    36   21   22 ar   
    37   22   23 ar   
    38   22   45 1    
    39   23   24 ar   
    40   23   46 1    
    41   24   25 ar   
    42   24   27 1    
    43   25   26 ar   
    44   25   47 1    
    45   26   48 1    
    46   27   28 2    
    47   27   49 1    
    48   29   30 1    
    49   30   31 1    
    50   30   32 1    
    51   30   33 1    
@<TRIPOS>SUBSTRUCTURE
     1 UNK         1 GROUP             0       ****    0 ROOT    
