@<TRIPOS>MOLECULE
ZINC02168765_1958
51   54    1
SMALL
USER_CHARGES


@<TRIPOS>ATOM
      1 C1          6.5582   54.6902   27.9524 C.3       1 UNK         0.0000 
      2 C2          5.7383   54.4204   26.7290 C.ar      1 UNK         0.0000 
      3 C3          6.1234   54.4204   25.4064 C.ar      1 UNK         0.0000 
      4 C4          5.0226   54.1582   24.5901 C.ar      1 UNK         0.0000 
      5 C5          3.9488   53.9620   25.4700 C.ar      1 UNK         0.0000 
      6 N6          4.3831   54.1604   26.7791 N.pl3     1 UNK         0.0000 
      7 C7          3.5605   54.1783   27.9444 C.ar      1 UNK         0.0000 
      8 C8          2.6561   55.2246   28.0371 C.ar      1 UNK         0.0000 
      9 C9          1.7230   55.3019   29.0554 C.ar      1 UNK         0.0000 
     10 C10         1.6901   54.3035   30.0151 C.ar      1 UNK         0.0000 
     11 C11         2.6387   53.2663   30.0194 C.ar      1 UNK         0.0000 
     12 C12         3.6167   53.2304   28.9856 C.ar      1 UNK         0.0000 
     13 C13         4.7286   52.1970   28.9763 C.3       1 UNK         0.0000 
     14 C14         2.5647   52.2634   31.1367 C.2       1 UNK         0.0000 
     15 O15         1.4541   52.0966   31.6816 O.co2     1 UNK         0.0000 
     16 O16         3.6124   51.6973   31.5186 O.co2     1 UNK         0.0000 
     17 C17         2.5019   53.6065   25.1605 C.3       1 UNK         0.0000 
     18 C18         5.0198   54.0967   23.1314 C.2       1 UNK         0.0000 
     19 N19         5.8993   54.7321   22.4653 N.2       1 UNK         0.0000 
     20 N20         5.7170   54.6503   21.1339 N.am      1 UNK         0.0000 
     21 C21         6.3395   55.4746   20.2644 C.2       1 UNK         0.0000 
     22 O22         7.0682   56.4232   20.5769 O.2       1 UNK         0.0000 
     23 C23         6.0925   55.1563   18.8797 C.2       1 UNK         0.0000 
     24 C24         6.4662   55.8410   17.7252 C.2       1 UNK         0.0000 
     25 C25         5.9953   55.0665   16.6202 C.ar      1 UNK         0.0000 
     26 C26         6.0304   55.1701   15.2202 C.ar      1 UNK         0.0000 
     27 C27         5.4413   54.1548   14.4584 C.ar      1 UNK         0.0000 
     28 C28         4.8259   53.0544   15.0607 C.ar      1 UNK         0.0000 
     29 C29         4.7689   52.9271   16.4491 C.ar      1 UNK         0.0000 
     30 C30         5.3610   53.9455   17.2037 C.ar      1 UNK         0.0000 
     31 O31         5.4170   54.0060   18.5668 O.3       1 UNK         0.0000 
     32 H32         7.4204   55.2973   27.6816 H         1 UNK         0.0000 
     33 H33         5.9738   55.2296   28.7025 H         1 UNK         0.0000 
     34 H34         6.9496   53.7836   28.4113 H         1 UNK         0.0000 
     35 H35         7.1253   54.6079   25.0468 H         1 UNK         0.0000 
     36 H36         2.7041   55.9823   27.2828 H         1 UNK         0.0000 
     37 H37         1.0264   56.1260   29.0923 H         1 UNK         0.0000 
     38 H38         0.9372   54.3665   30.7898 H         1 UNK         0.0000 
     39 H39         5.4995   52.4965   29.6804 H         1 UNK         0.0000 
     40 H40         4.3608   51.2240   29.2808 H         1 UNK         0.0000 
     41 H41         5.1923   52.0968   28.0015 H         1 UNK         0.0000 
     42 H42         2.4112   53.0515   24.2269 H         1 UNK         0.0000 
     43 H43         2.0533   52.9777   25.9306 H         1 UNK         0.0000 
     44 H44         1.8781   54.4933   25.0593 H         1 UNK         0.0000 
     45 H45         4.2027   53.5139   22.7103 H         1 UNK         0.0000 
     46 H46         5.0471   53.9665   20.8100 H         1 UNK         0.0000 
     47 H47         7.0132   56.7720   17.6995 H         1 UNK         0.0000 
     48 H48         6.5061   56.0130   14.7418 H         1 UNK         0.0000 
     49 H49         5.4642   54.2186   13.3795 H         1 UNK         0.0000 
     50 H50         4.3882   52.2847   14.4405 H         1 UNK         0.0000 
     51 H51         4.3037   52.0750   16.9235 H         1 UNK         0.0000 
@<TRIPOS>BOND
     1    1    2 1    
     2    1   32 1    
     3    1   33 1    
     4    1   34 1    
     5    2    6 ar   
     6    2    3 ar   
     7    3    4 ar   
     8    3   35 1    
     9    4    5 ar   
    10    4   18 1    
    11    5    6 ar   
    12    5   17 1    
    13    6    7 1    
    14    7   12 ar   
    15    7    8 ar   
    16    8    9 ar   
    17    8   36 1    
    18    9   10 ar   
    19    9   37 1    
    20   10   11 ar   
    21   10   38 1    
    22   11   12 ar   
    23   11   14 1    
    24   12   13 1    
    25   13   39 1    
    26   13   40 1    
    27   13   41 1    
    28   14   15 2    
    29   14   16 1    
    30   17   42 1    
    31   17   43 1    
    32   17   44 1    
    33   18   19 2    
    34   18   45 1    
    35   19   20 1    
    36   20   21 am   BACKBONE|DICT|INTERRES
    37   20   46 1    
    38   21   22 2    
    39   21   23 1    
    40   23   31 1    
    41   23   24 2    
    42   24   25 1    
    43   24   47 1    
    44   25   30 ar   
    45   25   26 ar   
    46   26   27 ar   
    47   26   48 1    
    48   27   28 ar   
    49   27   49 1    
    50   28   29 ar   
    51   28   50 1    
    52   29   30 ar   
    53   29   51 1    
    54   30   31 1    
@<TRIPOS>SUBSTRUCTURE
     1 UNK         1 GROUP             0       ****    0 ROOT    
