@<TRIPOS>MOLECULE
ZINC44592611_4690
41   43    1
SMALL
USER_CHARGES


@<TRIPOS>ATOM
      1 C1          1.9220   53.1901   26.3784 C.2       1 UNK         0.0000 
      2 C2          2.0085   53.1042   27.7604 C.2       1 UNK         0.0000 
      3 S3          1.0950   51.7728   28.3788 S.3       1 UNK         0.0000 
      4 C4          0.5801   51.3541   26.7748 C.2       1 UNK         0.0000 
      5 C5          1.1052   52.1994   25.8055 C.2       1 UNK         0.0000 
      6 C6          0.8189   52.0031   24.3104 C.3       1 UNK         0.0000 
      7 H7          1.7286   52.1168   23.7446 H         1 UNK         0.0000 
      8 N8          0.1230   50.7070   24.0459 N.am      1 UNK         0.0000 
      9 C9         -0.9237   50.3550   25.0459 C.3       1 UNK         0.0000 
     10 C10        -0.2837   50.1624   26.4412 C.3       1 UNK         0.0000 
     11 C11         0.2895   49.9049   22.9415 C.2       1 UNK         0.0000 
     12 O12        -0.3068   48.8227   22.8764 O.2       1 UNK         0.0000 
     13 C13         1.1596   50.2993   21.6811 C.3       1 UNK         0.0000 
     14 C14         0.5833   51.5119   20.8863 C.3       1 UNK         0.0000 
     15 C15         1.4566   52.0033   19.7102 C.3       1 UNK         0.0000 
     16 C16         2.9212   52.1948   20.1380 C.3       1 UNK         0.0000 
     17 C17         3.5123   50.8986   20.7173 C.3       1 UNK         0.0000 
     18 C18         2.7023   50.3463   21.9166 C.3       1 UNK         0.0000 
     19 N19         1.0482   49.1656   20.6375 N.4       1 UNK         0.0000 
     20 C20         0.0200   53.2375   23.8749 C.2       1 UNK         0.0000 
     21 O21        -1.2178   53.1650   23.6937 O.co2     1 UNK         0.0000 
     22 O22         0.7197   54.2524   23.6818 O.co2     1 UNK         0.0000 
     23 H23         2.4288   53.9452   25.7952 H         1 UNK         0.0000 
     24 H24         2.5638   53.7425   28.4308 H         1 UNK         0.0000 
     25 H25        -1.6354   51.1793   25.1003 H         1 UNK         0.0000 
     26 H26        -1.5331   49.4901   24.7716 H         1 UNK         0.0000 
     27 H27        -1.0809   50.0969   27.1786 H         1 UNK         0.0000 
     28 H28         0.2755   49.2267   26.4828 H         1 UNK         0.0000 
     29 H29         0.5182   52.3691   21.5415 H         1 UNK         0.0000 
     30 H30        -0.4539   51.3455   20.5854 H         1 UNK         0.0000 
     31 H31         1.0575   52.9360   19.3160 H         1 UNK         0.0000 
     32 H32         1.4091   51.2936   18.8809 H         1 UNK         0.0000 
     33 H33         2.9835   52.9969   20.8760 H         1 UNK         0.0000 
     34 H34         3.5153   52.5204   19.2818 H         1 UNK         0.0000 
     35 H35         4.5471   51.0715   21.0152 H         1 UNK         0.0000 
     36 H36         3.5572   50.1502   19.9235 H         1 UNK         0.0000 
     37 H37         3.0994   49.3954   22.2788 H         1 UNK         0.0000 
     38 H38         2.9264   51.0224   22.7283 H         1 UNK         0.0000 
     39 H39         1.5834   49.4047   19.8143 H         1 UNK         0.0000 
     40 H40         1.4128   48.3100   21.0250 H         1 UNK         0.0000 
     41 H41         0.0819   49.0287   20.3820 H         1 UNK         0.0000 
@<TRIPOS>BOND
     1    1    5 1    
     2    1    2 2    
     3    1   23 1    
     4    2    3 1    
     5    2   24 1    
     6    3    4 1    
     7    4   10 1    
     8    4    5 2    
     9    5    6 1    
    10    6    7 1    
    11    6    8 1    
    12    6   20 1    
    13    8    9 1    
    14    8   11 am   BACKBONE|DICT|INTERRES
    15    9   10 1    
    16    9   25 1    
    17    9   26 1    
    18   10   27 1    
    19   10   28 1    
    20   11   12 2    
    21   11   13 1    
    22   13   18 1    
    23   13   14 1    
    24   13   19 1    
    25   14   15 1    
    26   14   29 1    
    27   14   30 1    
    28   15   16 1    
    29   15   31 1    
    30   15   32 1    
    31   16   17 1    
    32   16   33 1    
    33   16   34 1    
    34   17   18 1    
    35   17   35 1    
    36   17   36 1    
    37   18   37 1    
    38   18   38 1    
    39   19   39 1    
    40   19   40 1    
    41   19   41 1    
    42   20   21 2    
    43   20   22 1    
@<TRIPOS>SUBSTRUCTURE
     1 UNK         1 GROUP             0       ****    0 ROOT    
