@<TRIPOS>MOLECULE
ZINC40701864_4448
51   54    1
SMALL
USER_CHARGES


@<TRIPOS>ATOM
      1 C1         -4.8961   45.1483   23.3054 C.ar      1 UNK         0.0000 
      2 C2         -3.8446   45.6155   22.5278 C.ar      1 UNK         0.0000 
      3 C3         -2.9173   46.4992   23.0726 C.ar      1 UNK         0.0000 
      4 C4         -3.0221   46.9478   24.4013 C.ar      1 UNK         0.0000 
      5 C5         -4.0917   46.4589   25.1912 C.ar      1 UNK         0.0000 
      6 C6         -5.0160   45.5652   24.6270 C.ar      1 UNK         0.0000 
      7 C7         -4.2936   46.8971   26.6498 C.3       1 UNK         0.0000 
      8 F8         -4.3141   48.2270   26.7451 F         1 UNK         0.0000 
      9 F9         -5.4334   46.4389   27.1740 F         1 UNK         0.0000 
     10 F10        -3.2946   46.4192   27.3835 F         1 UNK         0.0000 
     11 N11        -2.1249   47.8925   24.9541 N.pl3     1 UNK         0.0000 
     12 C12        -1.1159   48.7387   24.4362 C.ar      1 UNK         0.0000 
     13 C13        -0.6641   49.8587   25.1813 C.ar      1 UNK         0.0000 
     14 C14         0.2323   50.7542   24.5312 C.ar      1 UNK         0.0000 
     15 N15         0.6798   50.4902   23.2704 N.ar      1 UNK         0.0000 
     16 C16         0.2313   49.3738   22.6627 C.ar      1 UNK         0.0000 
     17 N17        -0.6506   48.4967   23.1836 N.ar      1 UNK         0.0000 
     18 N18         0.7616   51.9332   25.0817 N.pl3     1 UNK         0.0000 
     19 C19         1.1081   53.1074   24.2669 C.3       1 UNK         0.0000 
     20 C20         2.4324   53.7968   24.6673 C.3       1 UNK         0.0000 
     21 N21         2.9663   53.5340   26.0169 N.pl3     1 UNK         0.0000 
     22 C22         1.8509   53.3138   26.9563 C.3       1 UNK         0.0000 
     23 C23         0.7702   52.3004   26.5041 C.3       1 UNK         0.0000 
     24 C24         4.2630   53.9063   26.4177 C.ar      1 UNK         0.0000 
     25 C25         4.6431   53.8043   27.7712 C.ar      1 UNK         0.0000 
     26 C26         5.9349   54.0961   28.1967 C.ar      1 UNK         0.0000 
     27 C27         6.8951   54.4967   27.2809 C.ar      1 UNK         0.0000 
     28 C28         6.5568   54.6248   25.9394 C.ar      1 UNK         0.0000 
     29 C29         5.2615   54.3407   25.5082 C.ar      1 UNK         0.0000 
     30 F30         5.0253   54.4967   24.1850 F         1 UNK         0.0000 
     31 N31        -1.1432   50.0967   26.4817 N.pl3     1 UNK         0.0000 
     32 H32        -5.6235   44.4693   22.8840 H         1 UNK         0.0000 
     33 H33        -3.7505   45.3004   21.4985 H         1 UNK         0.0000 
     34 H34        -2.1305   46.8228   22.4155 H         1 UNK         0.0000 
     35 H35        -5.8471   45.1885   25.2070 H         1 UNK         0.0000 
     36 H36        -2.3411   48.1257   25.9154 H         1 UNK         0.0000 
     37 H37         0.6007   49.1753   21.6667 H         1 UNK         0.0000 
     38 H38         1.0618   52.9459   23.1894 H         1 UNK         0.0000 
     39 H39         0.2904   53.8007   24.4676 H         1 UNK         0.0000 
     40 H40         3.1411   53.2941   24.0111 H         1 UNK         0.0000 
     41 H41         2.3935   54.8592   24.4252 H         1 UNK         0.0000 
     42 H42         1.3756   54.2952   26.9653 H         1 UNK         0.0000 
     43 H43         2.1068   53.1321   27.9956 H         1 UNK         0.0000 
     44 H44        -0.2067   52.6287   26.8610 H         1 UNK         0.0000 
     45 H45         1.0441   51.3715   27.0070 H         1 UNK         0.0000 
     46 H46         3.9657   53.4734   28.5379 H         1 UNK         0.0000 
     47 H47         6.1953   54.0151   29.2407 H         1 UNK         0.0000 
     48 H48         7.8967   54.7151   27.6241 H         1 UNK         0.0000 
     49 H49         7.2973   54.9368   25.2174 H         1 UNK         0.0000 
     50 H50        -0.8137   50.9396   26.9240 H         1 UNK         0.0000 
     51 H51        -1.2956   49.2889   27.1050 H         1 UNK         0.0000 
@<TRIPOS>BOND
     1    1    6 ar   
     2    1    2 ar   
     3    1   32 1    
     4    2    3 ar   
     5    2   33 1    
     6    3    4 ar   
     7    3   34 1    
     8    4    5 ar   
     9    4   11 1    
    10    5    6 ar   
    11    5    7 1    
    12    6   35 1    
    13    7    8 1    
    14    7    9 1    
    15    7   10 1    
    16   11   12 1    
    17   11   36 1    
    18   12   17 ar   
    19   12   13 ar   
    20   13   14 ar   
    21   13   31 1    
    22   14   15 ar   
    23   14   18 1    
    24   15   16 ar   
    25   16   17 ar   
    26   16   37 1    
    27   18   23 1    
    28   18   19 1    
    29   19   20 1    
    30   19   38 1    
    31   19   39 1    
    32   20   21 1    
    33   20   40 1    
    34   20   41 1    
    35   21   22 1    
    36   21   24 1    
    37   22   23 1    
    38   22   42 1    
    39   22   43 1    
    40   23   44 1    
    41   23   45 1    
    42   24   29 ar   
    43   24   25 ar   
    44   25   26 ar   
    45   25   46 1    
    46   26   27 ar   
    47   26   47 1    
    48   27   28 ar   
    49   27   48 1    
    50   28   29 ar   
    51   28   49 1    
    52   29   30 1    
    53   31   50 1    
    54   31   51 1    
@<TRIPOS>SUBSTRUCTURE
     1 UNK         1 GROUP             0       ****    0 ROOT    
