@<TRIPOS>MOLECULE
ZINC03111070_1125
47   49    1
SMALL
USER_CHARGES


@<TRIPOS>ATOM
      1 C1         -0.2199   52.1534   27.5785 C.ar      1 UNK         0.0000 
      2 C2          1.0796   52.6495   27.6383 C.ar      1 UNK         0.0000 
      3 C3          1.7440   52.8254   28.8675 C.ar      1 UNK         0.0000 
      4 C4          1.0568   52.4600   30.0445 C.ar      1 UNK         0.0000 
      5 C5         -0.2628   52.0077   29.9796 C.ar      1 UNK         0.0000 
      6 C6         -0.8957   51.8441   28.7520 C.ar      1 UNK         0.0000 
      7 Cl7        -2.5298   51.2967   28.6848 Cl        1 UNK         0.0000 
      8 Cl8         1.7984   52.4936   31.6088 Cl        1 UNK         0.0000 
      9 C9          3.1034   53.4022   28.8947 C.2       1 UNK         0.0000 
     10 N10         3.8170   53.5035   27.8483 N.2       1 UNK         0.0000 
     11 N11         4.9551   54.2045   28.0001 N.am      1 UNK         0.0000 
     12 C12         5.7230   54.5747   26.9536 C.2       1 UNK         0.0000 
     13 O13         6.7019   55.2906   27.1407 O.2       1 UNK         0.0000 
     14 C14         5.4400   54.0465   25.5208 C.3       1 UNK         0.0000 
     15 C15         4.1464   54.6259   24.9347 C.3       1 UNK         0.0000 
     16 C16         3.8626   54.0628   23.5179 C.3       1 UNK         0.0000 
     17 N17         5.0281   54.2077   22.6101 N.pl3     1 UNK         0.0000 
     18 C18         6.3112   53.7257   23.1587 C.3       1 UNK         0.0000 
     19 C19         6.6179   54.2821   24.5590 C.3       1 UNK         0.0000 
     20 C20         4.8746   54.0980   21.1956 C.ar      1 UNK         0.0000 
     21 C21         5.4916   54.9954   20.3065 C.ar      1 UNK         0.0000 
     22 C22         5.3517   54.8044   18.9280 C.ar      1 UNK         0.0000 
     23 C23         4.6046   53.7219   18.4416 C.ar      1 UNK         0.0000 
     24 C24         3.9905   52.8646   19.3625 C.ar      1 UNK         0.0000 
     25 C25         4.4645   53.4994   16.9372 C.3       1 UNK         0.0000 
     26 F26         5.6353   53.1025   16.4409 F         1 UNK         0.0000 
     27 F27         3.5433   52.5783   16.6491 F         1 UNK         0.0000 
     28 F28         4.1124   54.6406   16.3429 F         1 UNK         0.0000 
     29 Cl29        6.4171   56.3428   20.8766 Cl        1 UNK         0.0000 
     30 H30        -0.7084   52.0259   26.6233 H         1 UNK         0.0000 
     31 H31         1.5643   52.9015   26.7059 H         1 UNK         0.0000 
     32 H32        -0.7901   51.7376   30.8851 H         1 UNK         0.0000 
     33 H33         3.4370   53.7638   29.8652 H         1 UNK         0.0000 
     34 H34         5.1601   54.5363   28.9312 H         1 UNK         0.0000 
     35 H35         5.2647   52.9847   25.6832 H         1 UNK         0.0000 
     36 H36         3.2602   54.4048   25.5280 H         1 UNK         0.0000 
     37 H37         4.2981   55.6967   24.8411 H         1 UNK         0.0000 
     38 H38         3.5854   53.0094   23.5634 H         1 UNK         0.0000 
     39 H39         3.0308   54.6151   23.0781 H         1 UNK         0.0000 
     40 H40         6.2789   52.6387   23.1374 H         1 UNK         0.0000 
     41 H41         7.1136   54.0549   22.4968 H         1 UNK         0.0000 
     42 H42         6.8184   55.3484   24.4309 H         1 UNK         0.0000 
     43 H43         7.5044   53.7534   24.8981 H         1 UNK         0.0000 
     44 H44         5.8291   55.4895   18.2392 H         1 UNK         0.0000 
     45 H45         3.4102   51.9919   19.0846 H         1 UNK         0.0000 
     46 N46         4.1455   53.0822   20.6841 N.pl3     1 UNK         0.0000 
     47 H47         3.7050   52.4417   21.3289 H         1 UNK         0.0000 
@<TRIPOS>BOND
     1    1    6 ar   
     2    1    2 ar   
     3    1   30 1    
     4    2    3 ar   
     5    2   31 1    
     6    3    4 ar   
     7    3    9 1    
     8    4    5 ar   
     9    4    8 1    
    10    5    6 ar   
    11    5   32 1    
    12    6    7 1    
    13    9   10 2    
    14    9   33 1    
    15   10   11 1    
    16   11   12 am   BACKBONE|DICT|INTERRES
    17   11   34 1    
    18   12   13 2    
    19   12   14 1    
    20   14   19 1    
    21   14   15 1    
    22   14   35 1    
    23   15   16 1    
    24   15   36 1    
    25   15   37 1    
    26   16   17 1    
    27   16   38 1    
    28   16   39 1    
    29   17   18 1    
    30   17   20 1    
    31   18   19 1    
    32   18   40 1    
    33   18   41 1    
    34   19   42 1    
    35   19   43 1    
    36   20   21 ar   
    37   20   46 ar   
    38   21   22 ar   
    39   21   29 1    
    40   22   23 ar   
    41   22   44 1    
    42   23   24 ar   
    43   23   25 1    
    44   24   45 1    
    45   24   46 ar   
    46   25   26 1    
    47   25   27 1    
    48   25   28 1    
    49   46   47 1    
@<TRIPOS>SUBSTRUCTURE
     1 UNK         1 GROUP             0       ****    0 ROOT    
