@<TRIPOS>MOLECULE
ZINC02377007_3508
44   46    1
SMALL
USER_CHARGES


@<TRIPOS>ATOM
      1 C1          4.4800   54.2928   27.3027 C.3       1 UNK         0.0000 
      2 C2          4.7740   54.3535   25.8147 C.ar      1 UNK         0.0000 
      3 C3          3.7667   54.0566   24.8965 C.ar      1 UNK         0.0000 
      4 C4          4.0350   54.0969   23.5305 C.ar      1 UNK         0.0000 
      5 C5          5.3019   54.4747   23.0736 C.ar      1 UNK         0.0000 
      6 C6          6.3051   54.7832   24.0003 C.ar      1 UNK         0.0000 
      7 C7          6.0447   54.7172   25.3660 C.ar      1 UNK         0.0000 
      8 C8          5.5737   54.6277   21.6089 C.ar      1 UNK         0.0000 
      9 N9          6.3041   55.6020   21.1163 N.2       1 UNK         0.0000 
     10 N10         6.3401   55.4442   19.7377 N.2       1 UNK         0.0000 
     11 C11         5.6371   54.3795   19.4413 C.ar      1 UNK         0.0000 
     12 N12         5.1285   53.8041   20.5904 N.pl3     1 UNK         0.0000 
     13 N13         4.4221   52.6146   20.6965 N.3       1 UNK         0.0000 
     14 S14         5.5931   53.6965   17.8162 S.3       1 UNK         0.0000 
     15 C15         3.7969   53.5446   17.5574 C.3       1 UNK         0.0000 
     16 C16         3.2828   54.6293   16.6175 C.2       1 UNK         0.0000 
     17 O17         3.4235   54.4990   15.4007 O.2       1 UNK         0.0000 
     18 N18         2.7011   55.6954   17.1989 N.am      1 UNK         0.0000 
     19 C19         2.2624   56.8147   16.4817 C.ar      1 UNK         0.0000 
     20 C20         0.9317   56.8963   16.0423 C.ar      1 UNK         0.0000 
     21 C21         0.5057   58.0177   15.3287 C.ar      1 UNK         0.0000 
     22 C22         1.3878   59.0703   15.0718 C.ar      1 UNK         0.0000 
     23 C23         2.7065   58.9935   15.5264 C.ar      1 UNK         0.0000 
     24 C24         3.1461   57.8782   16.2392 C.ar      1 UNK         0.0000 
     25 Br25        4.9450   57.8545   16.8817 Br        1 UNK         0.0000 
     26 C26         0.9167   60.2914   14.3033 C.3       1 UNK         0.0000 
     27 Br27       -0.3292   55.5104   16.4149 Br        1 UNK         0.0000 
     28 H28         3.4825   54.6809   27.5119 H         1 UNK         0.0000 
     29 H29         4.5253   53.2610   27.6538 H         1 UNK         0.0000 
     30 H30         5.1821   54.8991   27.8780 H         1 UNK         0.0000 
     31 H31         2.7800   53.7806   25.2376 H         1 UNK         0.0000 
     32 H32         3.2436   53.8783   22.8289 H         1 UNK         0.0000 
     33 H33         7.2892   55.0780   23.6615 H         1 UNK         0.0000 
     34 H34         6.8245   54.9519   26.0737 H         1 UNK         0.0000 
     35 H35         3.4740   52.7045   20.3670 H         1 UNK         0.0000 
     36 H36         4.9106   51.8611   20.2332 H         1 UNK         0.0000 
     37 H37         3.2392   53.5502   18.4909 H         1 UNK         0.0000 
     38 H38         3.6140   52.5764   17.0911 H         1 UNK         0.0000 
     39 H39         2.5837   55.7053   18.2013 H         1 UNK         0.0000 
     40 H40        -0.5178   58.0756   14.9875 H         1 UNK         0.0000 
     41 H41         3.3916   59.8110   15.3413 H         1 UNK         0.0000 
     42 H42         1.7481   60.7865   13.7994 H         1 UNK         0.0000 
     43 H43         0.4388   61.0053   14.9758 H         1 UNK         0.0000 
     44 H44         0.2021   60.0088   13.5284 H         1 UNK         0.0000 
@<TRIPOS>BOND
     1    1    2 1    
     2    1   28 1    
     3    1   29 1    
     4    1   30 1    
     5    2    7 ar   
     6    2    3 ar   
     7    3    4 ar   
     8    3   31 1    
     9    4    5 ar   
    10    4   32 1    
    11    5    6 ar   
    12    5    8 1    
    13    6    7 ar   
    14    6   33 1    
    15    7   34 1    
    16    8   12 ar   
    17    8    9 ar   
    18    9   10 ar   
    19   10   11 ar   
    20   11   12 ar   
    21   11   14 1    
    22   12   13 1    
    23   13   35 1    
    24   13   36 1    
    25   14   15 1    
    26   15   16 1    
    27   15   37 1    
    28   15   38 1    
    29   16   17 2    
    30   16   18 am   BACKBONE|DICT|INTERRES
    31   18   19 1    
    32   18   39 1    
    33   19   24 ar   
    34   19   20 ar   
    35   20   21 ar   
    36   20   27 1    
    37   21   22 ar   
    38   21   40 1    
    39   22   23 ar   
    40   22   26 1    
    41   23   24 ar   
    42   23   41 1    
    43   24   25 1    
    44   26   42 1    
    45   26   43 1    
    46   26   44 1    
@<TRIPOS>SUBSTRUCTURE
     1 UNK         1 GROUP             0       ****    0 ROOT    
