@<TRIPOS>MOLECULE
ZINC13569315_2628
49   52    1
SMALL
USER_CHARGES


@<TRIPOS>ATOM
      1 C1          3.5786   53.9214   26.6310 C.3       1 UNK         0.0000 
      2 C2          2.5117   54.0713   27.7080 C.ar      1 UNK         0.0000 
      3 C3          2.7039   55.0551   28.6837 C.ar      1 UNK         0.0000 
      4 C4          1.7978   55.2173   29.7285 C.ar      1 UNK         0.0000 
      5 C5          0.7045   54.3634   29.8373 C.ar      1 UNK         0.0000 
      6 C6          0.4985   53.3741   28.8781 C.ar      1 UNK         0.0000 
      7 C7          1.3774   53.2350   27.7978 C.ar      1 UNK         0.0000 
      8 N8          1.0562   52.2130   26.8945 N.am      1 UNK         0.0000 
      9 C9          0.8869   52.3191   25.5591 C.2       1 UNK         0.0000 
     10 O10         1.1617   53.3240   24.9032 O.2       1 UNK         0.0000 
     11 C11         0.3015   51.1346   24.9536 C.2       1 UNK         0.0000 
     12 C12         0.6521   50.6292   23.7247 C.2       1 UNK         0.0000 
     13 N13         0.0196   49.5568   23.1415 N.2       1 UNK         0.0000 
     14 C14        -0.7445   48.8090   23.8522 C.ar      1 UNK         0.0000 
     15 C15        -1.5388   47.6682   23.5197 C.ar      1 UNK         0.0000 
     16 C16        -2.2288   47.3229   24.6307 C.ar      1 UNK         0.0000 
     17 N17        -1.9932   48.1962   25.6817 N.pl3     1 UNK         0.0000 
     18 N18        -0.9683   49.0347   25.2263 N.pl3     1 UNK         0.0000 
     19 C19        -0.8223   50.4019   25.7382 C.3       1 UNK         0.0000 
     20 H20        -0.4889   50.2439   26.7653 H         1 UNK         0.0000 
     21 C21        -2.1326   51.1977   25.8741 C.ar      1 UNK         0.0000 
     22 C22        -2.9444   50.9813   26.9901 C.ar      1 UNK         0.0000 
     23 C23        -4.1255   51.6968   27.1512 C.ar      1 UNK         0.0000 
     24 C24        -4.5024   52.6700   26.2139 C.ar      1 UNK         0.0000 
     25 C25        -3.6952   52.8673   25.0836 C.ar      1 UNK         0.0000 
     26 C26        -2.5278   52.1303   24.9089 C.ar      1 UNK         0.0000 
     27 C27        -5.7280   53.5089   26.4323 C.2       1 UNK         0.0000 
     28 O28        -5.8964   54.4967   25.6815 O.co2     1 UNK         0.0000 
     29 O29        -6.4957   53.2056   27.3755 O.co2     1 UNK         0.0000 
     30 C30        -1.6157   47.0317   22.2492 C.1       1 UNK         0.0000 
     31 N31        -1.6959   46.4728   21.2389 N.1       1 UNK         0.0000 
     32 C32         1.7598   51.1340   22.8057 C.3       1 UNK         0.0000 
     33 H33         4.5650   54.1674   27.0243 H         1 UNK         0.0000 
     34 H34         3.6463   52.8968   26.2712 H         1 UNK         0.0000 
     35 H35         3.3719   54.5808   25.7884 H         1 UNK         0.0000 
     36 H36         3.5687   55.6967   28.6373 H         1 UNK         0.0000 
     37 H37         1.9527   55.9924   30.4656 H         1 UNK         0.0000 
     38 H38         0.0109   54.4718   30.6584 H         1 UNK         0.0000 
     39 H39        -0.3631   52.7270   28.9714 H         1 UNK         0.0000 
     40 H40         0.6965   51.3710   27.3153 H         1 UNK         0.0000 
     41 H41        -2.9170   46.5024   24.7658 H         1 UNK         0.0000 
     42 H42        -1.7464   47.9507   26.6493 H         1 UNK         0.0000 
     43 H43        -2.6623   50.2527   27.7370 H         1 UNK         0.0000 
     44 H44        -4.7302   51.5122   28.0285 H         1 UNK         0.0000 
     45 H45        -3.9635   53.6029   24.3380 H         1 UNK         0.0000 
     46 H46        -1.9237   52.3040   24.0304 H         1 UNK         0.0000 
     47 H47         2.3773   51.9061   23.2590 H         1 UNK         0.0000 
     48 H48         2.4277   50.3161   22.5311 H         1 UNK         0.0000 
     49 H49         1.3327   51.5457   21.8909 H         1 UNK         0.0000 
@<TRIPOS>BOND
     1    1    2 1    
     2    1   33 1    
     3    1   34 1    
     4    1   35 1    
     5    2    7 ar   
     6    2    3 ar   
     7    3    4 ar   
     8    3   36 1    
     9    4    5 ar   
    10    4   37 1    
    11    5    6 ar   
    12    5   38 1    
    13    6    7 ar   
    14    6   39 1    
    15    7    8 1    
    16    8    9 am   BACKBONE|DICT|INTERRES
    17    8   40 1    
    18    9   10 2    
    19    9   11 1    
    20   11   19 1    
    21   11   12 2    
    22   12   13 1    
    23   12   32 1    
    24   13   14 2    
    25   14   18 ar   
    26   14   15 ar   
    27   15   16 ar   
    28   15   30 1    
    29   16   17 ar   
    30   16   41 1    
    31   17   18 1    
    32   17   42 1    
    33   18   19 1    
    34   19   20 1    
    35   19   21 1    
    36   21   26 ar   
    37   21   22 ar   
    38   22   23 ar   
    39   22   43 1    
    40   23   24 ar   
    41   23   44 1    
    42   24   25 ar   
    43   24   27 1    
    44   25   26 ar   
    45   25   45 1    
    46   26   46 1    
    47   27   28 2    
    48   27   29 1    
    49   30   31 3    
    50   32   47 1    
    51   32   48 1    
    52   32   49 1    
@<TRIPOS>SUBSTRUCTURE
     1 UNK         1 GROUP             0       ****    0 ROOT    
