@<TRIPOS>MOLECULE
ZINC12617025_2039
67   70    1
SMALL
USER_CHARGES


@<TRIPOS>ATOM
      1 C1          2.1195   56.1254   29.2743 C.3       1 UNK         0.0000 
      2 C2          2.8983   54.8066   29.4350 C.3       1 UNK         0.0000 
      3 C3          2.1979   53.5132   28.9172 C.3       1 UNK         0.0000 
      4 C4          0.8344   53.3542   29.6423 C.3       1 UNK         0.0000 
      5 C5          3.0752   52.3036   29.3462 C.3       1 UNK         0.0000 
      6 C6          1.9970   53.5860   27.3552 C.3       1 UNK         0.0000 
      7 H7          1.3872   54.4713   27.1776 H         1 UNK         0.0000 
      8 C8          1.2704   52.3615   26.7543 C.3       1 UNK         0.0000 
      9 C9          0.8328   52.5860   25.2898 C.3       1 UNK         0.0000 
     10 C10         2.0082   53.1271   24.4736 C.2       1 UNK         0.0000 
     11 C11         3.1286   53.6796   25.1001 C.2       1 UNK         0.0000 
     12 S12         4.3651   54.0980   23.9785 S.3       1 UNK         0.0000 
     13 C13         3.3628   53.6312   22.6288 C.2       1 UNK         0.0000 
     14 C14         2.1487   53.0767   23.0675 C.2       1 UNK         0.0000 
     15 C15         1.1307   52.5233   22.1790 C.1       1 UNK         0.0000 
     16 N16         0.3222   52.0852   21.4755 N.1       1 UNK         0.0000 
     17 N17         3.7488   53.8234   21.3003 N.am      1 UNK         0.0000 
     18 C18         4.9255   54.2827   20.8274 C.2       1 UNK         0.0000 
     19 O19         5.9168   54.5150   21.5173 O.2       1 UNK         0.0000 
     20 C20         4.9417   54.5026   19.3031 C.3       1 UNK         0.0000 
     21 N21         6.1870   55.0908   18.7404 N.am      1 UNK         0.0000 
     22 C22         6.7703   56.2590   19.1271 C.2       1 UNK         0.0000 
     23 O23         6.4904   56.9882   20.0843 O.2       1 UNK         0.0000 
     24 C24         7.8711   56.5270   18.1087 C.3       1 UNK         0.0000 
     25 C25         9.2612   56.5859   18.8023 C.3       1 UNK         0.0000 
     26 C26        10.3705   56.8779   17.7649 C.3       1 UNK         0.0000 
     27 C27        10.1125   58.2239   17.0451 C.3       1 UNK         0.0000 
     28 C28         8.7139   58.2104   16.3811 C.3       1 UNK         0.0000 
     29 C29         7.6179   57.9029   17.4242 C.3       1 UNK         0.0000 
     30 C30        11.2170   58.5528   16.0281 C.3       1 UNK         0.0000 
     31 N31         7.7013   55.3969   17.2461 N.am      1 UNK         0.0000 
     32 C32         6.7015   54.5856   17.5881 C.2       1 UNK         0.0000 
     33 O33         6.2335   53.7017   16.8724 O.2       1 UNK         0.0000 
     34 C34         3.3437   53.7932   26.5967 C.3       1 UNK         0.0000 
     35 H35         2.7027   56.9415   29.6892 H         1 UNK         0.0000 
     36 H36         1.1669   56.1071   29.8038 H         1 UNK         0.0000 
     37 H37         1.9224   56.3683   28.2315 H         1 UNK         0.0000 
     38 H38         3.8804   54.9240   28.9776 H         1 UNK         0.0000 
     39 H39         3.1347   54.6806   30.4817 H         1 UNK         0.0000 
     40 H40         0.4145   52.3535   29.5201 H         1 UNK         0.0000 
     41 H41         0.9253   53.5163   30.7172 H         1 UNK         0.0000 
     42 H42         0.0896   54.0598   29.2703 H         1 UNK         0.0000 
     43 H43         2.6615   51.3531   29.0087 H         1 UNK         0.0000 
     44 H44         4.0950   52.3699   28.9695 H         1 UNK         0.0000 
     45 H45         3.1566   52.2402   30.4306 H         1 UNK         0.0000 
     46 H46         1.8934   51.4784   26.8837 H         1 UNK         0.0000 
     47 H47         0.3651   52.1348   27.3172 H         1 UNK         0.0000 
     48 H48         0.4535   51.6494   24.8724 H         1 UNK         0.0000 
     49 H49         0.0057   53.2934   25.2377 H         1 UNK         0.0000 
     50 H50         3.0392   53.6104   20.6126 H         1 UNK         0.0000 
     51 H51         4.7587   53.5199   18.8627 H         1 UNK         0.0000 
     52 H52         4.0965   55.1272   19.0192 H         1 UNK         0.0000 
     53 H53         9.2831   57.2916   19.6347 H         1 UNK         0.0000 
     54 H54         9.4990   55.6202   19.2571 H         1 UNK         0.0000 
     55 H55        10.4409   56.0684   17.0374 H         1 UNK         0.0000 
     56 H56        11.3502   56.8981   18.2422 H         1 UNK         0.0000 
     57 H57        10.0968   59.0026   17.8083 H         1 UNK         0.0000 
     58 H58         8.6884   57.4736   15.5737 H         1 UNK         0.0000 
     59 H59         8.5188   59.1656   15.8930 H         1 UNK         0.0000 
     60 H60         6.6660   57.8719   16.8880 H         1 UNK         0.0000 
     61 H61         7.4911   58.7123   18.1513 H         1 UNK         0.0000 
     62 H62        11.2710   57.7997   15.2392 H         1 UNK         0.0000 
     63 H63        11.0406   59.5168   15.5511 H         1 UNK         0.0000 
     64 H64        12.1954   58.5973   16.5097 H         1 UNK         0.0000 
     65 H65         8.4361   55.1199   16.6141 H         1 UNK         0.0000 
     66 H66         3.7785   54.7662   26.8176 H         1 UNK         0.0000 
     67 H67         4.0676   53.0317   26.8885 H         1 UNK         0.0000 
@<TRIPOS>BOND
     1    1    2 1    
     2    1   35 1    
     3    1   36 1    
     4    1   37 1    
     5    2    3 1    
     6    2   38 1    
     7    2   39 1    
     8    3    4 1    
     9    3    5 1    
    10    3    6 1    
    11    4   40 1    
    12    4   41 1    
    13    4   42 1    
    14    5   43 1    
    15    5   44 1    
    16    5   45 1    
    17    6    7 1    
    18    6   34 1    
    19    6    8 1    
    20    8    9 1    
    21    8   46 1    
    22    8   47 1    
    23    9   10 1    
    24    9   48 1    
    25    9   49 1    
    26   10   14 1    
    27   10   11 2    
    28   11   12 1    
    29   11   34 1    
    30   12   13 1    
    31   13   14 2    
    32   13   17 am   BACKBONE|DICT|INTERRES
    33   14   15 1    
    34   15   16 3    
    35   17   18 am   BACKBONE|DICT|INTERRES
    36   17   50 1    
    37   18   19 2    
    38   18   20 1    
    39   20   21 1    
    40   20   51 1    
    41   20   52 1    
    42   21   32 am   BACKBONE|DICT|INTERRES
    43   21   22 am   BACKBONE|DICT|INTERRES
    44   22   23 2    
    45   22   24 1    
    46   24   29 1    
    47   24   25 1    
    48   24   31 1    
    49   25   26 1    
    50   25   53 1    
    51   25   54 1    
    52   26   27 1    
    53   26   55 1    
    54   26   56 1    
    55   27   28 1    
    56   27   30 1    
    57   27   57 1    
    58   28   29 1    
    59   28   58 1    
    60   28   59 1    
    61   29   60 1    
    62   29   61 1    
    63   30   62 1    
    64   30   63 1    
    65   30   64 1    
    66   31   32 am   BACKBONE|DICT|INTERRES
    67   31   65 1    
    68   32   33 2    
    69   34   66 1    
    70   34   67 1    
@<TRIPOS>SUBSTRUCTURE
     1 UNK         1 GROUP             0       ****    0 ROOT    
