ZINC15245020_2251
                    3D
 Schrodinger Suite 2024-2.
 55 58  0  0  1  0            999 V2000
    0.0498   48.9208   22.8881 C   0  0  0  0  0  0
    0.8331   49.2967   21.6429 C   0  0  0  0  0  0
    0.6355   48.6059   20.4444 C   0  0  0  0  0  0
    1.3777   48.9410   19.3129 C   0  0  0  0  0  0
    2.3051   49.9796   19.3692 C   0  0  0  0  0  0
    2.4996   50.6959   20.5537 C   0  0  0  0  0  0
    1.7670   50.3342   21.6977 C   0  0  0  0  0  0
    3.4550   51.7286   20.5151 N   0  0  0  0  0  0
    3.5866   52.7881   21.3480 C   0  0  0  0  0  0
    2.8434   53.0057   22.3086 O   0  0  0  0  0  0
    4.7460   53.7278   21.0496 C   0  0  0  0  0  0
    5.1878   53.8837   19.7218 C   0  0  0  0  0  0
    6.2503   54.7274   19.4079 C   0  0  0  0  0  0
    6.9033   55.4279   20.4150 C   0  0  0  0  0  0
    6.4825   55.2964   21.7350 C   0  0  0  0  0  0
    5.3998   54.4683   22.0699 C   0  0  0  0  0  0
    4.9744   54.3786   23.4093 N   0  0  0  0  0  0
    6.0142   54.6629   24.8111 S   0  0  0  0  0  0
    6.3044   56.0966   24.8820 O   0  0  0  0  0  0
    7.1044   53.6968   24.7002 O   0  0  0  0  0  0
    5.0663   54.2463   26.2621 C   0  0  0  0  0  0
    5.7109   53.6650   27.3557 C   0  0  0  0  0  0
    4.9781   53.2864   28.4793 C   0  0  0  0  0  0
    3.5951   53.5027   28.5169 C   0  0  0  0  0  0
    2.9662   54.1440   27.4535 C   0  0  0  0  0  0
    3.6927   54.4961   26.3133 C   0  0  0  0  0  0
    1.4990   54.2807   27.7321 C   0  0  0  0  0  0
    1.3390   53.7689   29.1573 C   0  0  0  0  0  0
    2.6432   53.1998   29.5098 N   0  0  0  0  0  0
    2.8219   52.4946   30.6539 C   0  0  0  0  0  0
    3.9005   52.0056   30.9901 O   0  0  0  0  0  0
    1.6223   52.2670   31.5854 C   0  0  0  0  0  0
   -0.6608   48.1146   22.7033 H   0  0  0  0  0  0
    0.7299   48.6063   23.6803 H   0  0  0  0  0  0
   -0.5027   49.7848   23.2587 H   0  0  0  0  0  0
   -0.0821   47.8007   20.3890 H   0  0  0  0  0  0
    1.2397   48.3980   18.3896 H   0  0  0  0  0  0
    2.8769   50.2180   18.4815 H   0  0  0  0  0  0
    1.9158   50.8360   22.6410 H   0  0  0  0  0  0
    4.0975   51.6729   19.7367 H   0  0  0  0  0  0
    4.7101   53.3581   18.9058 H   0  0  0  0  0  0
    6.5728   54.8291   18.3818 H   0  0  0  0  0  0
    7.7389   56.0682   20.1730 H   0  0  0  0  0  0
    7.0100   55.8525   22.4945 H   0  0  0  0  0  0
    4.1209   53.8567   23.5604 H   0  0  0  0  0  0
    6.7737   53.4711   27.3255 H   0  0  0  0  0  0
    5.5026   52.7977   29.2819 H   0  0  0  0  0  0
    3.1984   54.9511   25.4673 H   0  0  0  0  0  0
    0.9349   53.6408   27.0532 H   0  0  0  0  0  0
    1.1140   55.2980   27.6815 H   0  0  0  0  0  0
    0.5111   53.0611   29.2302 H   0  0  0  0  0  0
    1.1728   54.6186   29.8223 H   0  0  0  0  0  0
    1.1821   53.2079   31.9154 H   0  0  0  0  0  0
    1.9197   51.7072   32.4739 H   0  0  0  0  0  0
    0.8446   51.6975   31.0783 H   0  0  0  0  0  0
  1  2  1  0  0  0
  1 33  1  0  0  0
  1 34  1  0  0  0
  1 35  1  0  0  0
  2  7  2  0  0  0
  2  3  1  0  0  0
  3  4  2  0  0  0
  3 36  1  0  0  0
  4  5  1  0  0  0
  4 37  1  0  0  0
  5  6  2  0  0  0
  5 38  1  0  0  0
  6  7  1  0  0  0
  6  8  1  0  0  0
  7 39  1  0  0  0
  8  9  1  0  0  0
  8 40  1  0  0  0
  9 10  2  0  0  0
  9 11  1  0  0  0
 11 16  2  0  0  0
 11 12  1  0  0  0
 12 13  2  0  0  0
 12 41  1  0  0  0
 13 14  1  0  0  0
 13 42  1  0  0  0
 14 15  2  0  0  0
 14 43  1  0  0  0
 15 16  1  0  0  0
 15 44  1  0  0  0
 16 17  1  0  0  0
 17 18  1  0  0  0
 17 45  1  0  0  0
 18 19  2  0  0  0
 18 20  2  0  0  0
 18 21  1  0  0  0
 21 26  2  0  0  0
 21 22  1  0  0  0
 22 23  2  0  0  0
 22 46  1  0  0  0
 23 24  1  0  0  0
 23 47  1  0  0  0
 24 29  1  0  0  0
 24 25  2  0  0  0
 25 26  1  0  0  0
 25 27  1  0  0  0
 26 48  1  0  0  0
 27 28  1  0  0  0
 27 49  1  0  0  0
 27 50  1  0  0  0
 28 29  1  0  0  0
 28 51  1  0  0  0
 28 52  1  0  0  0
 29 30  1  0  0  0
 30 31  2  0  0  0
 30 32  1  0  0  0
 32 53  1  0  0  0
 32 54  1  0  0  0
 32 55  1  0  0  0
M  END
> <i_i_glide_confnum>
4

> <i_i_glide_lignum>
2252

> <i_i_glide_posenum>
1

> <i_i_glide_rotatable_bonds>
7

> <i_m_Source_File_Index>
4431

> <b_m_subgroup_collapsed>
0

> <r_i_docking_score>
-3.63654

> <r_i_glide_ecoul>
-4.88078

> <r_i_glide_eff_state_penalty>
0

> <r_i_glide_einternal>
5.90069

> <r_i_glide_emodel>
-55.5018

> <r_i_glide_energy>
-55.834

> <r_i_glide_erotb>
0.595085

> <r_i_glide_esite>
-0.050964

> <r_i_glide_evdw>
-50.9532

> <r_i_glide_gscore>
-3.63654

> <r_i_glide_hbond>
-0.228961

> <r_i_glide_ligand_efficiency>
-0.113642

> <r_i_glide_ligand_efficiency_ln>
-0.81432

> <r_i_glide_ligand_efficiency_sa>
-0.36079

> <r_i_glide_lipo>
-2.7259

> <r_i_glide_metal>
0

> <r_i_glide_rewards>
2.05398

> <s_i_glide_gridfile>
wee1_glide-grid

> <s_m_Source_File>
wee1_decoys_glide_SP.sdf

> <s_m_Source_Path>
/Users/zhangxujun/Desktop

> <s_m_entry_id>
4706

> <s_m_entry_name>
wee1_decoys_glide_SP.4431

> <s_m_subgroup_title>
wee1_decoys_glide_SP

> <s_m_subgroupid>
wee1_decoys_glide_SP


$$$$
