@<TRIPOS>MOLECULE
ZINC04352564_5725
65   68    1
SMALL
USER_CHARGES


@<TRIPOS>ATOM
      1 C1          8.7077   59.1669   17.3123 C.ar      1 UNK         0.0000 
      2 C2          7.4881   58.5150   17.1470 C.ar      1 UNK         0.0000 
      3 C3          7.3780   57.1651   17.4722 C.ar      1 UNK         0.0000 
      4 C4          8.4778   56.4703   17.9858 C.ar      1 UNK         0.0000 
      5 C5          9.7053   57.1259   18.1189 C.ar      1 UNK         0.0000 
      6 C6          9.8213   58.4759   17.7892 C.ar      1 UNK         0.0000 
      7 C7          8.3786   54.9984   18.3916 C.3       1 UNK         0.0000 
      8 O8          7.0406   54.5419   18.5710 O.3       1 UNK         0.0000 
      9 P9          6.0983   55.0561   19.8033 P.3       1 UNK         0.0000 
     10 O10         6.7575   55.9552   20.7926 O.2       1 UNK         0.0000 
     11 O11         4.8137   55.6968   19.0308 O.3       1 UNK         0.0000 
     12 C12         4.0749   54.9617   18.0628 C.3       1 UNK         0.0000 
     13 C13         3.8569   55.7996   16.8075 C.ar      1 UNK         0.0000 
     14 C14         3.7881   57.1950   16.8828 C.ar      1 UNK         0.0000 
     15 C15         3.5942   57.9550   15.7331 C.ar      1 UNK         0.0000 
     16 C16         3.4650   57.3149   14.5026 C.ar      1 UNK         0.0000 
     17 C17         3.5213   55.9248   14.4146 C.ar      1 UNK         0.0000 
     18 C18         3.7188   55.1668   15.5695 C.ar      1 UNK         0.0000 
     19 O19         5.5044   53.6796   20.4174 O.3       1 UNK         0.0000 
     20 P20         4.6744   53.4430   21.7869 P.3       1 UNK         0.0000 
     21 O21         3.5993   54.4342   22.0605 O.2       1 UNK         0.0000 
     22 O22         4.1861   51.8942   21.6470 O.3       1 UNK         0.0000 
     23 C23         2.9293   51.5834   21.0693 C.3       1 UNK         0.0000 
     24 C24         1.9040   51.4106   22.1790 C.ar      1 UNK         0.0000 
     25 C25         1.0533   52.4668   22.5170 C.ar      1 UNK         0.0000 
     26 C26         0.1455   52.3182   23.5624 C.ar      1 UNK         0.0000 
     27 C27         0.0882   51.1137   24.2614 C.ar      1 UNK         0.0000 
     28 C28         0.9312   50.0569   23.9243 C.ar      1 UNK         0.0000 
     29 C29         1.8429   50.2045   22.8821 C.ar      1 UNK         0.0000 
     30 O30         5.8291   53.3243   22.9351 O.3       1 UNK         0.0000 
     31 C31         6.2018   54.4381   23.7326 C.3       1 UNK         0.0000 
     32 C32         5.6031   54.3346   25.1382 C.ar      1 UNK         0.0000 
     33 C33         6.4444   54.3925   26.2524 C.ar      1 UNK         0.0000 
     34 C34         5.9243   54.2943   27.5410 C.ar      1 UNK         0.0000 
     35 C35         4.5513   54.1411   27.7149 C.ar      1 UNK         0.0000 
     36 C36         3.6987   54.0962   26.6131 C.ar      1 UNK         0.0000 
     37 C37         4.2233   54.1948   25.3273 C.ar      1 UNK         0.0000 
     38 H38         8.7827   60.2140   17.0576 H         1 UNK         0.0000 
     39 H39         6.6319   59.0591   16.7697 H         1 UNK         0.0000 
     40 H40         6.4354   56.6661   17.3257 H         1 UNK         0.0000 
     41 H41        10.5717   56.5928   18.4817 H         1 UNK         0.0000 
     42 H42        10.7700   58.9784   17.9024 H         1 UNK         0.0000 
     43 H43         8.8264   54.4065   17.5952 H         1 UNK         0.0000 
     44 H44         8.9610   54.7989   19.2940 H         1 UNK         0.0000 
     45 H45         4.5736   54.0248   17.8048 H         1 UNK         0.0000 
     46 H46         3.1081   54.6968   18.4879 H         1 UNK         0.0000 
     47 H47         3.8931   57.6964   17.8313 H         1 UNK         0.0000 
     48 H48         3.5544   59.0340   15.7992 H         1 UNK         0.0000 
     49 H49         3.3179   57.9029   13.6084 H         1 UNK         0.0000 
     50 H50         3.4189   55.4373   13.4575 H         1 UNK         0.0000 
     51 H51         3.7656   54.0904   15.4955 H         1 UNK         0.0000 
     52 H52         2.6081   52.3360   20.3463 H         1 UNK         0.0000 
     53 H53         3.0220   50.6488   20.5146 H         1 UNK         0.0000 
     54 H54         1.1091   53.4049   21.9818 H         1 UNK         0.0000 
     55 H55        -0.5068   53.1342   23.8349 H         1 UNK         0.0000 
     56 H56        -0.6113   50.9974   25.0756 H         1 UNK         0.0000 
     57 H57         0.8904   49.1297   24.4786 H         1 UNK         0.0000 
     58 H58         2.5075   49.3887   22.6385 H         1 UNK         0.0000 
     59 H59         7.2923   54.4480   23.7842 H         1 UNK         0.0000 
     60 H60         5.9093   55.3802   23.2760 H         1 UNK         0.0000 
     61 H61         7.5066   54.4964   26.1240 H         1 UNK         0.0000 
     62 H62         6.5836   54.3350   28.3967 H         1 UNK         0.0000 
     63 H63         4.1467   54.0576   28.7129 H         1 UNK         0.0000 
     64 H64         2.6339   53.9826   26.7567 H         1 UNK         0.0000 
     65 H65         3.5472   54.1518   24.4878 H         1 UNK         0.0000 
@<TRIPOS>BOND
     1    1    6 ar   
     2    1    2 ar   
     3    1   38 1    
     4    2    3 ar   
     5    2   39 1    
     6    3    4 ar   
     7    3   40 1    
     8    4    5 ar   
     9    4    7 1    
    10    5    6 ar   
    11    5   41 1    
    12    6   42 1    
    13    7    8 1    
    14    7   43 1    
    15    7   44 1    
    16    8    9 1    
    17    9   10 2    
    18    9   11 1    
    19    9   19 1    
    20   11   12 1    
    21   12   13 1    
    22   12   45 1    
    23   12   46 1    
    24   13   18 ar   
    25   13   14 ar   
    26   14   15 ar   
    27   14   47 1    
    28   15   16 ar   
    29   15   48 1    
    30   16   17 ar   
    31   16   49 1    
    32   17   18 ar   
    33   17   50 1    
    34   18   51 1    
    35   19   20 1    
    36   20   21 2    
    37   20   22 1    
    38   20   30 1    
    39   22   23 1    
    40   23   24 1    
    41   23   52 1    
    42   23   53 1    
    43   24   29 ar   
    44   24   25 ar   
    45   25   26 ar   
    46   25   54 1    
    47   26   27 ar   
    48   26   55 1    
    49   27   28 ar   
    50   27   56 1    
    51   28   29 ar   
    52   28   57 1    
    53   29   58 1    
    54   30   31 1    
    55   31   32 1    
    56   31   59 1    
    57   31   60 1    
    58   32   37 ar   
    59   32   33 ar   
    60   33   34 ar   
    61   33   61 1    
    62   34   35 ar   
    63   34   62 1    
    64   35   36 ar   
    65   35   63 1    
    66   36   37 ar   
    67   36   64 1    
    68   37   65 1    
@<TRIPOS>SUBSTRUCTURE
     1 UNK         1 GROUP             0       ****    0 ROOT    
