@<TRIPOS>MOLECULE
ZINC13395772_525
54   56    1
SMALL
USER_CHARGES


@<TRIPOS>ATOM
      1 C1         -0.6160   51.8765   29.4727 C.3       1 UNK         0.0000 
      2 S2          0.3866   52.9121   28.3698 S.3       1 UNK         0.0000 
      3 C3          0.4972   52.1159   26.7869 C.ar      1 UNK         0.0000 
      4 C4         -0.1173   50.8865   26.5454 C.ar      1 UNK         0.0000 
      5 C5         -0.0134   50.2937   25.2906 C.ar      1 UNK         0.0000 
      6 C6          0.7005   50.9221   24.2650 C.ar      1 UNK         0.0000 
      7 C7          1.3150   52.1558   24.5138 C.ar      1 UNK         0.0000 
      8 C8          1.2145   52.7487   25.7715 C.ar      1 UNK         0.0000 
      9 C9          0.7791   50.2533   22.9508 C.2       1 UNK         0.0000 
     10 C10         1.7144   50.4704   21.9949 C.2       1 UNK         0.0000 
     11 C11         1.7327   49.8400   20.6903 C.2       1 UNK         0.0000 
     12 O12         2.3147   50.3816   19.7549 O.2       1 UNK         0.0000 
     13 N13         1.0559   48.6742   20.6018 N.am      1 UNK         0.0000 
     14 C14         0.8290   47.8351   19.4985 C.ar      1 UNK         0.0000 
     15 C15        -0.1712   46.8770   19.6711 C.ar      1 UNK         0.0000 
     16 C16        -0.5241   46.0370   18.6213 C.ar      1 UNK         0.0000 
     17 C17         0.1343   46.1346   17.3940 C.ar      1 UNK         0.0000 
     18 C18         1.1747   47.0542   17.2296 C.ar      1 UNK         0.0000 
     19 C19         1.5177   47.9076   18.2776 C.ar      1 UNK         0.0000 
     20 S20        -0.4225   45.1154   16.0201 S.o2      1 UNK         0.0000 
     21 O21        -1.8628   44.9197   16.2209 O.2       1 UNK         0.0000 
     22 O22         0.0814   45.7300   14.7862 O.2       1 UNK         0.0000 
     23 N23         0.3482   43.5281   16.2168 N.pl3     1 UNK         0.0000 
     24 C24         1.5495   43.1527   15.4265 C.3       1 UNK         0.0000 
     25 C25         2.8261   43.1526   16.2961 C.3       1 UNK         0.0000 
     26 C26         2.6161   42.3798   17.6274 C.3       1 UNK         0.0000 
     27 C27         1.3532   42.8979   18.3777 C.3       1 UNK         0.0000 
     28 H28         1.4749   43.9459   18.6442 H         1 UNK         0.0000 
     29 C29         0.1169   42.7507   17.4584 C.3       1 UNK         0.0000 
     30 C30         1.1043   42.1938   19.7296 C.2       1 UNK         0.0000 
     31 O31         0.0505   42.4968   20.3401 O.co2     1 UNK         0.0000 
     32 H32        -0.6839   52.3292   30.4623 H         1 UNK         0.0000 
     33 H33        -0.1600   50.8967   29.5847 H         1 UNK         0.0000 
     34 H34        -1.6254   51.7468   29.0809 H         1 UNK         0.0000 
     35 H35        -0.6778   50.3722   27.3123 H         1 UNK         0.0000 
     36 H36        -0.4887   49.3358   25.1308 H         1 UNK         0.0000 
     37 H37         1.8661   52.6657   23.7365 H         1 UNK         0.0000 
     38 H38         1.6903   53.7004   25.9580 H         1 UNK         0.0000 
     39 H39        -0.0215   49.5489   22.7651 H         1 UNK         0.0000 
     40 H40         2.5144   51.1807   22.1488 H         1 UNK         0.0000 
     41 H41         0.5950   48.3801   21.4477 H         1 UNK         0.0000 
     42 H42        -0.7080   46.7948   20.6063 H         1 UNK         0.0000 
     43 H43        -1.3266   45.3263   18.7566 H         1 UNK         0.0000 
     44 H44         1.7015   47.1340   16.2875 H         1 UNK         0.0000 
     45 H45         2.3139   48.6191   18.1143 H         1 UNK         0.0000 
     46 H46         1.3691   42.1720   14.9870 H         1 UNK         0.0000 
     47 H47         1.6649   43.8454   14.5934 H         1 UNK         0.0000 
     48 H48         3.6435   42.7090   15.7256 H         1 UNK         0.0000 
     49 H49         3.1237   44.1852   16.4817 H         1 UNK         0.0000 
     50 H50         2.4974   41.3233   17.3802 H         1 UNK         0.0000 
     51 H51         3.5075   42.4802   18.2468 H         1 UNK         0.0000 
     52 H52        -0.7904   43.1225   17.9389 H         1 UNK         0.0000 
     53 H53        -0.0571   41.7104   17.1780 H         1 UNK         0.0000 
     54 O54         1.9231   41.3420   20.1358 O.co2     1 UNK         0.0000 
@<TRIPOS>BOND
     1    1    2 1    
     2    1   32 1    
     3    1   33 1    
     4    1   34 1    
     5    2    3 1    
     6    3    8 ar   
     7    3    4 ar   
     8    4    5 ar   
     9    4   35 1    
    10    5    6 ar   
    11    5   36 1    
    12    6    7 ar   
    13    6    9 1    
    14    7    8 ar   
    15    7   37 1    
    16    8   38 1    
    17    9   10 2    
    18    9   39 1    
    19   10   11 1    
    20   10   40 1    
    21   11   12 2    
    22   11   13 am   BACKBONE|DICT|INTERRES
    23   13   14 1    
    24   13   41 1    
    25   14   19 ar   
    26   14   15 ar   
    27   15   16 ar   
    28   15   42 1    
    29   16   17 ar   
    30   16   43 1    
    31   17   18 ar   
    32   17   20 1    
    33   18   19 ar   
    34   18   44 1    
    35   19   45 1    
    36   20   21 2    
    37   20   22 2    
    38   20   23 1    
    39   23   29 1    
    40   23   24 1    
    41   24   25 1    
    42   24   46 1    
    43   24   47 1    
    44   25   26 1    
    45   25   48 1    
    46   25   49 1    
    47   26   27 1    
    48   26   50 1    
    49   26   51 1    
    50   27   28 1    
    51   27   29 1    
    52   27   30 1    
    53   29   52 1    
    54   29   53 1    
    55   30   31 2    
    56   30   54 1    
@<TRIPOS>SUBSTRUCTURE
     1 UNK         1 GROUP             0       ****    0 ROOT    
