@<TRIPOS>MOLECULE
ZINC12064317_5477
67   70    1
SMALL
USER_CHARGES


@<TRIPOS>ATOM
      1 C1         11.4615   55.0226   15.8606 C.3       1 UNK         0.0000 
      2 C2         11.0039   54.0815   16.9917 C.3       1 UNK         0.0000 
      3 H3         11.8481   53.9122   17.6627 H         1 UNK         0.0000 
      4 C4         10.5556   52.6941   16.4515 C.3       1 UNK         0.0000 
      5 C5          9.1415   52.6972   15.8121 C.3       1 UNK         0.0000 
      6 H6          9.1867   53.3216   14.9178 H         1 UNK         0.0000 
      7 C7          8.1221   53.3598   16.7665 C.3       1 UNK         0.0000 
      8 N8          8.5963   54.7247   17.1018 N.pl3     1 UNK         0.0000 
      9 C9          9.8834   54.7293   17.8447 C.3       1 UNK         0.0000 
     10 S10         7.3808   55.9179   17.5962 S.o2      1 UNK         0.0000 
     11 O11         6.1809   55.7240   16.7731 O.2       1 UNK         0.0000 
     12 O12         8.0402   57.2278   17.6600 O.2       1 UNK         0.0000 
     13 C13         6.9443   55.4946   19.2816 C.ar      1 UNK         0.0000 
     14 C14         7.7725   55.9217   20.3165 C.ar      1 UNK         0.0000 
     15 C15         7.4456   55.6241   21.6336 C.ar      1 UNK         0.0000 
     16 C16         6.3016   54.8754   21.9324 C.ar      1 UNK         0.0000 
     17 C17         5.4655   54.4593   20.8821 C.ar      1 UNK         0.0000 
     18 C18         5.7878   54.7647   19.5611 C.ar      1 UNK         0.0000 
     19 C19         6.0199   54.4970   23.3684 C.2       1 UNK         0.0000 
     20 O20         6.9533   54.3075   24.1508 O.2       1 UNK         0.0000 
     21 N21         4.7130   54.4023   23.6945 N.am      1 UNK         0.0000 
     22 C22         4.1496   54.1598   24.9468 C.2       1 UNK         0.0000 
     23 C23         2.8471   53.6954   25.1959 C.2       1 UNK         0.0000 
     24 C24         2.5733   53.5978   26.6009 C.2       1 UNK         0.0000 
     25 C25         3.6902   53.9421   27.3831 C.2       1 UNK         0.0000 
     26 S26         5.0266   54.4399   26.4118 S.3       1 UNK         0.0000 
     27 C27         3.7682   53.9789   28.8903 C.3       1 UNK         0.0000 
     28 C28         2.7916   55.0046   29.4828 C.3       1 UNK         0.0000 
     29 C29         1.3406   54.5152   29.5643 C.3       1 UNK         0.0000 
     30 C30         0.6722   54.3203   28.1999 C.3       1 UNK         0.0000 
     31 C31         1.2590   53.2168   27.2930 C.3       1 UNK         0.0000 
     32 C32         1.9046   53.4497   24.1087 C.2       1 UNK         0.0000 
     33 O33         1.9549   54.0982   23.0613 O.2       1 UNK         0.0000 
     34 N34         1.0371   52.4439   24.3020 N.am      1 UNK         0.0000 
     35 C35         0.0358   52.0057   23.3359 C.3       1 UNK         0.0000 
     36 C36         8.7053   51.2850   15.3917 C.3       1 UNK         0.0000 
     37 H37        10.6520   55.2466   15.1653 H         1 UNK         0.0000 
     38 H38        11.8224   55.9706   16.2603 H         1 UNK         0.0000 
     39 H39        12.2765   54.5805   15.2875 H         1 UNK         0.0000 
     40 H40        10.5478   51.9896   17.2818 H         1 UNK         0.0000 
     41 H41        11.2886   52.2795   15.7578 H         1 UNK         0.0000 
     42 H42         8.1040   52.7674   17.6816 H         1 UNK         0.0000 
     43 H43         7.1250   53.4000   16.3252 H         1 UNK         0.0000 
     44 H44        10.1423   55.7496   18.1312 H         1 UNK         0.0000 
     45 H45         9.7547   54.0983   18.7261 H         1 UNK         0.0000 
     46 H46         8.6708   56.4853   20.1027 H         1 UNK         0.0000 
     47 H47         8.0966   55.9711   22.4223 H         1 UNK         0.0000 
     48 H48         4.5746   53.8752   21.0684 H         1 UNK         0.0000 
     49 H49         5.1413   54.4302   18.7614 H         1 UNK         0.0000 
     50 H50         4.0488   54.3808   22.9321 H         1 UNK         0.0000 
     51 H51         4.7842   54.2032   29.2201 H         1 UNK         0.0000 
     52 H52         3.5395   52.9960   29.3041 H         1 UNK         0.0000 
     53 H53         2.8445   55.9461   28.9326 H         1 UNK         0.0000 
     54 H54         3.1046   55.2521   30.4818 H         1 UNK         0.0000 
     55 H55         0.7609   55.2436   30.1334 H         1 UNK         0.0000 
     56 H56         1.2873   53.5879   30.1373 H         1 UNK         0.0000 
     57 H57         0.7042   55.2785   27.6819 H         1 UNK         0.0000 
     58 H58        -0.3820   54.0981   28.3744 H         1 UNK         0.0000 
     59 H59         1.4066   52.3141   27.8876 H         1 UNK         0.0000 
     60 H60         0.4678   52.9453   26.6024 H         1 UNK         0.0000 
     61 H61         1.0761   51.9367   25.1732 H         1 UNK         0.0000 
     62 H62         0.0433   50.9178   23.2658 H         1 UNK         0.0000 
     63 H63        -0.9559   52.3188   23.6612 H         1 UNK         0.0000 
     64 H64         0.2079   52.4042   22.3355 H         1 UNK         0.0000 
     65 H65         8.7032   50.5999   16.2411 H         1 UNK         0.0000 
     66 H66         7.7031   51.2894   14.9620 H         1 UNK         0.0000 
     67 H67         9.3805   50.8723   14.6409 H         1 UNK         0.0000 
@<TRIPOS>BOND
     1    1    2 1    
     2    1   37 1    
     3    1   38 1    
     4    1   39 1    
     5    2    3 1    
     6    2    9 1    
     7    2    4 1    
     8    4    5 1    
     9    4   40 1    
    10    4   41 1    
    11    5    6 1    
    12    5    7 1    
    13    5   36 1    
    14    7    8 1    
    15    7   42 1    
    16    7   43 1    
    17    8    9 1    
    18    8   10 1    
    19    9   44 1    
    20    9   45 1    
    21   10   11 2    
    22   10   12 2    
    23   10   13 1    
    24   13   18 ar   
    25   13   14 ar   
    26   14   15 ar   
    27   14   46 1    
    28   15   16 ar   
    29   15   47 1    
    30   16   17 ar   
    31   16   19 1    
    32   17   18 ar   
    33   17   48 1    
    34   18   49 1    
    35   19   20 2    
    36   19   21 am   BACKBONE|DICT|INTERRES
    37   21   22 am   BACKBONE|DICT|INTERRES
    38   21   50 1    
    39   22   26 1    
    40   22   23 2    
    41   23   24 1    
    42   23   32 1    
    43   24   31 1    
    44   24   25 2    
    45   25   26 1    
    46   25   27 1    
    47   27   28 1    
    48   27   51 1    
    49   27   52 1    
    50   28   29 1    
    51   28   53 1    
    52   28   54 1    
    53   29   30 1    
    54   29   55 1    
    55   29   56 1    
    56   30   31 1    
    57   30   57 1    
    58   30   58 1    
    59   31   59 1    
    60   31   60 1    
    61   32   33 2    
    62   32   34 am   BACKBONE|DICT|INTERRES
    63   34   35 1    
    64   34   61 1    
    65   35   62 1    
    66   35   63 1    
    67   35   64 1    
    68   36   65 1    
    69   36   66 1    
    70   36   67 1    
@<TRIPOS>SUBSTRUCTURE
     1 UNK         1 GROUP             0       ****    0 ROOT    
