@<TRIPOS>MOLECULE
ZINC12521509_6095
61   65    1
SMALL
USER_CHARGES


@<TRIPOS>ATOM
      1 C1          3.3532   52.9621   16.6940 C.3       1 UNK         0.0000 
      2 C2          3.8412   53.6175   17.9985 C.3       1 UNK         0.0000 
      3 H3          3.4373   54.6322   18.0135 H         1 UNK         0.0000 
      4 C4          5.3822   53.6531   18.0664 C.3       1 UNK         0.0000 
      5 C5          5.8960   54.4908   19.2555 C.3       1 UNK         0.0000 
      6 C6          5.1213   54.1122   20.5221 C.2       1 UNK         0.0000 
      7 C7          3.9234   53.3942   20.4865 C.2       1 UNK         0.0000 
      8 S8          3.2113   53.1141   22.0577 S.3       1 UNK         0.0000 
      9 C9          4.5407   53.9572   22.8160 C.ar      1 UNK         0.0000 
     10 C10         5.4889   54.4429   21.8694 C.ar      1 UNK         0.0000 
     11 C11         6.5853   55.1325   22.4410 C.ar      1 UNK         0.0000 
     12 N12         6.7048   55.2928   23.7832 N.ar      1 UNK         0.0000 
     13 C13         5.7518   54.7471   24.5661 C.ar      1 UNK         0.0000 
     14 N14         4.6404   54.0959   24.1358 N.ar      1 UNK         0.0000 
     15 S15         6.0223   54.8514   26.3157 S.3       1 UNK         0.0000 
     16 C16         4.6274   53.9302   27.0141 C.3       1 UNK         0.0000 
     17 C17         4.5991   53.5996   28.5159 C.3       1 UNK         0.0000 
     18 C18         3.2538   53.3267   29.2478 C.2       1 UNK         0.0000 
     19 O19         3.3360   53.3661   30.4755 O.2       1 UNK         0.0000 
     20 N20         2.0391   53.1978   28.6261 N.am      1 UNK         0.0000 
     21 C21         1.8412   52.8078   27.2167 C.3       1 UNK         0.0000 
     22 C22         0.9285   51.5718   27.1214 C.3       1 UNK         0.0000 
     23 N23        -0.3292   51.6893   27.8553 N.pl3     1 UNK         0.0000 
     24 C24        -0.0788   52.0412   29.2534 C.3       1 UNK         0.0000 
     25 C25         0.7964   53.3022   29.4297 C.3       1 UNK         0.0000 
     26 C26        -1.5848   51.7295   27.2601 C.ar      1 UNK         0.0000 
     27 C27        -2.7077   51.2482   27.9446 C.ar      1 UNK         0.0000 
     28 C28        -3.9735   51.2975   27.3630 C.ar      1 UNK         0.0000 
     29 C29        -4.1276   51.8461   26.0938 C.ar      1 UNK         0.0000 
     30 C30        -3.0228   52.3304   25.3964 C.ar      1 UNK         0.0000 
     31 C31        -1.7592   52.2664   25.9772 C.ar      1 UNK         0.0000 
     32 F32        -5.3543   51.9069   25.5300 F         1 UNK         0.0000 
     33 N33         7.6161   55.6743   21.6791 N.pl3     1 UNK         0.0000 
     34 C34         3.2852   52.8433   19.2153 C.3       1 UNK         0.0000 
     35 H35         3.6891   51.9269   16.6151 H         1 UNK         0.0000 
     36 H36         2.2658   52.9600   16.6406 H         1 UNK         0.0000 
     37 H37         3.7247   53.4950   15.8168 H         1 UNK         0.0000 
     38 H38         5.7839   52.6389   18.0827 H         1 UNK         0.0000 
     39 H39         5.7783   54.0759   17.1427 H         1 UNK         0.0000 
     40 H40         5.7716   55.5533   19.0421 H         1 UNK         0.0000 
     41 H41         6.9657   54.3145   19.3675 H         1 UNK         0.0000 
     42 H42         4.6238   52.9797   26.4802 H         1 UNK         0.0000 
     43 H43         3.7277   54.4718   26.7186 H         1 UNK         0.0000 
     44 H44         4.9319   54.5263   28.9873 H         1 UNK         0.0000 
     45 H45         5.3974   52.9113   28.7959 H         1 UNK         0.0000 
     46 H46         2.7431   52.4914   26.7173 H         1 UNK         0.0000 
     47 H47         1.3969   53.6362   26.6632 H         1 UNK         0.0000 
     48 H48         1.4359   50.7040   27.5479 H         1 UNK         0.0000 
     49 H49         0.7458   51.3258   26.0742 H         1 UNK         0.0000 
     50 H50        -1.0125   52.1760   29.7989 H         1 UNK         0.0000 
     51 H51         0.4220   51.1775   29.6815 H         1 UNK         0.0000 
     52 H52         0.2322   54.1721   29.0887 H         1 UNK         0.0000 
     53 H53         0.9812   53.4414   30.4943 H         1 UNK         0.0000 
     54 H54        -2.5932   50.7906   28.9185 H         1 UNK         0.0000 
     55 H55        -4.8305   50.9089   27.8951 H         1 UNK         0.0000 
     56 H56        -3.1513   52.7502   24.4108 H         1 UNK         0.0000 
     57 H57        -0.9173   52.6573   25.4268 H         1 UNK         0.0000 
     58 H58         7.6342   55.5427   20.6783 H         1 UNK         0.0000 
     59 H59         8.4117   56.0571   22.1762 H         1 UNK         0.0000 
     60 H60         3.5195   51.7796   19.1257 H         1 UNK         0.0000 
     61 H61         2.1977   52.9210   19.2579 H         1 UNK         0.0000 
@<TRIPOS>BOND
     1    1    2 1    
     2    1   35 1    
     3    1   36 1    
     4    1   37 1    
     5    2    3 1    
     6    2   34 1    
     7    2    4 1    
     8    4    5 1    
     9    4   38 1    
    10    4   39 1    
    11    5    6 1    
    12    5   40 1    
    13    5   41 1    
    14    6   10 1    
    15    6    7 2    
    16    7    8 1    
    17    7   34 1    
    18    8    9 1    
    19    9   14 ar   
    20    9   10 ar   
    21   10   11 ar   
    22   11   12 ar   
    23   11   33 1    
    24   12   13 ar   
    25   13   14 ar   
    26   13   15 1    
    27   15   16 1    
    28   16   17 1    
    29   16   42 1    
    30   16   43 1    
    31   17   18 1    
    32   17   44 1    
    33   17   45 1    
    34   18   19 2    
    35   18   20 am   BACKBONE|DICT|INTERRES
    36   20   25 1    
    37   20   21 1    
    38   21   22 1    
    39   21   46 1    
    40   21   47 1    
    41   22   23 1    
    42   22   48 1    
    43   22   49 1    
    44   23   24 1    
    45   23   26 1    
    46   24   25 1    
    47   24   50 1    
    48   24   51 1    
    49   25   52 1    
    50   25   53 1    
    51   26   31 ar   
    52   26   27 ar   
    53   27   28 ar   
    54   27   54 1    
    55   28   29 ar   
    56   28   55 1    
    57   29   30 ar   
    58   29   32 1    
    59   30   31 ar   
    60   30   56 1    
    61   31   57 1    
    62   33   58 1    
    63   33   59 1    
    64   34   60 1    
    65   34   61 1    
@<TRIPOS>SUBSTRUCTURE
     1 UNK         1 GROUP             0       ****    0 ROOT    
