@<TRIPOS>MOLECULE
ZINC02151697_2772
58   61    1
SMALL
USER_CHARGES


@<TRIPOS>ATOM
      1 C1          3.1136   52.9556   22.0398 C.3       1 UNK         0.0000 
      2 C2          4.4186   53.1004   21.2210 C.3       1 UNK         0.0000 
      3 C3          4.0648   52.8872   19.7347 C.3       1 UNK         0.0000 
      4 C4          5.2092   54.4374   21.4983 C.3       1 UNK         0.0000 
      5 H5          4.5063   55.2731   21.5302 H         1 UNK         0.0000 
      6 C6          5.8887   54.3411   22.8959 C.2       1 UNK         0.0000 
      7 O7          7.0956   54.0982   22.9849 O.2       1 UNK         0.0000 
      8 N8          5.0457   54.4965   23.9375 N.am      1 UNK         0.0000 
      9 C9          5.2877   54.4098   25.3172 C.ar      1 UNK         0.0000 
     10 C10         6.5610   54.5057   25.8968 C.ar      1 UNK         0.0000 
     11 C11         6.7051   54.4070   27.2806 C.ar      1 UNK         0.0000 
     12 C12         5.5928   54.2044   28.0949 C.ar      1 UNK         0.0000 
     13 C13         4.3264   54.1010   27.5236 C.ar      1 UNK         0.0000 
     14 C14         4.1717   54.2051   26.1424 C.ar      1 UNK         0.0000 
     15 F15         2.9307   54.0950   25.6098 F         1 UNK         0.0000 
     16 N16         6.1482   54.7424   20.4087 N.am      1 UNK         0.0000 
     17 C17         6.7830   55.9043   20.1772 C.2       1 UNK         0.0000 
     18 O18         6.6023   56.8968   20.8818 O.2       1 UNK         0.0000 
     19 N19         7.6203   55.9082   19.1032 N.am      1 UNK         0.0000 
     20 C20         8.1303   57.1803   18.5559 C.3       1 UNK         0.0000 
     21 C21         7.6378   57.2811   17.0823 C.3       1 UNK         0.0000 
     22 H22         7.9983   58.2048   16.6263 H         1 UNK         0.0000 
     23 C23         8.2430   56.1251   16.2749 C.3       1 UNK         0.0000 
     24 C24         7.7317   54.8190   16.8960 C.3       1 UNK         0.0000 
     25 H25         8.2034   53.9857   16.3725 H         1 UNK         0.0000 
     26 C26         8.1127   54.6998   18.3994 C.3       1 UNK         0.0000 
     27 C27         6.2131   54.7111   16.7051 C.ar      1 UNK         0.0000 
     28 C28         5.6292   53.5166   16.4545 C.ar      1 UNK         0.0000 
     29 C29         4.1883   53.4561   16.3412 C.ar      1 UNK         0.0000 
     30 C30         3.4735   54.5891   16.4999 C.ar      1 UNK         0.0000 
     31 C31         4.0818   55.8889   16.7541 C.ar      1 UNK         0.0000 
     32 O32         3.3618   56.8812   16.8819 O.2       1 UNK         0.0000 
     33 N33         5.4649   55.9015   16.8211 N.pl3     1 UNK         0.0000 
     34 C34         6.0842   57.2560   16.9681 C.3       1 UNK         0.0000 
     35 H35         2.4585   53.8145   21.8935 H         1 UNK         0.0000 
     36 H36         2.5536   52.0700   21.7345 H         1 UNK         0.0000 
     37 H37         3.2911   52.8469   23.1068 H         1 UNK         0.0000 
     38 H38         5.0576   52.2529   21.4851 H         1 UNK         0.0000 
     39 H39         3.4923   53.7281   19.3404 H         1 UNK         0.0000 
     40 H40         4.9575   52.7699   19.1219 H         1 UNK         0.0000 
     41 H41         3.4762   51.9814   19.5859 H         1 UNK         0.0000 
     42 H42         4.0727   54.6242   23.7043 H         1 UNK         0.0000 
     43 H43         7.4402   54.6640   25.2904 H         1 UNK         0.0000 
     44 H44         7.6841   54.4898   27.7279 H         1 UNK         0.0000 
     45 H45         5.7147   54.1336   29.1653 H         1 UNK         0.0000 
     46 H46         3.4596   53.9403   28.1487 H         1 UNK         0.0000 
     47 H47         6.2663   54.0037   19.7328 H         1 UNK         0.0000 
     48 H48         7.8072   58.0504   19.1295 H         1 UNK         0.0000 
     49 H49         9.2198   57.1705   18.5956 H         1 UNK         0.0000 
     50 H50         7.9639   56.1914   15.2212 H         1 UNK         0.0000 
     51 H51         9.3348   56.1618   16.3060 H         1 UNK         0.0000 
     52 H52         9.1975   54.6638   18.4979 H         1 UNK         0.0000 
     53 H53         7.7306   53.7673   18.8106 H         1 UNK         0.0000 
     54 H54         6.2113   52.6066   16.3894 H         1 UNK         0.0000 
     55 H55         3.6989   52.5105   16.1582 H         1 UNK         0.0000 
     56 H56         2.3976   54.5483   16.4364 H         1 UNK         0.0000 
     57 H57         5.6439   57.7654   17.8295 H         1 UNK         0.0000 
     58 H58         5.7687   57.8807   16.1301 H         1 UNK         0.0000 
@<TRIPOS>BOND
     1    1    2 1    
     2    1   35 1    
     3    1   36 1    
     4    1   37 1    
     5    2    3 1    
     6    2    4 1    
     7    2   38 1    
     8    3   39 1    
     9    3   40 1    
    10    3   41 1    
    11    4    5 1    
    12    4    6 1    
    13    4   16 1    
    14    6    7 2    
    15    6    8 am   BACKBONE|DICT|INTERRES
    16    8    9 1    
    17    8   42 1    
    18    9   14 ar   
    19    9   10 ar   
    20   10   11 ar   
    21   10   43 1    
    22   11   12 ar   
    23   11   44 1    
    24   12   13 ar   
    25   12   45 1    
    26   13   14 ar   
    27   13   46 1    
    28   14   15 1    
    29   16   17 am   BACKBONE|DICT|INTERRES
    30   16   47 1    
    31   17   18 2    
    32   17   19 am   BACKBONE|DICT|INTERRES
    33   19   26 1    
    34   19   20 1    
    35   20   21 1    
    36   20   48 1    
    37   20   49 1    
    38   21   22 1    
    39   21   34 1    
    40   21   23 1    
    41   23   24 1    
    42   23   50 1    
    43   23   51 1    
    44   24   25 1    
    45   24   26 1    
    46   24   27 1    
    47   26   52 1    
    48   26   53 1    
    49   27   33 ar   
    50   27   28 ar   
    51   28   29 ar   
    52   28   54 1    
    53   29   30 ar   
    54   29   55 1    
    55   30   31 ar   
    56   30   56 1    
    57   31   32 2    
    58   31   33 ar   
    59   33   34 1    
    60   34   57 1    
    61   34   58 1    
@<TRIPOS>SUBSTRUCTURE
     1 UNK         1 GROUP             0       ****    0 ROOT    
