@<TRIPOS>MOLECULE
ZINC56768415_1491
50   52    1
SMALL
USER_CHARGES


@<TRIPOS>ATOM
      1 C1         -3.6239   50.7807   27.9667 C.3       1 UNK         0.0000 
      2 C2         -2.6416   51.1442   26.8685 C.ar      1 UNK         0.0000 
      3 C3         -3.0508   51.1738   25.5359 C.ar      1 UNK         0.0000 
      4 C4         -2.1371   51.4833   24.5303 C.ar      1 UNK         0.0000 
      5 C5         -0.8070   51.7884   24.8431 C.ar      1 UNK         0.0000 
      6 C6         -0.3953   51.7965   26.1893 C.ar      1 UNK         0.0000 
      7 C7         -1.3200   51.4533   27.1900 C.ar      1 UNK         0.0000 
      8 N8          0.9451   52.1058   26.4815 N.am      1 UNK         0.0000 
      9 C9          1.4422   52.6723   27.5953 C.2       1 UNK         0.0000 
     10 O10         0.7814   52.9737   28.5876 O.2       1 UNK         0.0000 
     11 N11         2.7671   52.8666   27.4918 N.am      1 UNK         0.0000 
     12 C12         3.7187   52.7909   28.6101 C.3       1 UNK         0.0000 
     13 H13         3.5723   51.8412   29.1301 H         1 UNK         0.0000 
     14 C14         3.5259   53.9316   29.6437 C.3       1 UNK         0.0000 
     15 C15         3.9109   55.2746   29.0026 C.3       1 UNK         0.0000 
     16 C16         5.3995   55.1832   28.5884 C.3       1 UNK         0.0000 
     17 N17         5.5394   54.1843   27.5397 N.pl3     1 UNK         0.0000 
     18 C18         5.1980   52.8692   28.1046 C.3       1 UNK         0.0000 
     19 C19         6.0464   54.4673   26.2760 C.ar      1 UNK         0.0000 
     20 N20         6.7046   53.4889   25.6388 N.ar      1 UNK         0.0000 
     21 C21         7.1008   53.6996   24.3551 C.ar      1 UNK         0.0000 
     22 C22         6.8824   54.9031   23.7098 C.ar      1 UNK         0.0000 
     23 C23         6.3058   55.8978   24.4815 C.ar      1 UNK         0.0000 
     24 N24         5.8574   55.6951   25.7420 N.ar      1 UNK         0.0000 
     25 S25         0.3318   52.1479   23.4920 S.o2      1 UNK         0.0000 
     26 O26         1.5204   51.3130   23.6898 O.2       1 UNK         0.0000 
     27 O27        -0.4271   52.0903   22.2378 O.2       1 UNK         0.0000 
     28 C28         0.8264   53.9347   23.7749 C.3       1 UNK         0.0000 
     29 H29        -3.5896   49.7085   28.1662 H         1 UNK         0.0000 
     30 H30        -4.6424   51.0608   27.6964 H         1 UNK         0.0000 
     31 H31        -3.3862   51.3075   28.8915 H         1 UNK         0.0000 
     32 H32        -4.0715   50.9341   25.2747 H         1 UNK         0.0000 
     33 H33        -2.4714   51.4738   23.5031 H         1 UNK         0.0000 
     34 H34        -1.0202   51.3944   28.2259 H         1 UNK         0.0000 
     35 H35         1.5798   51.9729   25.7089 H         1 UNK         0.0000 
     36 H36         3.1761   52.6337   26.5997 H         1 UNK         0.0000 
     37 H37         2.5074   53.9687   30.0281 H         1 UNK         0.0000 
     38 H38         4.1543   53.7423   30.5154 H         1 UNK         0.0000 
     39 H39         3.2798   55.4544   28.1307 H         1 UNK         0.0000 
     40 H40         3.7051   56.0957   29.6726 H         1 UNK         0.0000 
     41 H41         5.9044   56.0967   28.2852 H         1 UNK         0.0000 
     42 H42         5.9765   54.8443   29.4489 H         1 UNK         0.0000 
     43 H43         5.9047   52.5978   28.8826 H         1 UNK         0.0000 
     44 H44         5.3159   52.1503   27.3010 H         1 UNK         0.0000 
     45 H45         7.6351   52.9024   23.8599 H         1 UNK         0.0000 
     46 H46         7.2457   55.0892   22.7092 H         1 UNK         0.0000 
     47 H47         6.2486   56.8967   24.0971 H         1 UNK         0.0000 
     48 H48         1.3542   54.2948   22.8923 H         1 UNK         0.0000 
     49 H49        -0.0882   54.4942   23.9319 H         1 UNK         0.0000 
     50 H50         1.4700   54.0060   24.6491 H         1 UNK         0.0000 
@<TRIPOS>BOND
     1    1    2 1    
     2    1   29 1    
     3    1   30 1    
     4    1   31 1    
     5    2    7 ar   
     6    2    3 ar   
     7    3    4 ar   
     8    3   32 1    
     9    4    5 ar   
    10    4   33 1    
    11    5    6 ar   
    12    5   25 1    
    13    6    7 ar   
    14    6    8 1    
    15    7   34 1    
    16    8    9 am   BACKBONE|DICT|INTERRES
    17    8   35 1    
    18    9   10 2    
    19    9   11 am   BACKBONE|DICT|INTERRES
    20   11   12 1    
    21   11   36 1    
    22   12   13 1    
    23   12   18 1    
    24   12   14 1    
    25   14   15 1    
    26   14   37 1    
    27   14   38 1    
    28   15   16 1    
    29   15   39 1    
    30   15   40 1    
    31   16   17 1    
    32   16   41 1    
    33   16   42 1    
    34   17   18 1    
    35   17   19 1    
    36   18   43 1    
    37   18   44 1    
    38   19   24 ar   
    39   19   20 ar   
    40   20   21 ar   
    41   21   22 ar   
    42   21   45 1    
    43   22   23 ar   
    44   22   46 1    
    45   23   24 ar   
    46   23   47 1    
    47   25   26 2    
    48   25   27 2    
    49   25   28 1    
    50   28   48 1    
    51   28   49 1    
    52   28   50 1    
@<TRIPOS>SUBSTRUCTURE
     1 UNK         1 GROUP             0       ****    0 ROOT    
