@<TRIPOS>MOLECULE
ZINC08823395_2946
49   51    1
SMALL
USER_CHARGES


@<TRIPOS>ATOM
      1 C1         -0.5694   51.6989   29.0713 C.ar      1 UNK         0.0000 
      2 C2         -0.2680   52.4970   30.1726 C.ar      1 UNK         0.0000 
      3 C3          0.8182   53.3648   30.1248 C.ar      1 UNK         0.0000 
      4 C4          1.6077   53.4243   28.9729 C.ar      1 UNK         0.0000 
      5 C5          1.2872   52.6386   27.8605 C.ar      1 UNK         0.0000 
      6 C6          0.1993   51.7706   27.9131 C.ar      1 UNK         0.0000 
      7 C7          2.8487   54.2986   28.9423 C.3       1 UNK         0.0000 
      8 S8          4.3043   53.2623   29.2818 S.3       1 UNK         0.0000 
      9 C9          5.7393   54.3114   28.7990 C.3       1 UNK         0.0000 
     10 C10         6.0012   54.4723   27.2928 C.2       1 UNK         0.0000 
     11 O11         7.0926   54.8946   26.8977 O.2       1 UNK         0.0000 
     12 N12         4.9735   54.1351   26.4970 N.am      1 UNK         0.0000 
     13 C13         4.8764   54.2231   25.1308 C.2       1 UNK         0.0000 
     14 N14         3.7204   54.0347   24.5543 N.2       1 UNK         0.0000 
     15 N15         3.8157   54.0969   23.1769 N.2       1 UNK         0.0000 
     16 C16         5.0352   54.3303   22.7457 C.2       1 UNK         0.0000 
     17 S17         6.2010   54.4973   24.0229 S.3       1 UNK         0.0000 
     18 S18         5.5048   54.4967   21.0588 S.3       1 UNK         0.0000 
     19 C19         3.9808   53.8982   20.2669 C.3       1 UNK         0.0000 
     20 C20         3.6538   52.4090   20.4475 C.2       1 UNK         0.0000 
     21 O21         4.4930   51.6146   20.8799 O.2       1 UNK         0.0000 
     22 N22         2.3756   52.0912   20.1585 N.am      1 UNK         0.0000 
     23 C23         1.8009   50.8168   20.1640 C.ar      1 UNK         0.0000 
     24 C24         2.4693   49.6925   19.6645 C.ar      1 UNK         0.0000 
     25 C25         1.8231   48.4592   19.6217 C.ar      1 UNK         0.0000 
     26 C26         0.5126   48.3404   20.0818 C.ar      1 UNK         0.0000 
     27 C27        -0.1673   49.4553   20.5867 C.ar      1 UNK         0.0000 
     28 C28         0.4851   50.6961   20.6152 C.ar      1 UNK         0.0000 
     29 C29        -1.6040   49.3320   21.0891 C.3       1 UNK         0.0000 
     30 F30        -1.8762   48.0914   21.4992 F         1 UNK         0.0000 
     31 F31        -1.8305   50.1649   22.1075 F         1 UNK         0.0000 
     32 F32        -2.4382   49.6422   20.0968 F         1 UNK         0.0000 
     33 H33        -1.4020   51.0087   29.1189 H         1 UNK         0.0000 
     34 H34        -0.8705   52.4257   31.0696 H         1 UNK         0.0000 
     35 H35         1.0529   53.9683   30.9902 H         1 UNK         0.0000 
     36 H36         1.8975   52.6731   26.9690 H         1 UNK         0.0000 
     37 H37        -0.0385   51.1394   27.0689 H         1 UNK         0.0000 
     38 H38         2.9199   54.7844   27.9700 H         1 UNK         0.0000 
     39 H39         2.7875   55.1048   29.6748 H         1 UNK         0.0000 
     40 H40         5.6041   55.2966   29.2400 H         1 UNK         0.0000 
     41 H41         6.6427   53.8987   29.2456 H         1 UNK         0.0000 
     42 H42         4.1446   53.8156   26.9706 H         1 UNK         0.0000 
     43 H43         3.1683   54.4879   20.6775 H         1 UNK         0.0000 
     44 H44         4.0406   54.1134   19.2004 H         1 UNK         0.0000 
     45 H45         1.7449   52.8601   19.9872 H         1 UNK         0.0000 
     46 H46         3.4791   49.7752   19.2820 H         1 UNK         0.0000 
     47 H47         2.3402   47.6046   19.2120 H         1 UNK         0.0000 
     48 H48         0.0252   47.3768   20.0313 H         1 UNK         0.0000 
     49 H49        -0.0338   51.5659   20.9896 H         1 UNK         0.0000 
@<TRIPOS>BOND
     1    1    6 ar   
     2    1    2 ar   
     3    1   33 1    
     4    2    3 ar   
     5    2   34 1    
     6    3    4 ar   
     7    3   35 1    
     8    4    5 ar   
     9    4    7 1    
    10    5    6 ar   
    11    5   36 1    
    12    6   37 1    
    13    7    8 1    
    14    7   38 1    
    15    7   39 1    
    16    8    9 1    
    17    9   10 1    
    18    9   40 1    
    19    9   41 1    
    20   10   11 2    
    21   10   12 am   BACKBONE|DICT|INTERRES
    22   12   13 am   BACKBONE|DICT|INTERRES
    23   12   42 1    
    24   13   17 1    
    25   13   14 2    
    26   14   15 1    
    27   15   16 2    
    28   16   17 1    
    29   16   18 1    
    30   18   19 1    
    31   19   20 1    
    32   19   43 1    
    33   19   44 1    
    34   20   21 2    
    35   20   22 am   BACKBONE|DICT|INTERRES
    36   22   23 1    
    37   22   45 1    
    38   23   28 ar   
    39   23   24 ar   
    40   24   25 ar   
    41   24   46 1    
    42   25   26 ar   
    43   25   47 1    
    44   26   27 ar   
    45   26   48 1    
    46   27   28 ar   
    47   27   29 1    
    48   28   49 1    
    49   29   30 1    
    50   29   31 1    
    51   29   32 1    
@<TRIPOS>SUBSTRUCTURE
     1 UNK         1 GROUP             0       ****    0 ROOT    
