@<TRIPOS>MOLECULE
ZINC47309293_3588
37   39    1
SMALL
USER_CHARGES


@<TRIPOS>ATOM
      1 C1          1.6279   52.2255   21.7922 C.3       1 UNK         0.0000 
      2 C2          0.9886   52.7807   23.0769 C.3       1 UNK         0.0000 
      3 C3          1.5606   54.1290   23.5803 C.3       1 UNK         0.0000 
      4 C4          3.0306   54.0966   23.9630 C.ar      1 UNK         0.0000 
      5 C5          3.7166   54.2166   25.1739 C.ar      1 UNK         0.0000 
      6 C6          5.0693   54.1060   24.8010 C.ar      1 UNK         0.0000 
      7 N7          5.2634   54.0071   23.5102 N.2       1 UNK         0.0000 
      8 N8          4.0227   54.0074   23.0163 N.pl3     1 UNK         0.0000 
      9 H9          3.8482   53.9397   22.0232 H         1 UNK         0.0000 
     10 O10         6.1412   54.1243   25.6610 O.3       1 UNK         0.0000 
     11 C11         5.8190   54.1322   26.9832 C.2       1 UNK         0.0000 
     12 C12         4.5739   54.2184   27.5109 C.2       1 UNK         0.0000 
     13 C13         3.3185   54.4230   26.6450 C.3       1 UNK         0.0000 
     14 H14         3.1045   55.4840   26.7244 H         1 UNK         0.0000 
     15 C15         2.0675   53.7016   27.1810 C.ar      1 UNK         0.0000 
     16 C16         1.6152   52.5076   26.6103 C.ar      1 UNK         0.0000 
     17 C17         0.5343   51.8147   27.1544 C.ar      1 UNK         0.0000 
     18 C18        -0.1165   52.3185   28.2773 C.ar      1 UNK         0.0000 
     19 C19         0.3035   53.5206   28.8438 C.ar      1 UNK         0.0000 
     20 C20         1.3798   54.2147   28.2939 C.ar      1 UNK         0.0000 
     21 F21         1.7439   55.3968   28.8435 F         1 UNK         0.0000 
     22 Br22       -1.5840   51.3712   29.0297 Br        1 UNK         0.0000 
     23 C23         4.3945   54.1572   28.9253 C.1       1 UNK         0.0000 
     24 N24         4.1713   54.0968   30.0585 N.1       1 UNK         0.0000 
     25 N25         6.9868   54.0128   27.6819 N.pl3     1 UNK         0.0000 
     26 H26         1.0937   51.3385   21.4515 H         1 UNK         0.0000 
     27 H27         1.5998   52.9500   20.9794 H         1 UNK         0.0000 
     28 H28         2.6651   51.9285   21.9496 H         1 UNK         0.0000 
     29 H29         1.0599   52.0231   23.8571 H         1 UNK         0.0000 
     30 H30        -0.0812   52.8998   22.8979 H         1 UNK         0.0000 
     31 H31         0.9693   54.4626   24.4331 H         1 UNK         0.0000 
     32 H32         1.4006   54.8903   22.8160 H         1 UNK         0.0000 
     33 H33         2.1357   52.0967   25.7618 H         1 UNK         0.0000 
     34 H34         0.2099   50.8804   26.7184 H         1 UNK         0.0000 
     35 H35        -0.2063   53.9179   29.7086 H         1 UNK         0.0000 
     36 H36         7.0350   54.2605   28.6614 H         1 UNK         0.0000 
     37 H37         7.7719   53.5232   27.2801 H         1 UNK         0.0000 
@<TRIPOS>BOND
     1    1    2 1    
     2    1   26 1    
     3    1   27 1    
     4    1   28 1    
     5    2    3 1    
     6    2   29 1    
     7    2   30 1    
     8    3    4 1    
     9    3   31 1    
    10    3   32 1    
    11    4    8 ar   
    12    4    5 ar   
    13    5   13 1    
    14    5    6 ar   
    15    6    7 ar   
    16    6   10 1    
    17    7    8 ar   
    18    8    9 1    
    19   10   11 1    
    20   11   12 2    
    21   11   25 1    
    22   12   13 1    
    23   12   23 1    
    24   13   14 1    
    25   13   15 1    
    26   15   20 ar   
    27   15   16 ar   
    28   16   17 ar   
    29   16   33 1    
    30   17   18 ar   
    31   17   34 1    
    32   18   19 ar   
    33   18   22 1    
    34   19   20 ar   
    35   19   35 1    
    36   20   21 1    
    37   23   24 3    
    38   25   36 1    
    39   25   37 1    
@<TRIPOS>SUBSTRUCTURE
     1 UNK         1 GROUP             0       ****    0 ROOT    
