@<TRIPOS>MOLECULE
ZINC19336442_1730
27   29    1
SMALL
USER_CHARGES


@<TRIPOS>ATOM
      1 C1          3.2500   54.4960   26.6527 C.ar      1 UNK         0.0000 
      2 C2          2.5225   54.3749   27.8293 C.ar      1 UNK         0.0000 
      3 C3          3.1906   54.3439   29.0444 C.ar      1 UNK         0.0000 
      4 C4          4.5774   54.4379   29.0952 C.ar      1 UNK         0.0000 
      5 C5          5.3017   54.5001   27.9060 C.ar      1 UNK         0.0000 
      6 C6          4.6443   54.5329   26.6609 C.ar      1 UNK         0.0000 
      7 C7          5.4264   54.7113   25.3797 C.ar      1 UNK         0.0000 
      8 C8          5.1604   54.3662   24.0067 C.ar      1 UNK         0.0000 
      9 C9          6.2975   54.7931   23.3353 C.ar      1 UNK         0.0000 
     10 N10         7.1044   55.3500   24.2674 N.pl3     1 UNK         0.0000 
     11 H11         8.0436   55.6916   24.0787 H         1 UNK         0.0000 
     12 N12         6.6037   55.3004   25.4896 N.2       1 UNK         0.0000 
     13 C13         4.0636   53.6982   23.2579 C.2       1 UNK         0.0000 
     14 C14         4.1283   53.3631   21.8967 C.2       1 UNK         0.0000 
     15 S15         2.7033   52.4983   21.4049 S.3       1 UNK         0.0000 
     16 C16         2.1262   52.6817   23.0209 C.2       1 UNK         0.0000 
     17 N17         2.9430   53.3008   23.8328 N.2       1 UNK         0.0000 
     18 N18         0.9115   52.1752   23.3810 N.pl3     1 UNK         0.0000 
     19 F19         2.4761   54.2414   30.1822 F         1 UNK         0.0000 
     20 H20         2.7043   54.6173   25.7408 H         1 UNK         0.0000 
     21 H21         1.4436   54.3369   27.8027 H         1 UNK         0.0000 
     22 H22         5.0841   54.4827   30.0520 H         1 UNK         0.0000 
     23 H23         6.3790   54.5651   27.9656 H         1 UNK         0.0000 
     24 H24         6.6024   54.7464   22.3006 H         1 UNK         0.0000 
     25 H25         4.9180   53.5496   21.1862 H         1 UNK         0.0000 
     26 H26         0.5719   52.2550   24.3280 H         1 UNK         0.0000 
     27 H27         0.3801   51.5883   22.7551 H         1 UNK         0.0000 
@<TRIPOS>BOND
     1    1    6 ar   
     2    1    2 ar   
     3    1   20 1    
     4    2    3 ar   
     5    2   21 1    
     6    3    4 ar   
     7    3   19 1    
     8    4    5 ar   
     9    4   22 1    
    10    5    6 ar   
    11    5   23 1    
    12    6    7 1    
    13    7   12 ar   
    14    7    8 ar   
    15    8    9 ar   
    16    8   13 1    
    17    9   10 ar   
    18    9   24 1    
    19   10   11 1    
    20   10   12 ar   
    21   13   17 1    
    22   13   14 2    
    23   14   15 1    
    24   14   25 1    
    25   15   16 1    
    26   16   17 2    
    27   16   18 1    
    28   18   26 1    
    29   18   27 1    
@<TRIPOS>SUBSTRUCTURE
     1 UNK         1 GROUP             0       ****    0 ROOT    
