@<TRIPOS>MOLECULE
ZINC59438618_3649
51   53    1
SMALL
USER_CHARGES


@<TRIPOS>ATOM
      1 C1          5.9133   54.3241   25.7343 C.3       1 UNK         0.0000 
      2 C2          4.9278   54.1626   24.5851 C.ar      1 UNK         0.0000 
      3 C3          5.4249   54.0929   23.2782 C.ar      1 UNK         0.0000 
      4 C4          4.5556   53.9334   22.1890 C.ar      1 UNK         0.0000 
      5 C5          3.1840   53.8318   22.4154 C.ar      1 UNK         0.0000 
      6 C6          2.6798   53.9057   23.7094 C.ar      1 UNK         0.0000 
      7 C7          3.5419   54.0463   24.8094 C.ar      1 UNK         0.0000 
      8 N8          3.0485   54.0959   26.1290 N.am      1 UNK         0.0000 
      9 C9          1.9736   53.4398   26.6265 C.2       1 UNK         0.0000 
     10 O10         1.3298   52.6036   25.9887 O.2       1 UNK         0.0000 
     11 C11         1.5733   53.7722   28.0494 C.ar      1 UNK         0.0000 
     12 C12         0.7782   52.8697   28.7773 C.ar      1 UNK         0.0000 
     13 C13         0.3473   53.1868   30.0626 C.ar      1 UNK         0.0000 
     14 C14         0.7039   54.4063   30.6270 C.ar      1 UNK         0.0000 
     15 C15         1.5030   55.3080   29.9291 C.ar      1 UNK         0.0000 
     16 C16         1.9373   54.9919   28.6447 C.ar      1 UNK         0.0000 
     17 N17         5.0019   53.7944   20.8631 N.pl3     1 UNK         0.0000 
     18 C18         5.9070   54.5064   20.1237 C.2       1 UNK         0.0000 
     19 S19         6.7040   55.8842   20.6866 S.2       1 UNK         0.0000 
     20 N20         6.0525   53.9351   18.8824 N.am      1 UNK         0.0000 
     21 C21         6.9129   54.1672   17.8561 C.2       1 UNK         0.0000 
     22 O22         7.9108   54.8882   17.9182 O.2       1 UNK         0.0000 
     23 C23         6.6227   53.4123   16.5773 C.ar      1 UNK         0.0000 
     24 C24         5.3485   52.8969   16.2855 C.ar      1 UNK         0.0000 
     25 C25         5.1194   52.1877   15.1105 C.ar      1 UNK         0.0000 
     26 C26         6.1502   51.9773   14.1809 C.ar      1 UNK         0.0000 
     27 C27         7.4157   52.5110   14.4564 C.ar      1 UNK         0.0000 
     28 C28         7.6460   53.2166   15.6376 C.ar      1 UNK         0.0000 
     29 Cl29        8.7266   52.3015   13.3467 Cl        1 UNK         0.0000 
     30 O30         5.9953   51.2588   13.0100 O.3       1 UNK         0.0000 
     31 C31         4.7520   50.6144   12.7488 C.3       1 UNK         0.0000 
     32 H32         5.8002   53.5059   26.4472 H         1 UNK         0.0000 
     33 H33         6.9503   54.3282   25.3952 H         1 UNK         0.0000 
     34 H34         5.7240   55.2593   26.2646 H         1 UNK         0.0000 
     35 H35         6.4943   54.1364   23.1116 H         1 UNK         0.0000 
     36 H36         2.5003   53.6992   21.5902 H         1 UNK         0.0000 
     37 H37         1.6095   53.8423   23.8464 H         1 UNK         0.0000 
     38 H38         3.5853   54.6524   26.7738 H         1 UNK         0.0000 
     39 H39         0.4741   51.9259   28.3462 H         1 UNK         0.0000 
     40 H40        -0.2688   52.4919   30.6166 H         1 UNK         0.0000 
     41 H41         0.3599   54.6526   31.6236 H         1 UNK         0.0000 
     42 H42         1.7735   56.2529   30.3787 H         1 UNK         0.0000 
     43 H43         2.5397   55.7151   28.1172 H         1 UNK         0.0000 
     44 H44         4.4920   53.0882   20.3543 H         1 UNK         0.0000 
     45 H45         5.3600   53.2360   18.6586 H         1 UNK         0.0000 
     46 H46         4.5194   53.0156   16.9686 H         1 UNK         0.0000 
     47 H47         4.1301   51.7870   14.9483 H         1 UNK         0.0000 
     48 H48         8.6378   53.6040   15.8231 H         1 UNK         0.0000 
     49 H49         4.8278   50.0695   11.8087 H         1 UNK         0.0000 
     50 H50         3.9375   51.3334   12.6483 H         1 UNK         0.0000 
     51 H51         4.5041   49.8956   13.5315 H         1 UNK         0.0000 
@<TRIPOS>BOND
     1    1    2 1    
     2    1   32 1    
     3    1   33 1    
     4    1   34 1    
     5    2    7 ar   
     6    2    3 ar   
     7    3    4 ar   
     8    3   35 1    
     9    4    5 ar   
    10    4   17 1    
    11    5    6 ar   
    12    5   36 1    
    13    6    7 ar   
    14    6   37 1    
    15    7    8 1    
    16    8    9 am   BACKBONE|DICT|INTERRES
    17    8   38 1    
    18    9   10 2    
    19    9   11 1    
    20   11   16 ar   
    21   11   12 ar   
    22   12   13 ar   
    23   12   39 1    
    24   13   14 ar   
    25   13   40 1    
    26   14   15 ar   
    27   14   41 1    
    28   15   16 ar   
    29   15   42 1    
    30   16   43 1    
    31   17   18 1    
    32   17   44 1    
    33   18   19 2    
    34   18   20 am   BACKBONE|DICT|INTERRES
    35   20   21 am   BACKBONE|DICT|INTERRES
    36   20   45 1    
    37   21   22 2    
    38   21   23 1    
    39   23   28 ar   
    40   23   24 ar   
    41   24   25 ar   
    42   24   46 1    
    43   25   26 ar   
    44   25   47 1    
    45   26   27 ar   
    46   26   30 1    
    47   27   28 ar   
    48   27   29 1    
    49   28   48 1    
    50   30   31 1    
    51   31   49 1    
    52   31   50 1    
    53   31   51 1    
@<TRIPOS>SUBSTRUCTURE
     1 UNK         1 GROUP             0       ****    0 ROOT    
