@<TRIPOS>MOLECULE
ZINC16572409_3967
53   56    1
SMALL
USER_CHARGES


@<TRIPOS>ATOM
      1 C1          0.8942   52.5116   17.1186 C.3       1 UNK         0.0000 
      2 C2          1.5527   53.8793   16.9881 C.ar      1 UNK         0.0000 
      3 C3          0.7605   54.9569   16.5865 C.ar      1 UNK         0.0000 
      4 C4          1.3052   56.2319   16.4812 C.ar      1 UNK         0.0000 
      5 C5          2.6470   56.4427   16.7767 C.ar      1 UNK         0.0000 
      6 C6          3.4696   55.3781   17.1800 C.ar      1 UNK         0.0000 
      7 C7          2.9173   54.0797   17.2854 C.ar      1 UNK         0.0000 
      8 C8          3.7964   52.8978   17.7195 C.3       1 UNK         0.0000 
      9 N9          4.8334   55.5401   17.5117 N.am      1 UNK         0.0000 
     10 C10         5.6500   56.6146   17.4074 C.2       1 UNK         0.0000 
     11 O11         5.3056   57.6909   16.9250 O.2       1 UNK         0.0000 
     12 N12         6.9221   56.4045   17.8455 N.am      1 UNK         0.0000 
     13 C13         8.0111   57.3426   17.5444 C.3       1 UNK         0.0000 
     14 C14         9.2307   56.8305   18.3030 C.3       1 UNK         0.0000 
     15 C15         8.9489   55.3423   18.4588 C.3       1 UNK         0.0000 
     16 C16         7.4207   55.2457   18.6231 C.3       1 UNK         0.0000 
     17 H17         7.0897   54.3012   18.1827 H         1 UNK         0.0000 
     18 C18         6.9608   55.2968   20.0957 C.2       1 UNK         0.0000 
     19 O19         7.6186   55.9498   20.9053 O.2       1 UNK         0.0000 
     20 N20         5.8413   54.6001   20.3792 N.am      1 UNK         0.0000 
     21 C21         5.2698   54.4303   21.6280 C.2       1 UNK         0.0000 
     22 N22         4.0138   54.0919   21.7589 N.2       1 UNK         0.0000 
     23 N23         3.6380   53.9490   23.0870 N.2       1 UNK         0.0000 
     24 C24         4.6276   54.1407   23.9339 C.2       1 UNK         0.0000 
     25 S25         6.1448   54.4963   23.1440 S.3       1 UNK         0.0000 
     26 C26         4.4839   54.0978   25.4275 C.ar      1 UNK         0.0000 
     27 C27         3.2364   53.7903   25.9873 C.ar      1 UNK         0.0000 
     28 C28         3.0692   53.7567   27.3672 C.ar      1 UNK         0.0000 
     29 C29         4.1495   54.0378   28.1980 C.ar      1 UNK         0.0000 
     30 C30         5.3985   54.3419   27.6624 C.ar      1 UNK         0.0000 
     31 C31         5.5638   54.3732   26.2797 C.ar      1 UNK         0.0000 
     32 Br32        3.9041   54.0054   30.0818 Br        1 UNK         0.0000 
     33 H33         1.3226   51.8150   16.3984 H         1 UNK         0.0000 
     34 H34         1.0637   52.1091   18.1195 H         1 UNK         0.0000 
     35 H35        -0.1844   52.5558   16.9606 H         1 UNK         0.0000 
     36 H36        -0.2858   54.8135   16.3606 H         1 UNK         0.0000 
     37 H37         0.6845   57.0636   16.1786 H         1 UNK         0.0000 
     38 H38         3.0099   57.4553   16.6965 H         1 UNK         0.0000 
     39 H39         3.3738   51.9190   17.4828 H         1 UNK         0.0000 
     40 H40         4.7601   52.9201   17.2097 H         1 UNK         0.0000 
     41 H41         3.9800   52.9367   18.7957 H         1 UNK         0.0000 
     42 H42         5.2720   54.6861   17.8127 H         1 UNK         0.0000 
     43 H43         7.7647   58.3701   17.8250 H         1 UNK         0.0000 
     44 H44         8.1963   57.3222   16.4693 H         1 UNK         0.0000 
     45 H45         9.2724   57.3032   19.2823 H         1 UNK         0.0000 
     46 H46        10.1751   57.0404   17.7985 H         1 UNK         0.0000 
     47 H47         9.5055   54.9008   19.2855 H         1 UNK         0.0000 
     48 H48         9.2435   54.8155   17.5505 H         1 UNK         0.0000 
     49 H49         5.3222   54.2066   19.6120 H         1 UNK         0.0000 
     50 H50         2.3852   53.5753   25.3581 H         1 UNK         0.0000 
     51 H51         2.1046   53.5172   27.7922 H         1 UNK         0.0000 
     52 H52         6.2319   54.5587   28.3159 H         1 UNK         0.0000 
     53 H53         6.5366   54.6171   25.8805 H         1 UNK         0.0000 
@<TRIPOS>BOND
     1    1    2 1    
     2    1   33 1    
     3    1   34 1    
     4    1   35 1    
     5    2    7 ar   
     6    2    3 ar   
     7    3    4 ar   
     8    3   36 1    
     9    4    5 ar   
    10    4   37 1    
    11    5    6 ar   
    12    5   38 1    
    13    6    7 ar   
    14    6    9 1    
    15    7    8 1    
    16    8   39 1    
    17    8   40 1    
    18    8   41 1    
    19    9   10 am   BACKBONE|DICT|INTERRES
    20    9   42 1    
    21   10   11 2    
    22   10   12 am   BACKBONE|DICT|INTERRES
    23   12   16 1    
    24   12   13 1    
    25   13   14 1    
    26   13   43 1    
    27   13   44 1    
    28   14   15 1    
    29   14   45 1    
    30   14   46 1    
    31   15   16 1    
    32   15   47 1    
    33   15   48 1    
    34   16   17 1    
    35   16   18 1    
    36   18   19 2    
    37   18   20 am   BACKBONE|DICT|INTERRES
    38   20   21 am   BACKBONE|DICT|INTERRES
    39   20   49 1    
    40   21   25 1    
    41   21   22 2    
    42   22   23 1    
    43   23   24 2    
    44   24   25 1    
    45   24   26 1    
    46   26   31 ar   
    47   26   27 ar   
    48   27   28 ar   
    49   27   50 1    
    50   28   29 ar   
    51   28   51 1    
    52   29   30 ar   
    53   29   32 1    
    54   30   31 ar   
    55   30   52 1    
    56   31   53 1    
@<TRIPOS>SUBSTRUCTURE
     1 UNK         1 GROUP             0       ****    0 ROOT    
