@<TRIPOS>MOLECULE
ZINC64048348_2228
59   63    1
SMALL
USER_CHARGES


@<TRIPOS>ATOM
      1 C1          3.1082   56.9338   16.4886 C.2       1 UNK         0.0000 
      2 C2          4.0559   58.0342   16.5817 C.2       1 UNK         0.0000 
      3 C3          5.2171   57.9264   17.2826 C.2       1 UNK         0.0000 
      4 C4          5.5303   56.7325   17.9527 C.2       1 UNK         0.0000 
      5 N5          6.5889   56.4297   18.6666 N.pl3     1 UNK         0.0000 
      6 C6          6.4841   55.0457   19.1605 C.3       1 UNK         0.0000 
      7 C7          5.1608   54.5953   18.5694 C.2       1 UNK         0.0000 
      8 C8          4.6527   55.6434   17.8914 C.2       1 UNK         0.0000 
      9 C9          3.4065   55.7807   17.1217 C.2       1 UNK         0.0000 
     10 C10         4.6600   53.1645   18.7068 C.3       1 UNK         0.0000 
     11 C11         4.2437   52.8135   20.1411 C.2       1 UNK         0.0000 
     12 O12         5.1031   52.7541   21.0253 O.2       1 UNK         0.0000 
     13 N13         2.9335   52.5543   20.3197 N.am      1 UNK         0.0000 
     14 C14         2.3034   52.2709   21.5233 C.2       1 UNK         0.0000 
     15 C15         2.3788   52.8489   22.8147 C.2       1 UNK         0.0000 
     16 C16         1.4748   52.1950   23.7134 C.2       1 UNK         0.0000 
     17 C17         0.7914   51.1301   23.1028 C.2       1 UNK         0.0000 
     18 S18         1.1854   50.9576   21.4340 S.3       1 UNK         0.0000 
     19 C19        -0.2629   50.2513   23.7659 C.3       1 UNK         0.0000 
     20 C20        -0.2214   50.4530   25.2932 C.3       1 UNK         0.0000 
     21 C21        -0.1500   51.9423   25.6601 C.3       1 UNK         0.0000 
     22 C22         1.1642   52.5912   25.1681 C.3       1 UNK         0.0000 
     23 C23         3.1880   54.0121   23.1519 C.2       1 UNK         0.0000 
     24 O24         3.5046   54.8637   22.3220 O.2       1 UNK         0.0000 
     25 N25         3.6468   54.0135   24.4118 N.am      1 UNK         0.0000 
     26 C26         4.6833   54.8812   24.9650 C.3       1 UNK         0.0000 
     27 C27         5.6152   54.0672   25.8750 C.3       1 UNK         0.0000 
     28 H28         6.1181   53.3012   25.2845 H         1 UNK         0.0000 
     29 C29         4.9345   53.4194   27.0824 C.3       1 UNK         0.0000 
     30 C30         6.0918   53.2548   28.0206 C.3       1 UNK         0.0000 
     31 C31         6.8022   54.5750   27.8273 C.3       1 UNK         0.0000 
     32 O32         6.6005   54.9231   26.4575 O.3       1 UNK         0.0000 
     33 H33         2.1900   57.0424   15.9258 H         1 UNK         0.0000 
     34 H34         3.8315   58.9691   16.0849 H         1 UNK         0.0000 
     35 H35         5.8758   58.7832   17.3149 H         1 UNK         0.0000 
     36 H36         7.3451   54.4804   18.8007 H         1 UNK         0.0000 
     37 H37         6.4787   55.0699   20.2532 H         1 UNK         0.0000 
     38 H38         2.6963   54.9699   17.0554 H         1 UNK         0.0000 
     39 H39         3.8433   52.9894   18.0072 H         1 UNK         0.0000 
     40 H40         5.4639   52.4974   18.4016 H         1 UNK         0.0000 
     41 H41         2.4028   52.3466   19.4878 H         1 UNK         0.0000 
     42 H42        -1.2537   50.5252   23.3980 H         1 UNK         0.0000 
     43 H43        -0.1111   49.1985   23.5234 H         1 UNK         0.0000 
     44 H44        -1.0962   49.9903   25.7519 H         1 UNK         0.0000 
     45 H45         0.6426   49.9298   25.7143 H         1 UNK         0.0000 
     46 H46        -1.0060   52.4643   25.2335 H         1 UNK         0.0000 
     47 H47        -0.2377   52.0625   26.7428 H         1 UNK         0.0000 
     48 H48         1.9737   52.2624   25.8176 H         1 UNK         0.0000 
     49 H49         1.0957   53.6744   25.2843 H         1 UNK         0.0000 
     50 H50         3.2396   53.3495   25.0531 H         1 UNK         0.0000 
     51 H51         5.2892   55.3109   24.1679 H         1 UNK         0.0000 
     52 H52         4.2123   55.6940   25.5232 H         1 UNK         0.0000 
     53 H53         4.1719   54.0798   27.4961 H         1 UNK         0.0000 
     54 H54         4.4086   52.4990   26.8499 H         1 UNK         0.0000 
     55 H55         5.7822   53.0704   29.0472 H         1 UNK         0.0000 
     56 H56         6.7500   52.4569   27.6987 H         1 UNK         0.0000 
     57 H57         6.3044   55.3030   28.4654 H         1 UNK         0.0000 
     58 H58         7.8610   54.4960   28.0789 H         1 UNK         0.0000 
     59 H59         7.3770   57.0452   18.8439 H         1 UNK         0.0000 
@<TRIPOS>BOND
     1    1    9 2    
     2    1    2 1    
     3    1   33 1    
     4    2    3 2    
     5    2   34 1    
     6    3    4 1    
     7    3   35 1    
     8    4    8 1    
     9    4    5 2    
    10    5    6 1    
    11    5   59 1    
    12    6    7 1    
    13    6   36 1    
    14    6   37 1    
    15    7    8 2    
    16    7   10 1    
    17    8    9 1    
    18    9   38 1    
    19   10   11 1    
    20   10   39 1    
    21   10   40 1    
    22   11   12 2    
    23   11   13 am   BACKBONE|DICT|INTERRES
    24   13   14 am   BACKBONE|DICT|INTERRES
    25   13   41 1    
    26   14   18 1    
    27   14   15 2    
    28   15   16 1    
    29   15   23 1    
    30   16   22 1    
    31   16   17 2    
    32   17   18 1    
    33   17   19 1    
    34   19   20 1    
    35   19   42 1    
    36   19   43 1    
    37   20   21 1    
    38   20   44 1    
    39   20   45 1    
    40   21   22 1    
    41   21   46 1    
    42   21   47 1    
    43   22   48 1    
    44   22   49 1    
    45   23   24 2    
    46   23   25 am   BACKBONE|DICT|INTERRES
    47   25   26 1    
    48   25   50 1    
    49   26   27 1    
    50   26   51 1    
    51   26   52 1    
    52   27   28 1    
    53   27   32 1    
    54   27   29 1    
    55   29   30 1    
    56   29   53 1    
    57   29   54 1    
    58   30   31 1    
    59   30   55 1    
    60   30   56 1    
    61   31   32 1    
    62   31   57 1    
    63   31   58 1    
@<TRIPOS>SUBSTRUCTURE
     1 UNK         1 GROUP             0       ****    0 ROOT    
