@<TRIPOS>MOLECULE
ZINC08856240_2886
45   47    1
SMALL
USER_CHARGES


@<TRIPOS>ATOM
      1 C1          4.4372   53.6287   28.6953 C.ar      1 UNK         0.0000 
      2 C2          5.6606   54.2559   28.4818 C.ar      1 UNK         0.0000 
      3 C3          6.0520   54.5991   27.1940 C.ar      1 UNK         0.0000 
      4 C4          5.2183   54.3234   26.1048 C.ar      1 UNK         0.0000 
      5 C5          3.9831   53.6969   26.3336 C.ar      1 UNK         0.0000 
      6 C6          3.5953   53.3483   27.6245 C.ar      1 UNK         0.0000 
      7 C7          5.6397   54.7549   24.7218 C.2       1 UNK         0.0000 
      8 O8          6.3044   55.7838   24.5910 O.2       1 UNK         0.0000 
      9 N9          5.2785   53.9275   23.7082 N.am      1 UNK         0.0000 
     10 C10         5.2237   54.1761   22.3480 C.2       1 UNK         0.0000 
     11 C11         4.2215   53.6368   21.5990 C.2       1 UNK         0.0000 
     12 C12         3.1073   52.7909   22.0778 C.ar      1 UNK         0.0000 
     13 C13         3.0128   51.4929   21.5615 C.ar      1 UNK         0.0000 
     14 C14         2.0161   50.6235   22.0036 C.ar      1 UNK         0.0000 
     15 C15         1.0903   51.0494   22.9546 C.ar      1 UNK         0.0000 
     16 C16         1.1549   52.3505   23.4512 C.ar      1 UNK         0.0000 
     17 C17         2.1510   53.2223   23.0117 C.ar      1 UNK         0.0000 
     18 O18         2.1663   54.4967   23.5102 O.3       1 UNK         0.0000 
     19 C19         6.2887   54.9362   21.6827 C.2       1 UNK         0.0000 
     20 O20         7.4538   54.8976   22.0818 O.2       1 UNK         0.0000 
     21 N21         5.9054   55.7021   20.6362 N.am      1 UNK         0.0000 
     22 N22         6.7700   56.4975   19.9789 N.2       1 UNK         0.0000 
     23 C23         6.2409   57.1402   19.0202 C.2       1 UNK         0.0000 
     24 C24         7.0359   58.0497   18.2084 C.2       1 UNK         0.0000 
     25 C25         6.7279   58.8968   17.1533 C.2       1 UNK         0.0000 
     26 C26         7.9057   59.5513   16.7868 C.2       1 UNK         0.0000 
     27 C27         8.8941   59.0762   17.6279 C.2       1 UNK         0.0000 
     28 O28         8.3662   58.1640   18.4806 O.3       1 UNK         0.0000 
     29 I29        10.9769   59.5263   17.8155 I         1 UNK         0.0000 
     30 H30         4.1383   53.3612   29.6978 H         1 UNK         0.0000 
     31 H31         6.3083   54.4966   29.3091 H         1 UNK         0.0000 
     32 H32         7.0022   55.0959   27.0563 H         1 UNK         0.0000 
     33 H33         3.3055   53.4730   25.5257 H         1 UNK         0.0000 
     34 H34         2.6450   52.8627   27.7905 H         1 UNK         0.0000 
     35 H35         4.7125   53.1484   24.0093 H         1 UNK         0.0000 
     36 H36         4.1918   53.7976   20.5286 H         1 UNK         0.0000 
     37 H37         3.7252   51.1415   20.8265 H         1 UNK         0.0000 
     38 H38         1.9648   49.6186   21.6105 H         1 UNK         0.0000 
     39 H39         0.3206   50.3749   23.3009 H         1 UNK         0.0000 
     40 H40         0.4290   52.6839   24.1781 H         1 UNK         0.0000 
     41 H41         2.8490   55.0360   23.1047 H         1 UNK         0.0000 
     42 H42         4.9526   55.7159   20.3053 H         1 UNK         0.0000 
     43 H43         5.1949   57.0895   18.7218 H         1 UNK         0.0000 
     44 H44         5.7535   59.0608   16.7155 H         1 UNK         0.0000 
     45 H45         8.0100   60.2999   16.0161 H         1 UNK         0.0000 
@<TRIPOS>BOND
     1    1    6 ar   
     2    1    2 ar   
     3    1   30 1    
     4    2    3 ar   
     5    2   31 1    
     6    3    4 ar   
     7    3   32 1    
     8    4    5 ar   
     9    4    7 1    
    10    5    6 ar   
    11    5   33 1    
    12    6   34 1    
    13    7    8 2    
    14    7    9 am   BACKBONE|DICT|INTERRES
    15    9   10 1    
    16    9   35 1    
    17   10   11 2    
    18   10   19 1    
    19   11   12 1    
    20   11   36 1    
    21   12   17 ar   
    22   12   13 ar   
    23   13   14 ar   
    24   13   37 1    
    25   14   15 ar   
    26   14   38 1    
    27   15   16 ar   
    28   15   39 1    
    29   16   17 ar   
    30   16   40 1    
    31   17   18 1    
    32   18   41 1    
    33   19   20 2    
    34   19   21 am   BACKBONE|DICT|INTERRES
    35   21   22 1    
    36   21   42 1    
    37   22   23 2    
    38   23   24 1    
    39   23   43 1    
    40   24   28 1    
    41   24   25 2    
    42   25   26 1    
    43   25   44 1    
    44   26   27 2    
    45   26   45 1    
    46   27   28 1    
    47   27   29 1    
@<TRIPOS>SUBSTRUCTURE
     1 UNK         1 GROUP             0       ****    0 ROOT    
