ZINC39992755_4148
                    3D
 Schrodinger Suite 2024-2.
 52 55  0  0  1  0            999 V2000
    2.8396   51.1521   20.1436 C   0  0  0  0  0  0
    3.5108   52.4437   20.1794 N   0  0  0  0  0  0
    4.6025   52.6982   20.9177 C   0  0  0  0  0  0
    5.1040   51.8700   21.6815 O   0  0  0  0  0  0
    5.1802   54.0294   20.7782 C   0  0  0  0  0  0
    5.1263   54.8582   19.6162 C   0  0  0  0  0  0
    5.9050   56.0199   19.7583 C   0  0  0  0  0  0
    6.7048   56.0967   21.2813 S   0  0  0  0  0  0
    5.9736   54.6121   21.7880 C   0  0  0  0  0  0
    6.2554   54.0696   23.0366 N   0  0  0  0  0  0
    6.2022   54.7590   24.1953 C   0  0  0  0  0  0
    7.0879   55.5358   24.5629 O   0  0  0  0  0  0
    5.0248   54.4680   24.9954 C   0  0  0  0  0  0
    5.0797   54.5467   26.3479 C   0  0  0  0  0  0
    4.0241   54.2120   27.2912 C   0  0  0  0  0  0
    3.8752   54.3775   28.6624 C   0  0  0  0  0  0
    2.6576   53.7868   29.0213 C   0  0  0  0  0  0
    2.1030   53.2666   27.8602 C   0  0  0  0  0  0
    2.9354   53.5472   26.8286 O   0  0  0  0  0  0
    0.8673   52.4980   27.5303 C   0  0  0  0  0  0
    0.0225   52.0304   28.5421 C   0  0  0  0  0  0
   -1.1231   51.3002   28.2197 C   0  0  0  0  0  0
   -1.4375   51.0393   26.8866 C   0  0  0  0  0  0
   -0.6043   51.5049   25.8732 C   0  0  0  0  0  0
    0.5444   52.2242   26.1944 C   0  0  0  0  0  0
   -1.0254   51.1572   24.0503 Br  0  0  0  0  0  0
    3.8291   54.0960   24.2951 C   0  0  0  0  0  0
    2.8602   53.8378   23.7163 N   0  0  0  0  0  0
    6.1182   57.0839   18.6915 C   0  0  0  0  0  0
    5.0305   56.9386   17.6114 C   0  0  0  0  0  0
    4.8847   55.4790   17.1590 C   0  0  0  0  0  0
    4.3964   54.5584   18.2983 C   0  0  0  0  0  0
    1.9131   51.2213   19.5709 H   0  0  0  0  0  0
    3.4778   50.4053   19.6655 H   0  0  0  0  0  0
    2.5957   50.8071   21.1504 H   0  0  0  0  0  0
    3.0846   53.1989   19.6623 H   0  0  0  0  0  0
    5.8490   53.1448   23.0952 H   0  0  0  0  0  0
    5.9892   54.8713   26.8361 H   0  0  0  0  0  0
    4.5767   54.8617   29.3255 H   0  0  0  0  0  0
    2.2295   53.7270   30.0118 H   0  0  0  0  0  0
    0.2535   52.2140   29.5810 H   0  0  0  0  0  0
   -1.7581   50.9143   29.0042 H   0  0  0  0  0  0
   -2.3150   50.4573   26.6485 H   0  0  0  0  0  0
    1.1795   52.5697   25.3930 H   0  0  0  0  0  0
    7.0988   56.9513   18.2328 H   0  0  0  0  0  0
    6.1006   58.0898   19.1109 H   0  0  0  0  0  0
    5.2738   57.5749   16.7603 H   0  0  0  0  0  0
    4.0719   57.2963   17.9911 H   0  0  0  0  0  0
    5.8451   55.1209   16.7835 H   0  0  0  0  0  0
    4.1917   55.4156   16.3178 H   0  0  0  0  0  0
    3.3240   54.7022   18.4382 H   0  0  0  0  0  0
    4.5338   53.5202   17.9917 H   0  0  0  0  0  0
  1  2  1  0  0  0
  1 33  1  0  0  0
  1 34  1  0  0  0
  1 35  1  0  0  0
  2  3  1  0  0  0
  2 36  1  0  0  0
  3  4  2  0  0  0
  3  5  1  0  0  0
  5  9  2  0  0  0
  5  6  1  0  0  0
  6 32  1  0  0  0
  6  7  2  0  0  0
  7  8  1  0  0  0
  7 29  1  0  0  0
  8  9  1  0  0  0
  9 10  1  0  0  0
 10 11  1  0  0  0
 10 37  1  0  0  0
 11 12  2  0  0  0
 11 13  1  0  0  0
 13 14  2  0  0  0
 13 27  1  0  0  0
 14 15  1  0  0  0
 14 38  1  0  0  0
 15 19  1  0  0  0
 15 16  2  0  0  0
 16 17  1  0  0  0
 16 39  1  0  0  0
 17 18  2  0  0  0
 17 40  1  0  0  0
 18 19  1  0  0  0
 18 20  1  0  0  0
 20 25  2  0  0  0
 20 21  1  0  0  0
 21 22  2  0  0  0
 21 41  1  0  0  0
 22 23  1  0  0  0
 22 42  1  0  0  0
 23 24  2  0  0  0
 23 43  1  0  0  0
 24 25  1  0  0  0
 24 26  1  0  0  0
 25 44  1  0  0  0
 27 28  3  0  0  0
 29 30  1  0  0  0
 29 45  1  0  0  0
 29 46  1  0  0  0
 30 31  1  0  0  0
 30 47  1  0  0  0
 30 48  1  0  0  0
 31 32  1  0  0  0
 31 49  1  0  0  0
 31 50  1  0  0  0
 32 51  1  0  0  0
 32 52  1  0  0  0
M  END
> <i_i_glide_confnum>
80

> <i_i_glide_lignum>
4149

> <i_i_glide_posenum>
71

> <i_i_glide_rotatable_bonds>
8

> <i_m_Source_File_Index>
5423

> <b_m_subgroup_collapsed>
0

> <r_i_docking_score>
0.0537902

> <r_i_glide_ecoul>
-2.59571

> <r_i_glide_eff_state_penalty>
0

> <r_i_glide_einternal>
27.1662

> <r_i_glide_emodel>
-17.6207

> <r_i_glide_energy>
-46.555

> <r_i_glide_erotb>
0.550469

> <r_i_glide_esite>
-0.0115534

> <r_i_glide_evdw>
-43.9592

> <r_i_glide_gscore>
0.0537902

> <r_i_glide_hbond>
-0.156684

> <r_i_glide_ligand_efficiency>
0.00168094

> <r_i_glide_ligand_efficiency_ln>
0.0120451

> <r_i_glide_ligand_efficiency_sa>
0.00533666

> <r_i_glide_lipo>
-2.17843

> <r_i_glide_metal>
0

> <r_i_glide_rewards>
4.43731

> <s_i_glide_gridfile>
wee1_glide-grid

> <s_m_Source_File>
wee1_decoys_glide_SP.sdf

> <s_m_Source_Path>
/Users/zhangxujun/Desktop

> <s_m_entry_id>
5698

> <s_m_entry_name>
wee1_decoys_glide_SP.5423

> <s_m_subgroup_title>
wee1_decoys_glide_SP

> <s_m_subgroupid>
wee1_decoys_glide_SP


$$$$
