@<TRIPOS>MOLECULE
ZINC40902616_6016
56   60    1
SMALL
USER_CHARGES


@<TRIPOS>ATOM
      1 C1          6.0233   52.8969   18.6051 C.3       1 UNK         0.0000 
      2 C2          5.1045   53.2034   19.7899 C.2       1 UNK         0.0000 
      3 C3          5.0548   54.3288   20.5687 C.2       1 UNK         0.0000 
      4 C4          4.1270   54.3692   21.8323 C.3       1 UNK         0.0000 
      5 H5          3.5588   55.2961   21.8677 H         1 UNK         0.0000 
      6 N6          3.1504   53.2734   21.7062 N.pl3     1 UNK         0.0000 
      7 C7          3.3289   52.1246   20.9902 C.ar      1 UNK         0.0000 
      8 N8          2.3738   51.2686   21.2308 N.2       1 UNK         0.0000 
      9 C9          1.6179   51.9271   22.1024 C.ar      1 UNK         0.0000 
     10 N10         2.0079   53.1527   22.3969 N.2       1 UNK         0.0000 
     11 S11         0.1546   51.2482   22.8147 S.3       1 UNK         0.0000 
     12 C12         0.6478   49.4970   22.9430 C.3       1 UNK         0.0000 
     13 C13        -0.5025   48.6406   23.4536 C.ar      1 UNK         0.0000 
     14 C14        -0.5885   48.3096   24.8109 C.ar      1 UNK         0.0000 
     15 C15        -1.6523   47.5388   25.2813 C.ar      1 UNK         0.0000 
     16 C16        -2.6359   47.0913   24.4006 C.ar      1 UNK         0.0000 
     17 C17        -2.5522   47.4107   23.0458 C.ar      1 UNK         0.0000 
     18 C18        -1.4908   48.1821   22.5720 C.ar      1 UNK         0.0000 
     19 F19        -1.4289   48.4811   21.2541 F         1 UNK         0.0000 
     20 N20         4.3163   52.0962   20.0379 N.pl3     1 UNK         0.0000 
     21 C21         4.7971   54.2954   23.2154 C.ar      1 UNK         0.0000 
     22 C22         6.1684   54.0674   23.3530 C.ar      1 UNK         0.0000 
     23 C23         6.7571   54.0967   24.6060 C.ar      1 UNK         0.0000 
     24 C24         5.9747   54.2995   25.7377 C.ar      1 UNK         0.0000 
     25 C25         4.6038   54.4945   25.6257 C.ar      1 UNK         0.0000 
     26 C26         4.0184   54.4970   24.3656 C.ar      1 UNK         0.0000 
     27 Cl27        6.7044   54.3015   27.2911 Cl        1 UNK         0.0000 
     28 C28         5.9032   55.5010   20.3362 C.2       1 UNK         0.0000 
     29 O29         6.4653   56.0976   21.2545 O.2       1 UNK         0.0000 
     30 N30         6.0095   55.9162   19.0573 N.am      1 UNK         0.0000 
     31 C31         6.9485   56.8505   18.5984 C.ar      1 UNK         0.0000 
     32 C32         6.5147   57.9233   17.8192 C.ar      1 UNK         0.0000 
     33 C33         7.4414   58.8546   17.3544 C.ar      1 UNK         0.0000 
     34 C34         8.7932   58.7016   17.6579 C.ar      1 UNK         0.0000 
     35 C35         9.2334   57.6202   18.4188 C.ar      1 UNK         0.0000 
     36 C36         8.3112   56.6875   18.8811 C.ar      1 UNK         0.0000 
     37 H37         6.7025   52.0957   18.8829 H         1 UNK         0.0000 
     38 H38         5.4545   52.5051   17.7562 H         1 UNK         0.0000 
     39 H39         6.6477   53.7096   18.2501 H         1 UNK         0.0000 
     40 H40         0.9717   49.1208   21.9713 H         1 UNK         0.0000 
     41 H41         1.5109   49.4070   23.6055 H         1 UNK         0.0000 
     42 H42         0.1628   48.6468   25.5113 H         1 UNK         0.0000 
     43 H43        -1.7109   47.2969   26.3351 H         1 UNK         0.0000 
     44 H44        -3.4644   46.5075   24.7719 H         1 UNK         0.0000 
     45 H45        -3.3130   47.0716   22.3593 H         1 UNK         0.0000 
     46 H46         4.3638   51.3423   19.3545 H         1 UNK         0.0000 
     47 H47         6.7962   53.8983   22.4914 H         1 UNK         0.0000 
     48 H48         7.8229   53.9683   24.6747 H         1 UNK         0.0000 
     49 H49         3.9999   54.6544   26.5066 H         1 UNK         0.0000 
     50 H50         2.9578   54.6848   24.2873 H         1 UNK         0.0000 
     51 H51         5.3335   55.5734   18.3907 H         1 UNK         0.0000 
     52 H52         5.4677   58.0519   17.5849 H         1 UNK         0.0000 
     53 H53         7.1064   59.6954   16.7650 H         1 UNK         0.0000 
     54 H54         9.5060   59.4271   17.2945 H         1 UNK         0.0000 
     55 H55        10.2826   57.5007   18.6464 H         1 UNK         0.0000 
     56 H56         8.6582   55.8479   19.4667 H         1 UNK         0.0000 
@<TRIPOS>BOND
     1    1    2 1    
     2    1   37 1    
     3    1   38 1    
     4    1   39 1    
     5    2   20 1    
     6    2    3 2    
     7    3    4 1    
     8    3   28 1    
     9    4    5 1    
    10    4    6 1    
    11    4   21 1    
    12    6   10 ar   
    13    6    7 ar   
    14    7    8 ar   
    15    7   20 1    
    16    8    9 ar   
    17    9   10 ar   
    18    9   11 1    
    19   11   12 1    
    20   12   13 1    
    21   12   40 1    
    22   12   41 1    
    23   13   18 ar   
    24   13   14 ar   
    25   14   15 ar   
    26   14   42 1    
    27   15   16 ar   
    28   15   43 1    
    29   16   17 ar   
    30   16   44 1    
    31   17   18 ar   
    32   17   45 1    
    33   18   19 1    
    34   20   46 1    
    35   21   26 ar   
    36   21   22 ar   
    37   22   23 ar   
    38   22   47 1    
    39   23   24 ar   
    40   23   48 1    
    41   24   25 ar   
    42   24   27 1    
    43   25   26 ar   
    44   25   49 1    
    45   26   50 1    
    46   28   29 2    
    47   28   30 am   BACKBONE|DICT|INTERRES
    48   30   31 1    
    49   30   51 1    
    50   31   36 ar   
    51   31   32 ar   
    52   32   33 ar   
    53   32   52 1    
    54   33   34 ar   
    55   33   53 1    
    56   34   35 ar   
    57   34   54 1    
    58   35   36 ar   
    59   35   55 1    
    60   36   56 1    
@<TRIPOS>SUBSTRUCTURE
     1 UNK         1 GROUP             0       ****    0 ROOT    
