@<TRIPOS>MOLECULE
ZINC04235383_3750
58   61    1
SMALL
USER_CHARGES


@<TRIPOS>ATOM
      1 C1          5.6821   54.6040   17.4178 C.ar      1 UNK         0.0000 
      2 C2          6.4599   55.2433   18.3835 C.ar      1 UNK         0.0000 
      3 C3          6.2636   54.9767   19.7437 C.ar      1 UNK         0.0000 
      4 C4          5.2778   54.0574   20.1218 C.ar      1 UNK         0.0000 
      5 C5          4.5039   53.4053   19.1535 C.ar      1 UNK         0.0000 
      6 C6          4.7021   53.6907   17.8025 C.ar      1 UNK         0.0000 
      7 N7          3.4972   52.4947   19.4943 N.am      1 UNK         0.0000 
      8 C8          3.5189   51.5837   20.5388 C.2       1 UNK         0.0000 
      9 O9          4.4712   51.3313   21.2808 O.2       1 UNK         0.0000 
     10 O10         2.2960   51.0251   20.6387 O.3       1 UNK         0.0000 
     11 C11         1.9786   50.0613   21.6525 C.3       1 UNK         0.0000 
     12 H12         2.7322   49.2721   21.6213 H         1 UNK         0.0000 
     13 C13         0.5823   49.5249   21.3419 C.3       1 UNK         0.0000 
     14 O14        -0.2941   50.3834   22.0635 O.3       1 UNK         0.0000 
     15 C15         0.3092   50.6677   23.3258 C.3       1 UNK         0.0000 
     16 H16        -0.0105   49.9090   24.0465 H         1 UNK         0.0000 
     17 C17         1.8175   50.6475   23.0609 C.3       1 UNK         0.0000 
     18 H18         2.3081   50.0170   23.8030 H         1 UNK         0.0000 
     19 O19         2.2463   52.0094   23.2249 O.3       1 UNK         0.0000 
     20 C20         1.1291   52.8829   23.1532 C.3       1 UNK         0.0000 
     21 C21         0.0066   52.0774   23.7994 C.3       1 UNK         0.0000 
     22 H22        -0.9554   52.4611   23.4589 H         1 UNK         0.0000 
     23 N23         0.1332   52.1968   25.2584 N.pl3     1 UNK         0.0000 
     24 C24        -0.8960   52.2596   26.1596 C.2       1 UNK         0.0000 
     25 S25        -2.5166   52.0944   25.8010 S.2       1 UNK         0.0000 
     26 N26        -0.5600   52.4921   27.4608 N.pl3     1 UNK         0.0000 
     27 C27         0.7769   52.8811   27.9315 C.3       1 UNK         0.0000 
     28 C28         0.7383   54.0805   28.9047 C.3       1 UNK         0.0000 
     29 C29         2.1185   54.4776   29.4625 C.3       1 UNK         0.0000 
     30 C30         2.8817   53.2753   30.0441 C.3       1 UNK         0.0000 
     31 C31         2.9958   52.1467   29.0117 C.3       1 UNK         0.0000 
     32 C32         1.6209   51.7044   28.4755 C.3       1 UNK         0.0000 
     33 C33         7.1055   55.6945   20.7923 C.3       1 UNK         0.0000 
     34 F34         6.7027   56.9597   20.8519 F         1 UNK         0.0000 
     35 F35         8.3956   55.6726   20.4566 F         1 UNK         0.0000 
     36 F36         6.9792   55.1633   22.0084 F         1 UNK         0.0000 
     37 H37         5.8425   54.8102   16.3693 H         1 UNK         0.0000 
     38 H38         7.2158   55.9498   18.0664 H         1 UNK         0.0000 
     39 H39         5.1059   53.8545   21.1719 H         1 UNK         0.0000 
     40 H40         4.1129   53.1911   17.0446 H         1 UNK         0.0000 
     41 H41         2.6959   52.4492   18.8865 H         1 UNK         0.0000 
     42 H42         0.3410   49.5318   20.2787 H         1 UNK         0.0000 
     43 H43         0.4353   48.4963   21.6638 H         1 UNK         0.0000 
     44 H44         1.3150   53.8445   23.6314 H         1 UNK         0.0000 
     45 H45         0.8990   53.1533   22.1202 H         1 UNK         0.0000 
     46 H46         1.0735   52.1885   25.6242 H         1 UNK         0.0000 
     47 H47        -1.2958   52.4476   28.1500 H         1 UNK         0.0000 
     48 H48         1.3519   53.2740   27.0899 H         1 UNK         0.0000 
     49 H49         0.3046   54.9391   28.3960 H         1 UNK         0.0000 
     50 H50         0.0854   53.8424   29.7479 H         1 UNK         0.0000 
     51 H51         2.7124   54.9245   28.6609 H         1 UNK         0.0000 
     52 H52         2.0005   55.2544   30.2186 H         1 UNK         0.0000 
     53 H53         3.8776   53.5835   30.3678 H         1 UNK         0.0000 
     54 H54         2.3676   52.9006   30.9319 H         1 UNK         0.0000 
     55 H55         3.6128   52.4862   28.1738 H         1 UNK         0.0000 
     56 H56         3.5231   51.2957   29.4431 H         1 UNK         0.0000 
     57 H57         1.0693   51.2185   29.2827 H         1 UNK         0.0000 
     58 H58         1.7583   50.9497   27.6974 H         1 UNK         0.0000 
@<TRIPOS>BOND
     1    1    6 ar   
     2    1    2 ar   
     3    1   37 1    
     4    2    3 ar   
     5    2   38 1    
     6    3    4 ar   
     7    3   33 1    
     8    4    5 ar   
     9    4   39 1    
    10    5    6 ar   
    11    5    7 1    
    12    6   40 1    
    13    7    8 am   BACKBONE|DICT|INTERRES
    14    7   41 1    
    15    8    9 2    
    16    8   10 1    
    17   10   11 1    
    18   11   12 1    
    19   11   17 1    
    20   11   13 1    
    21   13   14 1    
    22   13   42 1    
    23   13   43 1    
    24   14   15 1    
    25   15   16 1    
    26   15   21 1    
    27   15   17 1    
    28   17   18 1    
    29   17   19 1    
    30   19   20 1    
    31   20   21 1    
    32   20   44 1    
    33   20   45 1    
    34   21   22 1    
    35   21   23 1    
    36   23   24 1    
    37   23   46 1    
    38   24   25 2    
    39   24   26 1    
    40   26   27 1    
    41   26   47 1    
    42   27   32 1    
    43   27   28 1    
    44   27   48 1    
    45   28   29 1    
    46   28   49 1    
    47   28   50 1    
    48   29   30 1    
    49   29   51 1    
    50   29   52 1    
    51   30   31 1    
    52   30   53 1    
    53   30   54 1    
    54   31   32 1    
    55   31   55 1    
    56   31   56 1    
    57   32   57 1    
    58   32   58 1    
    59   33   34 1    
    60   33   35 1    
    61   33   36 1    
@<TRIPOS>SUBSTRUCTURE
     1 UNK         1 GROUP             0       ****    0 ROOT    
