@<TRIPOS>MOLECULE
ZINC55175898_1658
33   35    1
SMALL
USER_CHARGES


@<TRIPOS>ATOM
      1 C1          4.1044   52.0967   30.7271 C.3       1 UNK         0.0000 
      2 C2          2.9207   52.7622   30.0776 C.2       1 UNK         0.0000 
      3 C3          2.8590   53.6091   28.9547 C.2       1 UNK         0.0000 
      4 S4          1.2021   54.1506   28.7883 S.3       1 UNK         0.0000 
      5 C5          0.7871   53.0950   30.1002 C.2       1 UNK         0.0000 
      6 N6          1.7819   52.4965   30.6731 N.2       1 UNK         0.0000 
      7 N7         -0.4956   52.8967   30.4817 N.pl3     1 UNK         0.0000 
      8 C8          3.9934   54.0985   28.1906 C.2       1 UNK         0.0000 
      9 O9          4.9286   54.4967   28.8814 O.2       1 UNK         0.0000 
     10 N10         4.0526   53.9683   26.8147 N.am      1 UNK         0.0000 
     11 C11         2.8903   53.4691   26.0331 C.3       1 UNK         0.0000 
     12 C12         2.7774   54.2334   24.6987 C.3       1 UNK         0.0000 
     13 C13         4.0357   54.0967   23.9128 C.2       1 UNK         0.0000 
     14 C14         5.2679   54.0360   24.5321 C.2       1 UNK         0.0000 
     15 C15         6.3040   54.1209   23.5789 C.2       1 UNK         0.0000 
     16 C16         5.8432   54.3070   22.2823 C.2       1 UNK         0.0000 
     17 S17         4.1232   54.1961   22.1855 S.3       1 UNK         0.0000 
     18 C18         5.3727   53.8600   26.0656 C.3       1 UNK         0.0000 
     19 H19         5.6781   52.8350   26.2401 H         1 UNK         0.0000 
     20 C20         6.6209   54.6004   26.5882 C.2       1 UNK         0.0000 
     21 O21         7.3414   53.9921   27.4052 O.co2     1 UNK         0.0000 
     22 O22         6.9057   55.7022   26.0816 O.co2     1 UNK         0.0000 
     23 H23         4.9832   52.0894   30.0818 H         1 UNK         0.0000 
     24 H24         4.3680   52.6105   31.6508 H         1 UNK         0.0000 
     25 H25         3.9044   51.0684   31.0093 H         1 UNK         0.0000 
     26 H26        -0.6858   52.4195   31.3632 H         1 UNK         0.0000 
     27 H27        -1.1723   52.6725   29.7682 H         1 UNK         0.0000 
     28 H28         2.9995   52.4154   25.8241 H         1 UNK         0.0000 
     29 H29         1.9313   53.6360   26.5009 H         1 UNK         0.0000 
     30 H30         1.8974   53.9334   24.1291 H         1 UNK         0.0000 
     31 H31         2.7044   55.2967   24.8815 H         1 UNK         0.0000 
     32 H32         7.3519   54.1027   23.8401 H         1 UNK         0.0000 
     33 H33         6.4172   54.4967   21.3886 H         1 UNK         0.0000 
@<TRIPOS>BOND
     1    1    2 1    
     2    1   23 1    
     3    1   24 1    
     4    1   25 1    
     5    2    6 1    
     6    2    3 2    
     7    3    4 1    
     8    3    8 1    
     9    4    5 1    
    10    5    6 2    
    11    5    7 1    
    12    7   26 1    
    13    7   27 1    
    14    8    9 2    
    15    8   10 am   BACKBONE|DICT|INTERRES
    16   10   18 1    
    17   10   11 1    
    18   11   12 1    
    19   11   28 1    
    20   11   29 1    
    21   12   13 1    
    22   12   30 1    
    23   12   31 1    
    24   13   17 1    
    25   13   14 2    
    26   14   15 1    
    27   14   18 1    
    28   15   16 2    
    29   15   32 1    
    30   16   17 1    
    31   16   33 1    
    32   18   19 1    
    33   18   20 1    
    34   20   21 2    
    35   20   22 1    
@<TRIPOS>SUBSTRUCTURE
     1 UNK         1 GROUP             0       ****    0 ROOT    
