@<TRIPOS>MOLECULE
ZINC39676552_342
79   82    1
SMALL
USER_CHARGES


@<TRIPOS>ATOM
      1 C1          1.7956   44.0029   15.2334 C.3       1 UNK         0.0000 
      2 C2          1.9950   45.4922   15.5451 C.3       1 UNK         0.0000 
      3 C3          1.1781   45.9517   16.7683 C.3       1 UNK         0.0000 
      4 C4          1.3097   47.4651   17.1088 C.3       1 UNK         0.0000 
      5 H5          2.3773   47.6934   17.1493 H         1 UNK         0.0000 
      6 C6          0.6437   48.3465   16.0235 C.3       1 UNK         0.0000 
      7 C7          0.7327   47.8034   18.5091 C.2       1 UNK         0.0000 
      8 O8         -0.1185   47.0593   19.0046 O.2       1 UNK         0.0000 
      9 N9          1.1705   48.9056   19.1668 N.am      1 UNK         0.0000 
     10 C10         0.6167   49.3011   20.4652 C.3       1 UNK         0.0000 
     11 C11         1.4816   50.5126   20.8592 C.3       1 UNK         0.0000 
     12 H12         2.3488   50.1456   21.4146 H         1 UNK         0.0000 
     13 C13         1.9376   51.1363   19.5094 C.3       1 UNK         0.0000 
     14 C14         2.1861   49.8496   18.6880 C.3       1 UNK         0.0000 
     15 C15         0.8492   52.0441   18.8417 C.3       1 UNK         0.0000 
     16 C16         1.2646   52.5579   17.4493 C.3       1 UNK         0.0000 
     17 N17         2.5803   53.3458   17.6144 N.4       1 UNK         0.0000 
     18 C18         3.6969   52.5107   18.2748 C.3       1 UNK         0.0000 
     19 C19         3.1892   52.0356   19.6505 C.3       1 UNK         0.0000 
     20 C20         0.6627   51.4475   21.7823 C.2       1 UNK         0.0000 
     21 O21        -0.5195   51.7135   21.5455 O.2       1 UNK         0.0000 
     22 N22         1.3079   51.8979   22.8710 N.am      1 UNK         0.0000 
     23 C23         0.7678   52.8216   23.8734 C.3       1 UNK         0.0000 
     24 C24        -0.4614   52.2562   24.6054 C.ar      1 UNK         0.0000 
     25 C25        -0.3635   51.0948   25.3804 C.ar      1 UNK         0.0000 
     26 C26        -1.4722   50.6219   26.0774 C.ar      1 UNK         0.0000 
     27 C27        -2.7001   51.2940   25.9923 C.ar      1 UNK         0.0000 
     28 C28        -2.8066   52.4163   25.1725 C.ar      1 UNK         0.0000 
     29 C29        -1.6993   52.8918   24.4783 C.ar      1 UNK         0.0000 
     30 O30        -3.8419   50.9236   26.6717 O.3       1 UNK         0.0000 
     31 C31        -3.7658   49.8668   27.6238 C.3       1 UNK         0.0000 
     32 C32         1.9075   53.3686   24.7512 C.ar      1 UNK         0.0000 
     33 C33         2.9963   53.9900   24.1268 C.ar      1 UNK         0.0000 
     34 C34         4.0793   54.4426   24.8740 C.ar      1 UNK         0.0000 
     35 C35         4.0999   54.2835   26.2568 C.ar      1 UNK         0.0000 
     36 C36         2.9949   53.7004   26.8931 C.ar      1 UNK         0.0000 
     37 C37         1.9053   53.2602   26.1476 C.ar      1 UNK         0.0000 
     38 O38         5.2324   54.7246   26.9106 O.3       1 UNK         0.0000 
     39 C39         5.3513   54.4998   28.3112 C.3       1 UNK         0.0000 
     40 H40         2.3039   43.7239   14.3100 H         1 UNK         0.0000 
     41 H41         0.7395   43.7626   15.1022 H         1 UNK         0.0000 
     42 H42         2.1866   43.3754   16.0349 H         1 UNK         0.0000 
     43 H43         3.0551   45.6943   15.7127 H         1 UNK         0.0000 
     44 H44         1.7089   46.0716   14.6681 H         1 UNK         0.0000 
     45 H45         0.1250   45.7093   16.6114 H         1 UNK         0.0000 
     46 H46         1.4820   45.3548   17.6291 H         1 UNK         0.0000 
     47 H47         0.6486   49.4053   16.2787 H         1 UNK         0.0000 
     48 H48         1.1628   48.2592   15.0681 H         1 UNK         0.0000 
     49 H49        -0.4000   48.0679   15.8660 H         1 UNK         0.0000 
     50 H50        -0.4169   49.5961   20.2700 H         1 UNK         0.0000 
     51 H51         0.6666   48.5086   21.2137 H         1 UNK         0.0000 
     52 H52         3.1533   49.4501   18.9933 H         1 UNK         0.0000 
     53 H53         2.2651   50.0165   17.6177 H         1 UNK         0.0000 
     54 H54        -0.0782   51.4797   18.7242 H         1 UNK         0.0000 
     55 H55         0.5934   52.8950   19.4769 H         1 UNK         0.0000 
     56 H56         1.4486   51.7688   16.7188 H         1 UNK         0.0000 
     57 H57         0.5389   53.2583   17.0342 H         1 UNK         0.0000 
     58 H58         2.8945   53.6851   16.7146 H         1 UNK         0.0000 
     59 H59         3.9044   51.6971   17.5768 H         1 UNK         0.0000 
     60 H60         4.5775   53.1501   18.3448 H         1 UNK         0.0000 
     61 H61         3.0039   52.8749   20.3227 H         1 UNK         0.0000 
     62 H62         3.9922   51.4618   20.1140 H         1 UNK         0.0000 
     63 H63         2.2743   51.6358   23.0000 H         1 UNK         0.0000 
     64 H64         0.4303   53.6987   23.3174 H         1 UNK         0.0000 
     65 H65         0.5784   50.5721   25.4605 H         1 UNK         0.0000 
     66 H66        -1.3579   49.7354   26.6846 H         1 UNK         0.0000 
     67 H67        -3.7542   52.9262   25.0861 H         1 UNK         0.0000 
     68 H68        -1.8049   53.7643   23.8522 H         1 UNK         0.0000 
     69 H69        -4.7426   49.7249   28.0818 H         1 UNK         0.0000 
     70 H70        -3.4823   48.9210   27.1594 H         1 UNK         0.0000 
     71 H71        -3.0601   50.1015   28.4212 H         1 UNK         0.0000 
     72 H72         3.0171   54.1072   23.0528 H         1 UNK         0.0000 
     73 H73         4.9214   54.8999   24.3775 H         1 UNK         0.0000 
     74 H74         2.9653   53.5745   27.9633 H         1 UNK         0.0000 
     75 H75         1.0780   52.8142   26.6760 H         1 UNK         0.0000 
     76 H76         6.3036   54.8955   28.6550 H         1 UNK         0.0000 
     77 H77         4.5671   55.0092   28.8724 H         1 UNK         0.0000 
     78 H78         5.3290   53.4350   28.5484 H         1 UNK         0.0000 
     79 H79         2.4007   54.1564   18.1961 H         1 UNK         0.0000 
@<TRIPOS>BOND
     1    1    2 1    
     2    1   40 1    
     3    1   41 1    
     4    1   42 1    
     5    2    3 1    
     6    2   43 1    
     7    2   44 1    
     8    3    4 1    
     9    3   45 1    
    10    3   46 1    
    11    4    5 1    
    12    4    6 1    
    13    4    7 1    
    14    6   47 1    
    15    6   48 1    
    16    6   49 1    
    17    7    8 2    
    18    7    9 am   BACKBONE|DICT|INTERRES
    19    9   14 1    
    20    9   10 1    
    21   10   11 1    
    22   10   50 1    
    23   10   51 1    
    24   11   12 1    
    25   11   13 1    
    26   11   20 1    
    27   13   19 1    
    28   13   14 1    
    29   13   15 1    
    30   14   52 1    
    31   14   53 1    
    32   15   16 1    
    33   15   54 1    
    34   15   55 1    
    35   16   17 1    
    36   16   56 1    
    37   16   57 1    
    38   17   18 1    
    39   17   58 1    
    40   17   79 1    
    41   18   19 1    
    42   18   59 1    
    43   18   60 1    
    44   19   61 1    
    45   19   62 1    
    46   20   21 2    
    47   20   22 am   BACKBONE|DICT|INTERRES
    48   22   23 1    
    49   22   63 1    
    50   23   24 1    
    51   23   32 1    
    52   23   64 1    
    53   24   29 ar   
    54   24   25 ar   
    55   25   26 ar   
    56   25   65 1    
    57   26   27 ar   
    58   26   66 1    
    59   27   28 ar   
    60   27   30 1    
    61   28   29 ar   
    62   28   67 1    
    63   29   68 1    
    64   30   31 1    
    65   31   69 1    
    66   31   70 1    
    67   31   71 1    
    68   32   37 ar   
    69   32   33 ar   
    70   33   34 ar   
    71   33   72 1    
    72   34   35 ar   
    73   34   73 1    
    74   35   36 ar   
    75   35   38 1    
    76   36   37 ar   
    77   36   74 1    
    78   37   75 1    
    79   38   39 1    
    80   39   76 1    
    81   39   77 1    
    82   39   78 1    
@<TRIPOS>SUBSTRUCTURE
     1 UNK         1 GROUP             0       ****    0 ROOT    
