ZINC24827087_5152
                    3D
 Schrodinger Suite 2024-2.
 52 55  0  0  1  0            999 V2000
   -0.7933   48.9538   21.4090 C   0  0  0  0  0  0
    0.2987   49.9956   21.2002 C   0  0  0  0  0  0
    1.5386   49.7846   21.8116 C   0  0  0  0  0  0
    2.5677   50.7121   21.6740 C   0  0  0  0  0  0
    2.3720   51.8793   20.9247 C   0  0  0  0  0  0
    1.1396   52.0779   20.2983 C   0  0  0  0  0  0
    0.0892   51.1579   20.4280 C   0  0  0  0  0  0
   -1.2467   51.4377   19.7216 C   0  0  0  0  0  0
   -1.6262   50.3885   18.9924 F   0  0  0  0  0  0
   -2.1872   51.6918   20.6322 F   0  0  0  0  0  0
   -1.1884   52.4925   18.9023 F   0  0  0  0  0  0
    3.3291   52.8964   20.7450 N   0  0  0  0  0  0
    4.5599   53.0429   21.2882 C   0  0  0  0  0  0
    5.0716   52.2500   22.0740 O   0  0  0  0  0  0
    5.3106   54.2901   20.8678 C   0  0  0  0  0  0
    5.1002   54.8251   19.5822 C   0  0  0  0  0  0
    5.8241   55.9299   19.1447 C   0  0  0  0  0  0
    6.7519   56.4947   20.0096 C   0  0  0  0  0  0
    6.9757   56.0227   21.2606 N   0  0  0  0  0  0
    6.2768   54.9355   21.6842 C   0  0  0  0  0  0
    6.7043   54.3937   23.3290 S   0  0  0  0  0  0
    5.6266   55.2896   24.4849 C   0  0  0  0  0  0
    5.5886   54.6953   25.8972 C   0  0  0  0  0  0
    6.6426   54.5060   26.5059 O   0  0  0  0  0  0
    4.3501   54.4682   26.3895 N   0  0  0  0  0  0
    3.9552   53.9001   27.6146 C   0  0  0  0  0  0
    4.7964   53.1058   28.4275 C   0  0  0  0  0  0
    4.3043   52.4963   29.5910 C   0  0  0  0  0  0
    2.9717   52.7055   29.9197 C   0  0  0  0  0  0
    2.1586   53.4893   29.1535 C   0  0  0  0  0  0
    2.6151   54.1015   27.9909 C   0  0  0  0  0  0
    0.9284   53.5555   29.7291 O   0  0  0  0  0  0
    0.9329   52.5750   30.7334 C   0  0  0  0  0  0
    2.2730   52.2373   30.9873 O   0  0  0  0  0  0
   -0.9476   48.3737   20.4991 H   0  0  0  0  0  0
   -0.5553   48.2699   22.2243 H   0  0  0  0  0  0
   -1.7383   49.4285   21.6711 H   0  0  0  0  0  0
    1.7153   48.8976   22.4034 H   0  0  0  0  0  0
    3.5042   50.4962   22.1576 H   0  0  0  0  0  0
    0.9939   52.9669   19.7035 H   0  0  0  0  0  0
    3.0144   53.6511   20.1529 H   0  0  0  0  0  0
    4.4029   54.3740   18.8899 H   0  0  0  0  0  0
    5.6776   56.3291   18.1513 H   0  0  0  0  0  0
    7.3444   57.3357   19.6817 H   0  0  0  0  0  0
    4.6217   55.2963   24.0651 H   0  0  0  0  0  0
    5.9699   56.3206   24.5559 H   0  0  0  0  0  0
    3.5825   54.7564   25.8036 H   0  0  0  0  0  0
    5.8229   52.9170   28.1511 H   0  0  0  0  0  0
    4.9454   51.8760   30.1983 H   0  0  0  0  0  0
    1.9481   54.7046   27.3937 H   0  0  0  0  0  0
    0.4348   52.9251   31.6401 H   0  0  0  0  0  0
    0.3956   51.6967   30.3680 H   0  0  0  0  0  0
  1  2  1  0  0  0
  1 35  1  0  0  0
  1 36  1  0  0  0
  1 37  1  0  0  0
  2  7  2  0  0  0
  2  3  1  0  0  0
  3  4  2  0  0  0
  3 38  1  0  0  0
  4  5  1  0  0  0
  4 39  1  0  0  0
  5  6  2  0  0  0
  5 12  1  0  0  0
  6  7  1  0  0  0
  6 40  1  0  0  0
  7  8  1  0  0  0
  8  9  1  0  0  0
  8 10  1  0  0  0
  8 11  1  0  0  0
 12 13  1  0  0  0
 12 41  1  0  0  0
 13 14  2  0  0  0
 13 15  1  0  0  0
 15 20  2  0  0  0
 15 16  1  0  0  0
 16 17  2  0  0  0
 16 42  1  0  0  0
 17 18  1  0  0  0
 17 43  1  0  0  0
 18 19  2  0  0  0
 18 44  1  0  0  0
 19 20  1  0  0  0
 20 21  1  0  0  0
 21 22  1  0  0  0
 22 23  1  0  0  0
 22 45  1  0  0  0
 22 46  1  0  0  0
 23 24  2  0  0  0
 23 25  1  0  0  0
 25 26  1  0  0  0
 25 47  1  0  0  0
 26 31  2  0  0  0
 26 27  1  0  0  0
 27 28  2  0  0  0
 27 48  1  0  0  0
 28 29  1  0  0  0
 28 49  1  0  0  0
 29 34  1  0  0  0
 29 30  2  0  0  0
 30 31  1  0  0  0
 30 32  1  0  0  0
 31 50  1  0  0  0
 32 33  1  0  0  0
 33 34  1  0  0  0
 33 51  1  0  0  0
 33 52  1  0  0  0
M  END
> <i_i_glide_confnum>
167

> <i_i_glide_lignum>
5153

> <i_i_glide_posenum>
225

> <i_i_glide_rotatable_bonds>
9

> <i_m_Source_File_Index>
4514

> <b_m_subgroup_collapsed>
0

> <r_i_docking_score>
-6.37053

> <r_i_glide_ecoul>
-6.17531

> <r_i_glide_eff_state_penalty>
0

> <r_i_glide_einternal>
7.27573

> <r_i_glide_emodel>
-74.0296

> <r_i_glide_energy>
-55.0833

> <r_i_glide_erotb>
0.594401

> <r_i_glide_esite>
-0.101575

> <r_i_glide_evdw>
-48.908

> <r_i_glide_gscore>
-6.37053

> <r_i_glide_hbond>
-0.386814

> <r_i_glide_ligand_efficiency>
-0.187369

> <r_i_glide_ligand_efficiency_ln>
-1.40743

> <r_i_glide_ligand_efficiency_sa>
-0.607002

> <r_i_glide_lipo>
-2.40794

> <r_i_glide_metal>
0

> <r_i_glide_rewards>
-0.696916

> <s_i_glide_gridfile>
wee1_glide-grid

> <s_m_Source_File>
wee1_decoys_glide_SP.sdf

> <s_m_Source_Path>
/Users/zhangxujun/Desktop

> <s_m_entry_id>
4789

> <s_m_entry_name>
wee1_decoys_glide_SP.4514

> <s_m_subgroup_title>
wee1_decoys_glide_SP

> <s_m_subgroupid>
wee1_decoys_glide_SP


$$$$
