@<TRIPOS>MOLECULE
ZINC59212303_4865
59   62    1
SMALL
USER_CHARGES


@<TRIPOS>ATOM
      1 C1          0.4442   52.4736   30.1650 C.3       1 UNK         0.0000 
      2 C2          1.5911   52.8874   29.2608 C.ar      1 UNK         0.0000 
      3 C3          1.3263   53.2735   27.9467 C.ar      1 UNK         0.0000 
      4 C4          2.3703   53.6654   27.1109 C.ar      1 UNK         0.0000 
      5 C5          3.6827   53.6845   27.5896 C.ar      1 UNK         0.0000 
      6 C6          3.9426   53.2891   28.9062 C.ar      1 UNK         0.0000 
      7 C7          2.9021   52.8843   29.7380 C.ar      1 UNK         0.0000 
      8 C8          4.8111   54.1128   26.7103 C.2       1 UNK         0.0000 
      9 N9          6.0117   54.4978   27.0721 N.2       1 UNK         0.0000 
     10 N10         6.7049   54.7578   25.8970 N.2       1 UNK         0.0000 
     11 C11         5.8769   54.4973   24.9190 C.2       1 UNK         0.0000 
     12 O12         4.6558   54.0965   25.3590 O.3       1 UNK         0.0000 
     13 S13         6.2351   54.5206   23.1922 S.3       1 UNK         0.0000 
     14 C14         4.5635   54.4727   22.4572 C.3       1 UNK         0.0000 
     15 C15         4.1756   53.1511   21.7819 C.2       1 UNK         0.0000 
     16 O16         4.9769   52.2196   21.6818 O.2       1 UNK         0.0000 
     17 N17         2.9223   53.1126   21.2931 N.am      1 UNK         0.0000 
     18 C18         2.4397   52.1001   20.4529 C.ar      1 UNK         0.0000 
     19 C19         2.5959   52.3410   19.0820 C.ar      1 UNK         0.0000 
     20 C20         2.1213   51.4387   18.1308 C.ar      1 UNK         0.0000 
     21 C21         1.5087   50.2656   18.5692 C.ar      1 UNK         0.0000 
     22 C22         1.3247   50.0316   19.9307 C.ar      1 UNK         0.0000 
     23 C23         1.7565   50.9430   20.9107 C.ar      1 UNK         0.0000 
     24 N24         1.4474   50.6605   22.2508 N.pl3     1 UNK         0.0000 
     25 C25         1.2995   51.6638   23.3231 C.3       1 UNK         0.0000 
     26 C26         0.2979   51.3019   24.4528 C.3       1 UNK         0.0000 
     27 N27         0.5736   49.8802   24.9765 N.4       1 UNK         0.0000 
     28 C28         0.5120   48.8954   23.8022 C.3       1 UNK         0.0000 
     29 C29         1.6051   49.2965   22.7921 C.3       1 UNK         0.0000 
     30 C30        -0.4241   49.4700   26.0816 C.3       1 UNK         0.0000 
     31 C31         2.2599   51.7592   16.6422 C.3       1 UNK         0.0000 
     32 F32         1.9027   50.7393   15.8593 F         1 UNK         0.0000 
     33 F33         1.4649   52.7899   16.3538 F         1 UNK         0.0000 
     34 F34         3.5128   52.0974   16.3460 F         1 UNK         0.0000 
     35 H35        -0.2313   53.3142   30.3272 H         1 UNK         0.0000 
     36 H36        -0.1421   51.6801   29.6986 H         1 UNK         0.0000 
     37 H37         0.7852   52.1131   31.1382 H         1 UNK         0.0000 
     38 H38         0.3116   53.2758   27.5769 H         1 UNK         0.0000 
     39 H39         2.1561   53.9700   26.0957 H         1 UNK         0.0000 
     40 H40         4.9556   53.2856   29.2825 H         1 UNK         0.0000 
     41 H41         3.1199   52.5722   30.7491 H         1 UNK         0.0000 
     42 H42         4.5577   55.2335   21.6784 H         1 UNK         0.0000 
     43 H43         3.8019   54.7682   23.1769 H         1 UNK         0.0000 
     44 H44         2.4066   53.9828   21.2510 H         1 UNK         0.0000 
     45 H45         3.0852   53.2452   18.7467 H         1 UNK         0.0000 
     46 H46         1.1487   49.5391   17.8559 H         1 UNK         0.0000 
     47 H47         0.7904   49.1365   20.2061 H         1 UNK         0.0000 
     48 H48         1.0542   52.6469   22.9226 H         1 UNK         0.0000 
     49 H49         2.2953   51.7295   23.7639 H         1 UNK         0.0000 
     50 H50         0.4408   51.9640   25.3084 H         1 UNK         0.0000 
     51 H51        -0.7392   51.3337   24.1186 H         1 UNK         0.0000 
     52 H52         0.7044   47.9093   24.2235 H         1 UNK         0.0000 
     53 H53        -0.4913   48.9118   23.3766 H         1 UNK         0.0000 
     54 H54         2.5798   49.2969   23.2826 H         1 UNK         0.0000 
     55 H55         1.6969   48.5453   22.0110 H         1 UNK         0.0000 
     56 H56        -1.4276   49.4178   25.6573 H         1 UNK         0.0000 
     57 H57        -0.1116   48.4990   26.4753 H         1 UNK         0.0000 
     58 H58        -0.3730   50.2146   26.8793 H         1 UNK         0.0000 
     59 H59         1.5079   49.8366   25.3585 H         1 UNK         0.0000 
@<TRIPOS>BOND
     1    1    2 1    
     2    1   35 1    
     3    1   36 1    
     4    1   37 1    
     5    2    7 ar   
     6    2    3 ar   
     7    3    4 ar   
     8    3   38 1    
     9    4    5 ar   
    10    4   39 1    
    11    5    6 ar   
    12    5    8 1    
    13    6    7 ar   
    14    6   40 1    
    15    7   41 1    
    16    8   12 1    
    17    8    9 2    
    18    9   10 1    
    19   10   11 2    
    20   11   12 1    
    21   11   13 1    
    22   13   14 1    
    23   14   15 1    
    24   14   42 1    
    25   14   43 1    
    26   15   16 2    
    27   15   17 am   BACKBONE|DICT|INTERRES
    28   17   18 1    
    29   17   44 1    
    30   18   23 ar   
    31   18   19 ar   
    32   19   20 ar   
    33   19   45 1    
    34   20   21 ar   
    35   20   31 1    
    36   21   22 ar   
    37   21   46 1    
    38   22   23 ar   
    39   22   47 1    
    40   23   24 1    
    41   24   29 1    
    42   24   25 1    
    43   25   26 1    
    44   25   48 1    
    45   25   49 1    
    46   26   27 1    
    47   26   50 1    
    48   26   51 1    
    49   27   28 1    
    50   27   30 1    
    51   27   59 1    
    52   28   29 1    
    53   28   52 1    
    54   28   53 1    
    55   29   54 1    
    56   29   55 1    
    57   30   56 1    
    58   30   57 1    
    59   30   58 1    
    60   31   32 1    
    61   31   33 1    
    62   31   34 1    
@<TRIPOS>SUBSTRUCTURE
     1 UNK         1 GROUP             0       ****    0 ROOT    
