@<TRIPOS>MOLECULE
ZINC48488365_3891
43   44    1
SMALL
USER_CHARGES


@<TRIPOS>ATOM
      1 C1          1.9357   53.8733   24.8817 C.3       1 UNK         0.0000 
      2 C2          3.3119   54.0208   24.2435 C.ar      1 UNK         0.0000 
      3 C3          3.3696   54.0604   22.8467 C.ar      1 UNK         0.0000 
      4 C4          4.5935   54.1052   22.1923 C.ar      1 UNK         0.0000 
      5 C5          5.7673   54.1355   22.9291 C.ar      1 UNK         0.0000 
      6 C6          5.7447   54.0967   24.3248 C.ar      1 UNK         0.0000 
      7 C7          4.4998   54.0664   25.0109 C.ar      1 UNK         0.0000 
      8 N8          4.3565   53.9308   26.4175 N.am      1 UNK         0.0000 
      9 C9          5.0360   54.5432   27.4085 C.2       1 UNK         0.0000 
     10 O10         5.9897   55.2962   27.2293 O.2       1 UNK         0.0000 
     11 N11         4.6290   54.2922   28.6690 N.am      1 UNK         0.0000 
     12 C12         3.3590   53.7476   29.1877 C.3       1 UNK         0.0000 
     13 H13         3.5616   53.7506   30.2594 H         1 UNK         0.0000 
     14 C14         3.1015   52.2640   28.8355 C.3       1 UNK         0.0000 
     15 C15         1.8822   51.6976   29.5920 C.3       1 UNK         0.0000 
     16 C16         0.6141   52.5493   29.4316 C.3       1 UNK         0.0000 
     17 C17         0.9018   54.0024   29.8321 C.3       1 UNK         0.0000 
     18 C18         2.0575   54.5938   28.9913 C.3       1 UNK         0.0000 
     19 H19         1.7492   54.4877   27.9529 H         1 UNK         0.0000 
     20 C20         2.2165   56.0833   29.3392 C.3       1 UNK         0.0000 
     21 C21         7.1042   53.9484   24.9913 C.3       1 UNK         0.0000 
     22 Br22        4.6785   54.0966   20.2920 Br        1 UNK         0.0000 
     23 H23         1.1352   54.1882   24.2100 H         1 UNK         0.0000 
     24 H24         1.7637   52.8385   25.1813 H         1 UNK         0.0000 
     25 H25         1.8557   54.4931   25.7690 H         1 UNK         0.0000 
     26 H26         2.4647   54.0241   22.2562 H         1 UNK         0.0000 
     27 H27         6.7099   54.1512   22.4025 H         1 UNK         0.0000 
     28 H28         3.5390   53.4190   26.7081 H         1 UNK         0.0000 
     29 H29         5.2096   54.7337   29.3669 H         1 UNK         0.0000 
     30 H30         3.9868   51.6741   29.0737 H         1 UNK         0.0000 
     31 H31         2.9273   52.1473   27.7661 H         1 UNK         0.0000 
     32 H32         2.1198   51.6476   30.6554 H         1 UNK         0.0000 
     33 H33         1.6797   50.6835   29.2572 H         1 UNK         0.0000 
     34 H34        -0.1903   52.1413   30.0464 H         1 UNK         0.0000 
     35 H35         0.2640   52.5061   28.3988 H         1 UNK         0.0000 
     36 H36        -0.0034   54.5927   29.6940 H         1 UNK         0.0000 
     37 H37         1.1160   54.0786   30.8994 H         1 UNK         0.0000 
     38 H38         2.3039   56.2411   30.4145 H         1 UNK         0.0000 
     39 H39         3.1040   56.4967   28.8818 H         1 UNK         0.0000 
     40 H40         1.3628   56.6668   28.9920 H         1 UNK         0.0000 
     41 H41         7.8135   53.4596   24.3209 H         1 UNK         0.0000 
     42 H42         7.5045   54.9256   25.2527 H         1 UNK         0.0000 
     43 H43         7.0569   53.3162   25.8778 H         1 UNK         0.0000 
@<TRIPOS>BOND
     1    1    2 1    
     2    1   23 1    
     3    1   24 1    
     4    1   25 1    
     5    2    7 ar   
     6    2    3 ar   
     7    3    4 ar   
     8    3   26 1    
     9    4    5 ar   
    10    4   22 1    
    11    5    6 ar   
    12    5   27 1    
    13    6    7 ar   
    14    6   21 1    
    15    7    8 1    
    16    8    9 am   BACKBONE|DICT|INTERRES
    17    8   28 1    
    18    9   10 2    
    19    9   11 am   BACKBONE|DICT|INTERRES
    20   11   12 1    
    21   11   29 1    
    22   12   13 1    
    23   12   18 1    
    24   12   14 1    
    25   14   15 1    
    26   14   30 1    
    27   14   31 1    
    28   15   16 1    
    29   15   32 1    
    30   15   33 1    
    31   16   17 1    
    32   16   34 1    
    33   16   35 1    
    34   17   18 1    
    35   17   36 1    
    36   17   37 1    
    37   18   19 1    
    38   18   20 1    
    39   20   38 1    
    40   20   39 1    
    41   20   40 1    
    42   21   41 1    
    43   21   42 1    
    44   21   43 1    
@<TRIPOS>SUBSTRUCTURE
     1 UNK         1 GROUP             0       ****    0 ROOT    
