@<TRIPOS>MOLECULE
ZINC39609545_3061
73   76    1
SMALL
USER_CHARGES


@<TRIPOS>ATOM
      1 C1          5.6234   53.1602   28.3635 C.3       1 UNK         0.0000 
      2 C2          5.4812   54.6582   28.0621 C.3       1 UNK         0.0000 
      3 O3          6.1906   55.0225   26.8770 O.3       1 UNK         0.0000 
      4 C4          5.6795   54.6966   25.6351 C.ar      1 UNK         0.0000 
      5 C5          6.4933   54.9771   24.5359 C.ar      1 UNK         0.0000 
      6 C6          6.0775   54.6706   23.2420 C.ar      1 UNK         0.0000 
      7 C7          4.8250   54.0950   23.0337 C.ar      1 UNK         0.0000 
      8 C8          3.9951   53.7942   24.1193 C.ar      1 UNK         0.0000 
      9 C9          4.4220   54.1060   25.4132 C.ar      1 UNK         0.0000 
     10 C10         2.6954   53.0257   23.8988 C.3       1 UNK         0.0000 
     11 C11         1.3967   53.7660   24.2692 C.3       1 UNK         0.0000 
     12 N12         0.2214   52.8874   24.2511 N.am      1 UNK         0.0000 
     13 C13        -0.2225   52.2695   23.1425 C.2       1 UNK         0.0000 
     14 O14         0.2742   52.4934   22.0376 O.2       1 UNK         0.0000 
     15 C15        -1.4651   51.3427   23.2685 C.3       1 UNK         0.0000 
     16 H16        -1.9166   51.4901   24.2472 H         1 UNK         0.0000 
     17 C17        -2.4614   51.6384   22.1273 C.3       1 UNK         0.0000 
     18 N18        -1.9575   50.8184   21.0153 N.am      1 UNK         0.0000 
     19 C19        -1.0564   49.7530   21.4868 C.3       1 UNK         0.0000 
     20 C20        -1.1147   49.8360   23.0287 C.3       1 UNK         0.0000 
     21 C21         0.1594   49.2462   23.7000 C.3       1 UNK         0.0000 
     22 C22         0.0712   49.2902   25.2399 C.3       1 UNK         0.0000 
     23 N23        -1.1529   48.4580   25.6817 N.4       1 UNK         0.0000 
     24 C24        -2.4768   48.8661   25.0037 C.3       1 UNK         0.0000 
     25 C25        -2.2567   48.8667   23.4769 C.3       1 UNK         0.0000 
     26 C26        -2.1534   51.1682   19.7186 C.2       1 UNK         0.0000 
     27 O27        -2.8959   52.0961   19.3851 O.2       1 UNK         0.0000 
     28 C28        -1.4347   50.3827   18.6501 C.ar      1 UNK         0.0000 
     29 C29        -0.0383   50.3885   18.5670 C.ar      1 UNK         0.0000 
     30 C30         0.6125   49.6558   17.5762 C.ar      1 UNK         0.0000 
     31 C31        -0.1171   48.9017   16.6406 C.ar      1 UNK         0.0000 
     32 C32        -1.5232   48.9125   16.7074 C.ar      1 UNK         0.0000 
     33 C33        -2.1677   49.6608   17.7039 C.ar      1 UNK         0.0000 
     34 C34        -2.3475   48.1088   15.6961 C.3       1 UNK         0.0000 
     35 F35        -2.0977   48.5409   14.4596 F         1 UNK         0.0000 
     36 F36        -2.0234   46.8167   15.7759 F         1 UNK         0.0000 
     37 F37        -3.6614   48.2139   15.9088 F         1 UNK         0.0000 
     38 O38         0.4751   48.1416   15.6452 O.3       1 UNK         0.0000 
     39 C39         1.8945   48.0967   15.5400 C.3       1 UNK         0.0000 
     40 H40         5.1049   52.8955   29.2825 H         1 UNK         0.0000 
     41 H41         6.6737   52.8968   28.4812 H         1 UNK         0.0000 
     42 H42         5.2134   52.5385   27.5682 H         1 UNK         0.0000 
     43 H43         4.4346   54.9589   28.0125 H         1 UNK         0.0000 
     44 H44         5.9038   55.2272   28.8884 H         1 UNK         0.0000 
     45 H45         7.4630   55.4279   24.6826 H         1 UNK         0.0000 
     46 H46         6.7246   54.8840   22.4029 H         1 UNK         0.0000 
     47 H47         4.5210   53.8486   22.0258 H         1 UNK         0.0000 
     48 H48         3.7771   53.8511   26.2383 H         1 UNK         0.0000 
     49 H49         2.6557   52.7014   22.8583 H         1 UNK         0.0000 
     50 H50         2.7048   52.1019   24.4764 H         1 UNK         0.0000 
     51 H51         1.4985   54.1551   25.2814 H         1 UNK         0.0000 
     52 H52         1.2689   54.6643   23.6617 H         1 UNK         0.0000 
     53 H53        -0.2573   52.7407   25.1273 H         1 UNK         0.0000 
     54 H54        -3.4471   51.2963   22.4438 H         1 UNK         0.0000 
     55 H55        -2.4949   52.7111   21.9270 H         1 UNK         0.0000 
     56 H56        -0.0391   50.0194   21.1970 H         1 UNK         0.0000 
     57 H57        -1.2353   48.7548   21.0850 H         1 UNK         0.0000 
     58 H58         0.3324   48.2225   23.3657 H         1 UNK         0.0000 
     59 H59         1.0486   49.7939   23.3810 H         1 UNK         0.0000 
     60 H60         0.9378   48.8307   25.7216 H         1 UNK         0.0000 
     61 H61        -0.0699   50.2942   25.6401 H         1 UNK         0.0000 
     62 H62        -0.9594   47.4847   25.4961 H         1 UNK         0.0000 
     63 H63        -3.2167   48.1294   25.3222 H         1 UNK         0.0000 
     64 H64        -2.7543   49.8353   25.4186 H         1 UNK         0.0000 
     65 H65        -3.2004   49.1329   22.9978 H         1 UNK         0.0000 
     66 H66        -2.0596   47.8505   23.1290 H         1 UNK         0.0000 
     67 H67         0.5539   50.9690   19.2618 H         1 UNK         0.0000 
     68 H68         1.6930   49.6880   17.5460 H         1 UNK         0.0000 
     69 H69        -3.2484   49.6705   17.7559 H         1 UNK         0.0000 
     70 H70         2.1741   47.4389   14.7183 H         1 UNK         0.0000 
     71 H71         2.3044   49.0857   15.3235 H         1 UNK         0.0000 
     72 H72         2.3445   47.6973   16.4491 H         1 UNK         0.0000 
     73 H73        -1.2698   48.4981   26.7012 H         1 UNK         0.0000 
@<TRIPOS>BOND
     1    1    2 1    
     2    1   40 1    
     3    1   41 1    
     4    1   42 1    
     5    2    3 1    
     6    2   43 1    
     7    2   44 1    
     8    3    4 1    
     9    4    9 ar   
    10    4    5 ar   
    11    5    6 ar   
    12    5   45 1    
    13    6    7 ar   
    14    6   46 1    
    15    7    8 ar   
    16    7   47 1    
    17    8    9 ar   
    18    8   10 1    
    19    9   48 1    
    20   10   11 1    
    21   10   49 1    
    22   10   50 1    
    23   11   12 1    
    24   11   51 1    
    25   11   52 1    
    26   12   13 am   BACKBONE|DICT|INTERRES
    27   12   53 1    
    28   13   14 2    
    29   13   15 1    
    30   15   16 1    
    31   15   20 1    
    32   15   17 1    
    33   17   18 1    
    34   17   54 1    
    35   17   55 1    
    36   18   19 1    
    37   18   26 am   BACKBONE|DICT|INTERRES
    38   19   20 1    
    39   19   56 1    
    40   19   57 1    
    41   20   25 1    
    42   20   21 1    
    43   21   22 1    
    44   21   58 1    
    45   21   59 1    
    46   22   23 1    
    47   22   60 1    
    48   22   61 1    
    49   23   24 1    
    50   23   62 1    
    51   23   73 1    
    52   24   25 1    
    53   24   63 1    
    54   24   64 1    
    55   25   65 1    
    56   25   66 1    
    57   26   27 2    
    58   26   28 1    
    59   28   33 ar   
    60   28   29 ar   
    61   29   30 ar   
    62   29   67 1    
    63   30   31 ar   
    64   30   68 1    
    65   31   32 ar   
    66   31   38 1    
    67   32   33 ar   
    68   32   34 1    
    69   33   69 1    
    70   34   35 1    
    71   34   36 1    
    72   34   37 1    
    73   38   39 1    
    74   39   70 1    
    75   39   71 1    
    76   39   72 1    
@<TRIPOS>SUBSTRUCTURE
     1 UNK         1 GROUP             0       ****    0 ROOT    
