ZINC14254139_5080
                    3D
 Schrodinger Suite 2024-2.
 65 68  0  0  1  0            999 V2000
   10.0641   55.2552   17.0671 C   0  0  0  0  0  0
    8.7190   55.8942   16.6850 C   0  0  0  0  0  0
    7.6474   55.3393   17.4450 O   0  0  0  0  0  0
    7.3775   55.7617   18.7122 C   0  0  0  0  0  0
    7.9762   56.6819   19.2724 O   0  0  0  0  0  0
    6.2807   54.9955   19.3445 C   0  0  0  0  0  0
    6.0990   54.8973   20.7637 C   0  0  0  0  0  0
    4.9546   54.1398   21.1015 C   0  0  0  0  0  0
    4.1667   53.4877   19.7105 S   0  0  0  0  0  0
    5.2772   54.2838   18.6490 C   0  0  0  0  0  0
    5.1668   54.1653   17.2642 N   0  0  0  0  0  0
    4.1672   53.6376   16.5219 C   0  0  0  0  0  0
    3.0743   53.2858   16.9603 O   0  0  0  0  0  0
    4.3941   53.5134   15.0061 C   0  0  0  0  0  0
    6.2591   53.2033   13.1604 C   0  0  1  0  0  0
    7.7925   53.0978   13.2968 C   0  0  0  0  0  0
    7.9743   52.2235   14.5552 C   0  0  0  0  0  0
    6.5238   51.9307   14.9812 C   0  0  2  0  0  0
    5.8315   50.9749   13.9835 C   0  0  0  0  0  0
    5.6379   51.8549   12.7357 C   0  0  0  0  0  0
    4.4073   53.7431   22.3845 C   0  0  0  0  0  0
    3.6270   52.7959   22.4727 O   0  0  0  0  0  0
    4.8000   54.4964   23.4317 N   0  0  0  0  0  0
    4.5283   54.2825   24.7904 C   0  0  0  0  0  0
    5.6373   54.3144   25.6417 C   0  0  0  0  0  0
    5.4829   54.1338   27.0140 C   0  0  0  0  0  0
    4.2138   53.9343   27.5563 C   0  0  0  0  0  0
    3.0993   53.9171   26.7149 C   0  0  0  0  0  0
    3.2354   54.0964   25.3335 C   0  0  0  0  0  0
    1.9665   54.1344   24.4910 C   0  0  0  0  0  0
    4.0521   53.7337   29.0519 C   0  0  0  0  0  0
    7.1030   55.4480   21.7819 C   0  0  0  0  0  0
   10.8676   55.6402   16.4402 H   0  0  0  0  0  0
   10.3263   55.4725   18.1023 H   0  0  0  0  0  0
   10.0389   54.1711   16.9515 H   0  0  0  0  0  0
    8.5178   55.6985   15.6313 H   0  0  0  0  0  0
    8.7592   56.9799   16.7980 H   0  0  0  0  0  0
    5.9341   54.5931   16.7710 H   0  0  0  0  0  0
    4.0842   54.4231   14.4891 H   0  0  0  0  0  0
    3.8232   52.6737   14.6078 H   0  0  0  0  0  0
    5.9059   54.0808   12.6147 H   0  0  0  0  0  0
    8.2441   54.0831   13.4394 H   0  0  0  0  0  0
    8.2569   52.6542   12.4135 H   0  0  0  0  0  0
    8.5105   52.7658   15.3380 H   0  0  0  0  0  0
    8.5370   51.3079   14.3513 H   0  0  0  0  0  0
    6.3940   51.6964   16.0416 H   0  0  0  0  0  0
    6.4403   50.0960   13.7621 H   0  0  0  0  0  0
    4.8786   50.6166   14.3783 H   0  0  0  0  0  0
    4.5797   51.9641   12.4912 H   0  0  0  0  0  0
    6.1311   51.4372   11.8563 H   0  0  0  0  0  0
    5.4907   55.2025   23.2343 H   0  0  0  0  0  0
    6.6281   54.4625   25.2416 H   0  0  0  0  0  0
    6.3512   54.1489   27.6576 H   0  0  0  0  0  0
    2.1153   53.7721   27.1373 H   0  0  0  0  0  0
    1.1147   54.4723   25.0727 H   0  0  0  0  0  0
    2.0610   54.8346   23.6597 H   0  0  0  0  0  0
    1.7293   53.1429   24.1028 H   0  0  0  0  0  0
    3.0304   53.4628   29.3194 H   0  0  0  0  0  0
    4.7069   52.9270   29.3880 H   0  0  0  0  0  0
    4.3383   54.6406   29.5870 H   0  0  0  0  0  0
    6.9085   56.4945   22.0201 H   0  0  0  0  0  0
    7.1662   54.8739   22.7044 H   0  0  0  0  0  0
    8.1282   55.3938   21.4115 H   0  0  0  0  0  0
    5.8920   53.2929   14.6483 N   0  3  2  0  0  0
    6.4565   54.0193   15.0617 H   0  0  0  0  0  0
  1  2  1  0  0  0
  1 33  1  0  0  0
  1 34  1  0  0  0
  1 35  1  0  0  0
  2  3  1  0  0  0
  2 36  1  0  0  0
  2 37  1  0  0  0
  3  4  1  0  0  0
  4  5  2  0  0  0
  4  6  1  0  0  0
  6 10  2  0  0  0
  6  7  1  0  0  0
  7  8  2  0  0  0
  7 32  1  0  0  0
  8  9  1  0  0  0
  8 21  1  0  0  0
  9 10  1  0  0  0
 10 11  1  0  0  0
 11 12  1  0  0  0
 11 38  1  0  0  0
 12 13  2  0  0  0
 12 14  1  0  0  0
 14 39  1  0  0  0
 14 40  1  0  0  0
 14 64  1  0  0  0
 15 20  1  0  0  0
 15 16  1  0  0  0
 15 41  1  0  0  0
 15 64  1  0  0  0
 16 17  1  0  0  0
 16 42  1  0  0  0
 16 43  1  0  0  0
 17 18  1  0  0  0
 17 44  1  0  0  0
 17 45  1  0  0  0
 18 19  1  0  0  0
 18 46  1  0  0  0
 18 64  1  0  0  0
 19 20  1  0  0  0
 19 47  1  0  0  0
 19 48  1  0  0  0
 20 49  1  0  0  0
 20 50  1  0  0  0
 21 22  2  0  0  0
 21 23  1  0  0  0
 23 24  1  0  0  0
 23 51  1  0  0  0
 24 29  2  0  0  0
 24 25  1  0  0  0
 25 26  2  0  0  0
 25 52  1  0  0  0
 26 27  1  0  0  0
 26 53  1  0  0  0
 27 28  2  0  0  0
 27 31  1  0  0  0
 28 29  1  0  0  0
 28 54  1  0  0  0
 29 30  1  0  0  0
 30 55  1  0  0  0
 30 56  1  0  0  0
 30 57  1  0  0  0
 31 58  1  0  0  0
 31 59  1  0  0  0
 31 60  1  0  0  0
 32 61  1  0  0  0
 32 62  1  0  0  0
 32 63  1  0  0  0
 64 65  1  0  0  0
M  CHG  1  64   1
M  END
> <i_i_glide_confnum>
88

> <i_i_glide_lignum>
5081

> <i_i_glide_posenum>
391

> <i_i_glide_rotatable_bonds>
10

> <i_m_Source_File_Index>
5974

> <b_m_subgroup_collapsed>
0

> <r_i_docking_score>
-4.38156

> <r_i_glide_ecoul>
-1.21091

> <r_i_glide_eff_state_penalty>
0

> <r_i_glide_einternal>
11.8267

> <r_i_glide_emodel>
-44.4575

> <r_i_glide_energy>
-36.8422

> <r_i_glide_erotb>
0.7299

> <r_i_glide_esite>
-0.0383275

> <r_i_glide_evdw>
-35.6313

> <r_i_glide_gscore>
-4.38156

> <r_i_glide_hbond>
-0.0224458

> <r_i_glide_ligand_efficiency>
-0.132775

> <r_i_glide_ligand_efficiency_ln>
-0.974437

> <r_i_glide_ligand_efficiency_sa>
-0.425879

> <r_i_glide_lipo>
-2.47802

> <r_i_glide_metal>
0

> <r_i_glide_rewards>
-0.609468

> <s_i_glide_gridfile>
wee1_glide-grid

> <s_m_Source_File>
wee1_decoys_glide_SP.sdf

> <s_m_Source_Path>
/Users/zhangxujun/Desktop

> <s_m_entry_id>
6249

> <s_m_entry_name>
wee1_decoys_glide_SP.5974

> <s_m_subgroup_title>
wee1_decoys_glide_SP

> <s_m_subgroupid>
wee1_decoys_glide_SP


$$$$
