@<TRIPOS>MOLECULE
ZINC20532302_1126
63   66    1
SMALL
USER_CHARGES


@<TRIPOS>ATOM
      1 C1          1.8568   49.6684   22.3840 C.3       1 UNK         0.0000 
      2 C2          2.5759   50.7873   21.6786 C.2       1 UNK         0.0000 
      3 C3          3.1815   50.9116   20.4413 C.2       1 UNK         0.0000 
      4 C4          3.6737   52.2136   20.3616 C.2       1 UNK         0.0000 
      5 C5          3.3463   52.8377   21.5537 C.2       1 UNK         0.0000 
      6 O6          2.6803   51.9636   22.3490 O.3       1 UNK         0.0000 
      7 C7          3.5223   54.2484   22.0713 C.3       1 UNK         0.0000 
      8 N8          4.8362   54.4711   22.7432 N.am      1 UNK         0.0000 
      9 C9          4.9002   54.1678   24.2177 C.3       1 UNK         0.0000 
     10 C10         3.5325   53.9415   24.9341 C.3       1 UNK         0.0000 
     11 C11         3.5958   53.5356   26.4099 C.3       1 UNK         0.0000 
     12 N12         4.4191   54.5745   27.1850 N.4       1 UNK         0.0000 
     13 C13         5.8550   54.6194   26.6225 C.3       1 UNK         0.0000 
     14 C14         5.8125   55.0555   25.1399 C.3       1 UNK         0.0000 
     15 C15         4.4311   54.2340   28.6968 C.3       1 UNK         0.0000 
     16 C16         3.0472   54.1775   29.3361 C.ar      1 UNK         0.0000 
     17 C17         2.4710   52.9446   29.6598 C.ar      1 UNK         0.0000 
     18 C18         1.2028   52.8959   30.2343 C.ar      1 UNK         0.0000 
     19 C19         0.5216   54.0811   30.4977 C.ar      1 UNK         0.0000 
     20 C20         1.1000   55.3132   30.1950 C.ar      1 UNK         0.0000 
     21 C21         2.3545   55.3610   29.6023 C.ar      1 UNK         0.0000 
     22 C22         5.9554   54.7885   22.0086 C.2       1 UNK         0.0000 
     23 O23         7.0809   54.8215   22.4990 O.2       1 UNK         0.0000 
     24 N24         5.7348   55.1539   20.7236 N.am      1 UNK         0.0000 
     25 C25         6.6049   55.7113   19.7724 C.ar      1 UNK         0.0000 
     26 C26         8.0071   55.6965   19.8520 C.ar      1 UNK         0.0000 
     27 C27         8.7711   56.2805   18.8441 C.ar      1 UNK         0.0000 
     28 C28         8.1493   56.8856   17.7534 C.ar      1 UNK         0.0000 
     29 C29         6.7536   56.9039   17.6558 C.ar      1 UNK         0.0000 
     30 C30         5.9927   56.3091   18.6669 C.ar      1 UNK         0.0000 
     31 C31         6.0631   57.5616   16.4626 C.3       1 UNK         0.0000 
     32 F32         5.8189   56.6290   15.5436 F         1 UNK         0.0000 
     33 F33         6.8253   58.5070   15.9118 F         1 UNK         0.0000 
     34 F34         4.9035   58.1139   16.8216 F         1 UNK         0.0000 
     35 H35         1.7772   48.7827   21.7568 H         1 UNK         0.0000 
     36 H36         2.3767   49.3715   23.2920 H         1 UNK         0.0000 
     37 H37         0.8456   49.9561   22.6682 H         1 UNK         0.0000 
     38 H38         3.2596   50.1565   19.6716 H         1 UNK         0.0000 
     39 H39         4.1945   52.6454   19.5191 H         1 UNK         0.0000 
     40 H40         2.6838   54.5750   22.6857 H         1 UNK         0.0000 
     41 H41         3.4176   54.8974   21.2097 H         1 UNK         0.0000 
     42 H42         5.3826   53.1925   24.2322 H         1 UNK         0.0000 
     43 H43         2.9457   54.8583   24.8700 H         1 UNK         0.0000 
     44 H44         2.9626   53.1643   24.4345 H         1 UNK         0.0000 
     45 H45         4.0627   52.5702   26.5883 H         1 UNK         0.0000 
     46 H46         2.5864   53.5388   26.8216 H         1 UNK         0.0000 
     47 H47         6.2971   53.6271   26.7486 H         1 UNK         0.0000 
     48 H48         6.4117   55.3432   27.2226 H         1 UNK         0.0000 
     49 H49         6.8506   55.0476   24.8099 H         1 UNK         0.0000 
     50 H50         5.4893   56.0962   25.0958 H         1 UNK         0.0000 
     51 H51         4.9577   53.2799   28.7852 H         1 UNK         0.0000 
     52 H52         5.0461   55.0041   29.1680 H         1 UNK         0.0000 
     53 H53         2.9919   52.0223   29.4500 H         1 UNK         0.0000 
     54 H54         0.7431   51.9478   30.4744 H         1 UNK         0.0000 
     55 H55        -0.4612   54.0377   30.9424 H         1 UNK         0.0000 
     56 H56         0.5731   56.2300   30.4156 H         1 UNK         0.0000 
     57 H57         2.7853   56.3198   29.3545 H         1 UNK         0.0000 
     58 H58         4.7786   55.0856   20.4114 H         1 UNK         0.0000 
     59 H59         8.5299   55.2283   20.6703 H         1 UNK         0.0000 
     60 H60         9.8494   56.2598   18.9069 H         1 UNK         0.0000 
     61 H61         8.7583   57.3321   16.9810 H         1 UNK         0.0000 
     62 H62         4.9143   56.3208   18.5885 H         1 UNK         0.0000 
     63 H63         3.9924   55.4848   27.0762 H         1 UNK         0.0000 
@<TRIPOS>BOND
     1    1    2 1    
     2    1   35 1    
     3    1   36 1    
     4    1   37 1    
     5    2    6 1    
     6    2    3 2    
     7    3    4 1    
     8    3   38 1    
     9    4    5 2    
    10    4   39 1    
    11    5    6 1    
    12    5    7 1    
    13    7    8 1    
    14    7   40 1    
    15    7   41 1    
    16    8    9 1    
    17    8   22 am   BACKBONE|DICT|INTERRES
    18    9   14 1    
    19    9   10 1    
    20    9   42 1    
    21   10   11 1    
    22   10   43 1    
    23   10   44 1    
    24   11   12 1    
    25   11   45 1    
    26   11   46 1    
    27   12   13 1    
    28   12   15 1    
    29   12   63 1    
    30   13   14 1    
    31   13   47 1    
    32   13   48 1    
    33   14   49 1    
    34   14   50 1    
    35   15   16 1    
    36   15   51 1    
    37   15   52 1    
    38   16   21 ar   
    39   16   17 ar   
    40   17   18 ar   
    41   17   53 1    
    42   18   19 ar   
    43   18   54 1    
    44   19   20 ar   
    45   19   55 1    
    46   20   21 ar   
    47   20   56 1    
    48   21   57 1    
    49   22   23 2    
    50   22   24 am   BACKBONE|DICT|INTERRES
    51   24   25 1    
    52   24   58 1    
    53   25   30 ar   
    54   25   26 ar   
    55   26   27 ar   
    56   26   59 1    
    57   27   28 ar   
    58   27   60 1    
    59   28   29 ar   
    60   28   61 1    
    61   29   30 ar   
    62   29   31 1    
    63   30   62 1    
    64   31   32 1    
    65   31   33 1    
    66   31   34 1    
@<TRIPOS>SUBSTRUCTURE
     1 UNK         1 GROUP             0       ****    0 ROOT    
