@<TRIPOS>MOLECULE
ZINC20728439_205
51   53    1
SMALL
USER_CHARGES


@<TRIPOS>ATOM
      1 C1          0.3692   52.7144   31.2005 C.3       1 UNK         0.0000 
      2 O2          0.9242   53.0684   29.9400 O.3       1 UNK         0.0000 
      3 C3          2.0785   52.4959   29.4967 C.2       1 UNK         0.0000 
      4 O4          2.7620   51.6974   30.1400 O.2       1 UNK         0.0000 
      5 C5          2.5271   53.0059   28.1341 C.3       1 UNK         0.0000 
      6 H6          3.2890   52.3268   27.7444 H         1 UNK         0.0000 
      7 C7          3.1153   54.4401   28.2426 C.3       1 UNK         0.0000 
      8 C8          4.4909   54.4847   28.9493 C.3       1 UNK         0.0000 
      9 S9          5.8753   53.6865   28.0818 S.3       1 UNK         0.0000 
     10 C10         5.9762   54.6420   26.5461 C.3       1 UNK         0.0000 
     11 N11         1.3522   52.9310   27.2471 N.am      1 UNK         0.0000 
     12 C12         1.3912   52.8489   25.9018 C.2       1 UNK         0.0000 
     13 O13         2.3501   53.2968   25.2687 O.2       1 UNK         0.0000 
     14 N14         0.2912   52.2968   25.3038 N.am      1 UNK         0.0000 
     15 C15         0.2535   52.2385   23.8156 C.3       1 UNK         0.0000 
     16 C16         0.8585   50.8907   23.3303 C.3       1 UNK         0.0000 
     17 C17         0.1511   49.7648   24.0657 C.ar      1 UNK         0.0000 
     18 C18        -0.4803   49.9816   25.2818 C.ar      1 UNK         0.0000 
     19 N19        -0.9023   48.7448   25.6817 N.pl3     1 UNK         0.0000 
     20 H20        -1.3030   48.4972   26.5884 H         1 UNK         0.0000 
     21 C21        -0.5897   47.9017   24.6513 C.ar      1 UNK         0.0000 
     22 N22         0.0317   48.5080   23.6683 N.2       1 UNK         0.0000 
     23 C23        -0.6129   51.3190   26.0020 C.3       1 UNK         0.0000 
     24 H24        -0.2256   51.1524   27.0074 H         1 UNK         0.0000 
     25 C25        -2.0791   51.7210   26.2284 C.ar      1 UNK         0.0000 
     26 C26        -2.8672   50.9831   27.1211 C.ar      1 UNK         0.0000 
     27 C27        -4.2118   51.2955   27.3017 C.ar      1 UNK         0.0000 
     28 C28        -4.7807   52.3427   26.5808 C.ar      1 UNK         0.0000 
     29 C29        -4.0151   53.0759   25.6798 C.ar      1 UNK         0.0000 
     30 C30        -2.6708   52.7613   25.5039 C.ar      1 UNK         0.0000 
     31 Br31       -6.6118   52.7893   26.8419 Br        1 UNK         0.0000 
     32 H32        -0.4601   53.3788   31.4425 H         1 UNK         0.0000 
     33 H33        -0.0180   51.6967   31.1836 H         1 UNK         0.0000 
     34 H34         1.1048   52.7921   32.0025 H         1 UNK         0.0000 
     35 H35         3.2127   54.8760   27.2491 H         1 UNK         0.0000 
     36 H36         2.4214   55.1029   28.7629 H         1 UNK         0.0000 
     37 H37         4.7805   55.5054   29.1743 H         1 UNK         0.0000 
     38 H38         4.4129   54.0079   29.9255 H         1 UNK         0.0000 
     39 H39         5.0657   54.5324   25.9573 H         1 UNK         0.0000 
     40 H40         6.1373   55.6962   26.7634 H         1 UNK         0.0000 
     41 H41         6.8096   54.2818   25.9430 H         1 UNK         0.0000 
     42 H42         0.4627   52.8234   27.7126 H         1 UNK         0.0000 
     43 H43        -0.7852   52.2976   23.4943 H         1 UNK         0.0000 
     44 H44         0.7025   53.1233   23.3605 H         1 UNK         0.0000 
     45 H45         0.7424   50.7940   22.2507 H         1 UNK         0.0000 
     46 H46         1.9317   50.8677   23.5231 H         1 UNK         0.0000 
     47 H47        -0.8181   46.8513   24.7328 H         1 UNK         0.0000 
     48 H48        -2.4477   50.1576   27.6791 H         1 UNK         0.0000 
     49 H49        -4.8083   50.7228   27.9969 H         1 UNK         0.0000 
     50 H50        -4.4624   53.8813   25.1165 H         1 UNK         0.0000 
     51 H51        -2.0990   53.3227   24.7865 H         1 UNK         0.0000 
@<TRIPOS>BOND
     1    1    2 1    
     2    1   32 1    
     3    1   33 1    
     4    1   34 1    
     5    2    3 1    
     6    3    4 2    
     7    3    5 1    
     8    5    6 1    
     9    5    7 1    
    10    5   11 1    
    11    7    8 1    
    12    7   35 1    
    13    7   36 1    
    14    8    9 1    
    15    8   37 1    
    16    8   38 1    
    17    9   10 1    
    18   10   39 1    
    19   10   40 1    
    20   10   41 1    
    21   11   12 am   BACKBONE|DICT|INTERRES
    22   11   42 1    
    23   12   13 2    
    24   12   14 am   BACKBONE|DICT|INTERRES
    25   14   23 1    
    26   14   15 1    
    27   15   16 1    
    28   15   43 1    
    29   15   44 1    
    30   16   17 1    
    31   16   45 1    
    32   16   46 1    
    33   17   22 ar   
    34   17   18 ar   
    35   18   19 ar   
    36   18   23 1    
    37   19   20 1    
    38   19   21 ar   
    39   21   22 ar   
    40   21   47 1    
    41   23   24 1    
    42   23   25 1    
    43   25   30 ar   
    44   25   26 ar   
    45   26   27 ar   
    46   26   48 1    
    47   27   28 ar   
    48   27   49 1    
    49   28   29 ar   
    50   28   31 1    
    51   29   30 ar   
    52   29   50 1    
    53   30   51 1    
@<TRIPOS>SUBSTRUCTURE
     1 UNK         1 GROUP             0       ****    0 ROOT    
