@<TRIPOS>MOLECULE
ZINC33009757_4439
54   57    1
SMALL
USER_CHARGES


@<TRIPOS>ATOM
      1 C1          1.1044   55.8348   30.8110 C.ar      1 UNK         0.0000 
      2 C2          0.4106   54.6261   30.8807 C.ar      1 UNK         0.0000 
      3 C3          0.4376   53.7532   29.7961 C.ar      1 UNK         0.0000 
      4 C4          1.1695   54.0962   28.6501 C.ar      1 UNK         0.0000 
      5 C5          1.8848   55.2943   28.6059 C.ar      1 UNK         0.0000 
      6 C6          1.8421   56.1702   29.6828 C.ar      1 UNK         0.0000 
      7 N7          1.2741   53.2816   27.5162 N.am      1 UNK         0.0000 
      8 C8          0.4086   52.3584   27.0583 C.2       1 UNK         0.0000 
      9 O9         -0.6674   52.0659   27.5775 O.2       1 UNK         0.0000 
     10 N10         0.9002   51.8388   25.9209 N.am      1 UNK         0.0000 
     11 C11         0.3988   50.8372   25.0668 C.ar      1 UNK         0.0000 
     12 C12        -0.4781   49.8515   25.5521 C.ar      1 UNK         0.0000 
     13 C13        -0.9595   48.8380   24.7245 C.ar      1 UNK         0.0000 
     14 C14        -0.5541   48.8107   23.3861 C.ar      1 UNK         0.0000 
     15 C15         0.3167   49.7793   22.8977 C.ar      1 UNK         0.0000 
     16 C16         0.8135   50.8132   23.7073 C.ar      1 UNK         0.0000 
     17 N17         1.7093   51.7478   23.1212 N.pl3     1 UNK         0.0000 
     18 C18         2.2716   51.6572   21.7666 C.3       1 UNK         0.0000 
     19 C19         3.4081   52.6671   21.6457 C.3       1 UNK         0.0000 
     20 C20         2.9627   53.7697   22.5763 C.3       1 UNK         0.0000 
     21 C21         2.2321   53.0054   23.6754 C.3       1 UNK         0.0000 
     22 N22        -1.8492   47.9237   25.3178 N.am      1 UNK         0.0000 
     23 C23        -2.5343   46.8968   24.7680 C.2       1 UNK         0.0000 
     24 O24        -2.3887   46.4716   23.6198 O.2       1 UNK         0.0000 
     25 C25        -3.5896   46.2824   25.6547 C.ar      1 UNK         0.0000 
     26 C26        -3.4073   46.1913   27.0407 C.ar      1 UNK         0.0000 
     27 C27        -4.4191   45.6966   27.8507 C.ar      1 UNK         0.0000 
     28 C28        -5.5995   45.2330   27.2837 C.ar      1 UNK         0.0000 
     29 C29        -5.7845   45.2806   25.9047 C.ar      1 UNK         0.0000 
     30 C30        -4.7840   45.8093   25.0917 C.ar      1 UNK         0.0000 
     31 F31        -6.5672   44.7278   28.0810 F         1 UNK         0.0000 
     32 H32         1.1045   56.5113   31.6535 H         1 UNK         0.0000 
     33 H33        -0.1345   54.3618   31.7754 H         1 UNK         0.0000 
     34 H34        -0.0947   52.8151   29.8651 H         1 UNK         0.0000 
     35 H35         2.4646   55.5607   27.7343 H         1 UNK         0.0000 
     36 H36         2.3805   57.1047   29.6497 H         1 UNK         0.0000 
     37 H37         2.0755   53.4760   26.9381 H         1 UNK         0.0000 
     38 H38         1.6850   52.3302   25.5240 H         1 UNK         0.0000 
     39 H39        -0.7768   49.8500   26.5916 H         1 UNK         0.0000 
     40 H40        -0.8952   48.0542   22.6985 H         1 UNK         0.0000 
     41 H41         0.5978   49.7104   21.8581 H         1 UNK         0.0000 
     42 H42         2.6849   50.6577   21.6220 H         1 UNK         0.0000 
     43 H43         1.5053   51.8259   21.0079 H         1 UNK         0.0000 
     44 H44         4.3557   52.2246   21.9567 H         1 UNK         0.0000 
     45 H45         3.5341   53.0172   20.6201 H         1 UNK         0.0000 
     46 H46         2.2891   54.4699   22.0820 H         1 UNK         0.0000 
     47 H47         3.8036   54.3467   22.9629 H         1 UNK         0.0000 
     48 H48         1.3934   53.6182   24.0093 H         1 UNK         0.0000 
     49 H49         2.9058   52.8296   24.5146 H         1 UNK         0.0000 
     50 H50        -2.0232   48.0969   26.3020 H         1 UNK         0.0000 
     51 H51        -2.4888   46.4968   27.5186 H         1 UNK         0.0000 
     52 H52        -4.2567   45.6546   28.9154 H         1 UNK         0.0000 
     53 H53        -6.7067   44.9197   25.4741 H         1 UNK         0.0000 
     54 H54        -4.9530   45.8670   24.0250 H         1 UNK         0.0000 
@<TRIPOS>BOND
     1    1    6 ar   
     2    1    2 ar   
     3    1   32 1    
     4    2    3 ar   
     5    2   33 1    
     6    3    4 ar   
     7    3   34 1    
     8    4    5 ar   
     9    4    7 1    
    10    5    6 ar   
    11    5   35 1    
    12    6   36 1    
    13    7    8 am   BACKBONE|DICT|INTERRES
    14    7   37 1    
    15    8    9 2    
    16    8   10 am   BACKBONE|DICT|INTERRES
    17   10   11 1    
    18   10   38 1    
    19   11   16 ar   
    20   11   12 ar   
    21   12   13 ar   
    22   12   39 1    
    23   13   14 ar   
    24   13   22 1    
    25   14   15 ar   
    26   14   40 1    
    27   15   16 ar   
    28   15   41 1    
    29   16   17 1    
    30   17   21 1    
    31   17   18 1    
    32   18   19 1    
    33   18   42 1    
    34   18   43 1    
    35   19   20 1    
    36   19   44 1    
    37   19   45 1    
    38   20   21 1    
    39   20   46 1    
    40   20   47 1    
    41   21   48 1    
    42   21   49 1    
    43   22   23 am   BACKBONE|DICT|INTERRES
    44   22   50 1    
    45   23   24 2    
    46   23   25 1    
    47   25   30 ar   
    48   25   26 ar   
    49   26   27 ar   
    50   26   51 1    
    51   27   28 ar   
    52   27   52 1    
    53   28   29 ar   
    54   28   31 1    
    55   29   30 ar   
    56   29   53 1    
    57   30   54 1    
@<TRIPOS>SUBSTRUCTURE
     1 UNK         1 GROUP             0       ****    0 ROOT    
