@<TRIPOS>MOLECULE
ZINC43461221_4733
32   34    1
SMALL
USER_CHARGES


@<TRIPOS>ATOM
      1 C1          6.5956   55.0350   25.3301 C.ar      1 UNK         0.0000 
      2 C2          6.4787   54.8964   26.7088 C.ar      1 UNK         0.0000 
      3 C3          5.2889   54.4394   27.2718 C.ar      1 UNK         0.0000 
      4 C4          4.2139   54.1170   26.4299 C.ar      1 UNK         0.0000 
      5 C5          4.2996   54.2498   25.0283 C.ar      1 UNK         0.0000 
      6 C6          5.5235   54.7133   24.5058 C.ar      1 UNK         0.0000 
      7 C7          3.1447   53.9007   24.1330 C.2       1 UNK         0.0000 
      8 S8          3.2515   53.6949   22.4830 S.2       1 UNK         0.0000 
      9 N9          1.9577   53.6965   24.7515 N.pl3     1 UNK         0.0000 
     10 C10         5.2147   54.3266   28.7946 C.3       1 UNK         0.0000 
     11 N11         4.0500   53.5987   29.3221 N.pl3     1 UNK         0.0000 
     12 C12         3.9754   52.2694   29.5050 C.ar      1 UNK         0.0000 
     13 N13         2.8093   51.8792   29.9497 N.2       1 UNK         0.0000 
     14 C14         2.0883   53.0098   30.0509 C.ar      1 UNK         0.0000 
     15 C15         2.8346   54.1126   29.6789 C.ar      1 UNK         0.0000 
     16 N16         2.4036   55.3969   29.6640 N.ar      1 UNK         0.0000 
     17 C17         1.1348   55.4950   30.0881 C.ar      1 UNK         0.0000 
     18 N18         0.3044   54.5261   30.4951 N.ar      1 UNK         0.0000 
     19 C19         0.7582   53.2481   30.4678 C.ar      1 UNK         0.0000 
     20 N20        -0.0955   52.2368   30.8816 N.pl3     1 UNK         0.0000 
     21 H21         7.5076   55.3963   24.8820 H         1 UNK         0.0000 
     22 H22         7.3106   55.1502   27.3503 H         1 UNK         0.0000 
     23 H23         3.3029   53.7588   26.8823 H         1 UNK         0.0000 
     24 H24         5.6662   54.8449   23.4431 H         1 UNK         0.0000 
     25 H25         1.8809   53.7971   25.7516 H         1 UNK         0.0000 
     26 H26         1.1555   53.4302   24.2001 H         1 UNK         0.0000 
     27 H27         6.0965   53.8051   29.1675 H         1 UNK         0.0000 
     28 H28         5.1980   55.3062   29.2668 H         1 UNK         0.0000 
     29 H29         4.8184   51.6334   29.2769 H         1 UNK         0.0000 
     30 H30         0.7323   56.4974   30.1192 H         1 UNK         0.0000 
     31 H31         0.2642   51.2974   30.8961 H         1 UNK         0.0000 
     32 H32        -0.8939   52.4509   31.4739 H         1 UNK         0.0000 
@<TRIPOS>BOND
     1    1    6 ar   
     2    1    2 ar   
     3    1   21 1    
     4    2    3 ar   
     5    2   22 1    
     6    3    4 ar   
     7    3   10 1    
     8    4    5 ar   
     9    4   23 1    
    10    5    6 ar   
    11    5    7 1    
    12    6   24 1    
    13    7    8 2    
    14    7    9 1    
    15    9   25 1    
    16    9   26 1    
    17   10   11 1    
    18   10   27 1    
    19   10   28 1    
    20   11   15 ar   
    21   11   12 ar   
    22   12   13 ar   
    23   12   29 1    
    24   13   14 ar   
    25   14   19 ar   
    26   14   15 ar   
    27   15   16 ar   
    28   16   17 ar   
    29   17   18 ar   
    30   17   30 1    
    31   18   19 ar   
    32   19   20 1    
    33   20   31 1    
    34   20   32 1    
@<TRIPOS>SUBSTRUCTURE
     1 UNK         1 GROUP             0       ****    0 ROOT    
