@<TRIPOS>MOLECULE
ZINC65265874_2181
62   66    1
SMALL
USER_CHARGES


@<TRIPOS>ATOM
      1 C1          4.8329   54.1090   21.1944 C.3       1 UNK         0.0000 
      2 O2          5.4504   54.2495   22.4708 O.3       1 UNK         0.0000 
      3 C3          4.6725   54.1453   23.6065 C.ar      1 UNK         0.0000 
      4 C4          3.2723   54.0965   23.6052 C.ar      1 UNK         0.0000 
      5 C5          2.5748   53.9268   24.7979 C.ar      1 UNK         0.0000 
      6 C6          3.2559   53.7630   26.0153 C.ar      1 UNK         0.0000 
      7 C7          4.6500   53.9262   26.0136 C.ar      1 UNK         0.0000 
      8 C8          5.3473   54.1067   24.8227 C.ar      1 UNK         0.0000 
      9 C9          2.5747   53.3901   27.3292 C.2       1 UNK         0.0000 
     10 O10         3.1273   53.7194   28.3832 O.2       1 UNK         0.0000 
     11 N11         1.4525   52.6127   27.3541 N.am      1 UNK         0.0000 
     12 C12         1.0069   51.9831   28.5991 C.3       1 UNK         0.0000 
     13 C13        -0.3227   51.3441   28.2217 C.3       1 UNK         0.0000 
     14 C14        -0.2715   51.0143   26.7219 C.3       1 UNK         0.0000 
     15 C15         0.6640   52.1390   26.2109 C.3       1 UNK         0.0000 
     16 C16        -1.6563   51.0610   26.0808 C.2       1 UNK         0.0000 
     17 N17        -1.7561   51.1884   24.7470 N.pl3     1 UNK         0.0000 
     18 C18        -0.7402   51.0387   23.7632 C.ar      1 UNK         0.0000 
     19 C19        -0.7670   51.8499   22.6259 C.ar      1 UNK         0.0000 
     20 C20         0.2420   51.7493   21.6683 C.ar      1 UNK         0.0000 
     21 C21         1.2703   50.8244   21.8357 C.ar      1 UNK         0.0000 
     22 C22         1.2783   49.9880   22.9506 C.ar      1 UNK         0.0000 
     23 C23         0.2713   50.0684   23.9194 C.ar      1 UNK         0.0000 
     24 C24         0.2588   49.1361   25.1339 C.3       1 UNK         0.0000 
     25 N25         0.3044   49.6967   26.4816 N.3       1 UNK         0.0000 
     26 N26        -2.7631   50.9292   26.8306 N.pl3     1 UNK         0.0000 
     27 C27        -4.1825   51.0662   26.4553 C.3       1 UNK         0.0000 
     28 C28        -4.4497   52.4390   25.8023 C.3       1 UNK         0.0000 
     29 C29        -4.9982   52.1363   24.4030 C.3       1 UNK         0.0000 
     30 C30        -5.5572   50.7139   24.4905 C.3       1 UNK         0.0000 
     31 C31        -4.6060   49.9849   25.4430 C.3       1 UNK         0.0000 
     32 H32         5.5944   54.1775   20.4160 H         1 UNK         0.0000 
     33 H33         4.1027   54.8966   21.0082 H         1 UNK         0.0000 
     34 H34         4.3418   53.1399   21.0928 H         1 UNK         0.0000 
     35 H35         2.7098   54.1777   22.6878 H         1 UNK         0.0000 
     36 H36         1.5010   53.9212   24.7328 H         1 UNK         0.0000 
     37 H37         5.2182   53.8424   26.9303 H         1 UNK         0.0000 
     38 H38         6.4252   54.1720   24.8368 H         1 UNK         0.0000 
     39 H39         1.7198   51.2070   28.8811 H         1 UNK         0.0000 
     40 H40         0.8989   52.6975   29.4162 H         1 UNK         0.0000 
     41 H41        -0.5687   50.4968   28.8573 H         1 UNK         0.0000 
     42 H42        -1.0908   52.0957   28.4024 H         1 UNK         0.0000 
     43 H43         0.0177   52.9338   25.8464 H         1 UNK         0.0000 
     44 H44         1.3155   51.7540   25.4283 H         1 UNK         0.0000 
     45 H45        -1.5544   52.5771   22.4912 H         1 UNK         0.0000 
     46 H46         0.2344   52.3908   20.7978 H         1 UNK         0.0000 
     47 H47         2.0565   50.7507   21.0983 H         1 UNK         0.0000 
     48 H48         2.0814   49.2755   23.0658 H         1 UNK         0.0000 
     49 H49        -0.6316   48.5103   25.0521 H         1 UNK         0.0000 
     50 H50         1.0976   48.4444   25.0602 H         1 UNK         0.0000 
     51 H51        -0.1784   49.0343   27.0971 H         1 UNK         0.0000 
     52 H52        -2.5891   50.6958   27.8003 H         1 UNK         0.0000 
     53 H53        -4.8067   50.9749   27.3465 H         1 UNK         0.0000 
     54 H54        -5.2010   52.9743   26.3840 H         1 UNK         0.0000 
     55 H55        -3.5741   53.0905   25.7598 H         1 UNK         0.0000 
     56 H56        -5.7565   52.8549   24.0887 H         1 UNK         0.0000 
     57 H57        -4.1928   52.1780   23.6710 H         1 UNK         0.0000 
     58 H58        -6.5643   50.7332   24.9103 H         1 UNK         0.0000 
     59 H59        -5.6215   50.2302   23.5150 H         1 UNK         0.0000 
     60 H60        -3.7659   49.5716   24.8843 H         1 UNK         0.0000 
     61 H61        -5.0919   49.1413   25.9362 H         1 UNK         0.0000 
     62 H62        -2.6660   51.4249   24.3789 H         1 UNK         0.0000 
@<TRIPOS>BOND
     1    1    2 1    
     2    1   32 1    
     3    1   33 1    
     4    1   34 1    
     5    2    3 1    
     6    3    8 ar   
     7    3    4 ar   
     8    4    5 ar   
     9    4   35 1    
    10    5    6 ar   
    11    5   36 1    
    12    6    7 ar   
    13    6    9 1    
    14    7    8 ar   
    15    7   37 1    
    16    8   38 1    
    17    9   10 2    
    18    9   11 am   BACKBONE|DICT|INTERRES
    19   11   15 1    
    20   11   12 1    
    21   12   13 1    
    22   12   39 1    
    23   12   40 1    
    24   13   14 1    
    25   13   41 1    
    26   13   42 1    
    27   14   25 1    
    28   14   15 1    
    29   14   16 1    
    30   15   43 1    
    31   15   44 1    
    32   16   17 1    
    33   16   26 2    
    34   17   18 1    
    35   17   62 1    
    36   18   23 ar   
    37   18   19 ar   
    38   19   20 ar   
    39   19   45 1    
    40   20   21 ar   
    41   20   46 1    
    42   21   22 ar   
    43   21   47 1    
    44   22   23 ar   
    45   22   48 1    
    46   23   24 1    
    47   24   25 1    
    48   24   49 1    
    49   24   50 1    
    50   25   51 1    
    51   26   27 1    
    52   26   52 1    
    53   27   31 1    
    54   27   28 1    
    55   27   53 1    
    56   28   29 1    
    57   28   54 1    
    58   28   55 1    
    59   29   30 1    
    60   29   56 1    
    61   29   57 1    
    62   30   31 1    
    63   30   58 1    
    64   30   59 1    
    65   31   60 1    
    66   31   61 1    
@<TRIPOS>SUBSTRUCTURE
     1 UNK         1 GROUP             0       ****    0 ROOT    
