@<TRIPOS>MOLECULE
ZINC02242485_5831
43   47    1
SMALL
USER_CHARGES


@<TRIPOS>ATOM
      1 C1          0.0021   53.2501   30.8885 C.ar      1 UNK         0.0000 
      2 C2         -0.4934   52.0967   30.2854 C.ar      1 UNK         0.0000 
      3 C3         -0.2472   51.8666   28.9368 C.ar      1 UNK         0.0000 
      4 C4          0.4945   52.7885   28.1939 C.ar      1 UNK         0.0000 
      5 C5          0.9779   53.9504   28.8058 C.ar      1 UNK         0.0000 
      6 C6          0.7253   54.1860   30.1534 C.ar      1 UNK         0.0000 
      7 C7          0.7789   52.5068   26.7577 C.2       1 UNK         0.0000 
      8 C8          0.4659   51.4591   25.9080 C.2       1 UNK         0.0000 
      9 C9          1.0773   51.7367   24.6883 C.2       1 UNK         0.0000 
     10 C10         1.7160   52.9705   24.8071 C.2       1 UNK         0.0000 
     11 O11         1.5047   53.4281   26.0676 O.3       1 UNK         0.0000 
     12 C12         2.5733   53.8557   23.8901 C.3       1 UNK         0.0000 
     13 H13         2.1304   54.8494   23.7999 H         1 UNK         0.0000 
     14 C14         4.0021   54.0946   24.4468 C.2       1 UNK         0.0000 
     15 C15         5.0596   54.2868   23.6181 C.2       1 UNK         0.0000 
     16 N16         4.9183   54.1797   22.2259 N.pl3     1 UNK         0.0000 
     17 C17         5.8153   54.6305   21.2337 C.ar      1 UNK         0.0000 
     18 C18         6.9272   55.4804   21.3524 C.ar      1 UNK         0.0000 
     19 C19         7.7352   55.7401   20.2446 C.ar      1 UNK         0.0000 
     20 C20         7.4242   55.1899   19.0037 C.ar      1 UNK         0.0000 
     21 C21         6.3016   54.3768   18.8669 C.ar      1 UNK         0.0000 
     22 C22         5.5046   54.1051   19.9780 C.ar      1 UNK         0.0000 
     23 S23         4.0783   53.0949   20.0176 S.3       1 UNK         0.0000 
     24 C24         3.7909   53.5601   21.7102 C.2       1 UNK         0.0000 
     25 C25         2.6933   53.3016   22.4518 C.2       1 UNK         0.0000 
     26 C26         1.5791   52.6354   21.8454 C.1       1 UNK         0.0000 
     27 N27         0.6681   52.0987   21.3715 N.1       1 UNK         0.0000 
     28 N28         6.3439   54.4426   24.0892 N.pl3     1 UNK         0.0000 
     29 C29         4.2081   54.1512   25.8635 C.1       1 UNK         0.0000 
     30 N30         4.4135   54.2474   27.0003 N.1       1 UNK         0.0000 
     31 H31        -0.1868   53.4152   31.9405 H         1 UNK         0.0000 
     32 H32        -1.0572   51.3818   30.8701 H         1 UNK         0.0000 
     33 H33        -0.6291   50.9618   28.4839 H         1 UNK         0.0000 
     34 H34         1.5559   54.6705   28.2428 H         1 UNK         0.0000 
     35 H35         1.0940   55.0839   30.6279 H         1 UNK         0.0000 
     36 H36        -0.1039   50.5761   26.1571 H         1 UNK         0.0000 
     37 H37         1.0602   51.0907   23.8224 H         1 UNK         0.0000 
     38 H38         7.1986   55.9444   22.2888 H         1 UNK         0.0000 
     39 H39         8.6108   56.3667   20.3447 H         1 UNK         0.0000 
     40 H40         8.0540   55.3901   18.1476 H         1 UNK         0.0000 
     41 H41         6.0647   53.9518   17.9017 H         1 UNK         0.0000 
     42 H42         6.5283   54.4267   25.0830 H         1 UNK         0.0000 
     43 H43         7.1408   54.4304   23.4684 H         1 UNK         0.0000 
@<TRIPOS>BOND
     1    1    6 ar   
     2    1    2 ar   
     3    1   31 1    
     4    2    3 ar   
     5    2   32 1    
     6    3    4 ar   
     7    3   33 1    
     8    4    5 ar   
     9    4    7 1    
    10    5    6 ar   
    11    5   34 1    
    12    6   35 1    
    13    7   11 1    
    14    7    8 2    
    15    8    9 1    
    16    8   36 1    
    17    9   10 2    
    18    9   37 1    
    19   10   11 1    
    20   10   12 1    
    21   12   13 1    
    22   12   25 1    
    23   12   14 1    
    24   14   15 2    
    25   14   29 1    
    26   15   16 1    
    27   15   28 1    
    28   16   24 1    
    29   16   17 1    
    30   17   22 ar   
    31   17   18 ar   
    32   18   19 ar   
    33   18   38 1    
    34   19   20 ar   
    35   19   39 1    
    36   20   21 ar   
    37   20   40 1    
    38   21   22 ar   
    39   21   41 1    
    40   22   23 1    
    41   23   24 1    
    42   24   25 2    
    43   25   26 1    
    44   26   27 3    
    45   28   42 1    
    46   28   43 1    
    47   29   30 3    
@<TRIPOS>SUBSTRUCTURE
     1 UNK         1 GROUP             0       ****    0 ROOT    
