@<TRIPOS>MOLECULE
ZINC00673858_5216
42   45    1
SMALL
USER_CHARGES


@<TRIPOS>ATOM
      1 C1          5.0027   54.4968   23.9039 C.ar      1 UNK         0.0000 
      2 C2          3.7571   54.0871   24.3830 C.ar      1 UNK         0.0000 
      3 C3          3.5523   53.8973   25.7546 C.ar      1 UNK         0.0000 
      4 C4          4.6099   54.1513   26.6409 C.ar      1 UNK         0.0000 
      5 C5          5.8409   54.5840   26.1603 C.ar      1 UNK         0.0000 
      6 C6          6.0456   54.7536   24.7925 C.ar      1 UNK         0.0000 
      7 Cl7         7.1046   54.8967   27.2788 Cl        1 UNK         0.0000 
      8 N8          2.2979   53.3994   26.1467 N.am      1 UNK         0.0000 
      9 C9          1.7816   53.2542   27.3901 C.2       1 UNK         0.0000 
     10 O10         2.3171   53.6572   28.4228 O.2       1 UNK         0.0000 
     11 C11         0.4977   52.5751   27.4276 C.ar      1 UNK         0.0000 
     12 C12        -0.2521   52.3039   28.5965 C.ar      1 UNK         0.0000 
     13 C13        -1.4071   51.6966   28.1486 C.ar      1 UNK         0.0000 
     14 N14        -1.3063   51.6148   26.7764 N.pl3     1 UNK         0.0000 
     15 N15        -0.1427   52.1259   26.3576 N.2       1 UNK         0.0000 
     16 C16        -2.3298   51.1066   25.8434 C.3       1 UNK         0.0000 
     17 H17        -1.8359   50.3926   25.1820 H         1 UNK         0.0000 
     18 C18        -3.4004   50.3523   26.6884 C.3       1 UNK         0.0000 
     19 C19        -3.7252   51.0716   28.0200 C.3       1 UNK         0.0000 
     20 H20        -4.0309   52.0960   27.8076 H         1 UNK         0.0000 
     21 N21        -2.4910   51.1448   28.8003 N.pl3     1 UNK         0.0000 
     22 C22        -4.8438   50.4123   28.8067 C.2       1 UNK         0.0000 
     23 C23        -4.7845   49.5811   29.9315 C.2       1 UNK         0.0000 
     24 C24        -6.0269   49.1506   30.4025 C.2       1 UNK         0.0000 
     25 C25        -7.0735   49.6334   29.6389 C.2       1 UNK         0.0000 
     26 S26        -6.5097   50.6203   28.3336 S.3       1 UNK         0.0000 
     27 C27        -2.9318   52.2123   24.9345 C.3       1 UNK         0.0000 
     28 F28        -3.5283   53.1754   25.6391 F         1 UNK         0.0000 
     29 F29        -2.0062   52.7928   24.1690 F         1 UNK         0.0000 
     30 F30        -3.8517   51.7084   24.1112 F         1 UNK         0.0000 
     31 Br31        0.1659   52.6632   30.4243 Br        1 UNK         0.0000 
     32 H32         5.1559   54.6207   22.8417 H         1 UNK         0.0000 
     33 H33         2.9633   53.8924   23.6759 H         1 UNK         0.0000 
     34 H34         4.5163   54.0024   27.7039 H         1 UNK         0.0000 
     35 H35         7.0071   55.0772   24.4193 H         1 UNK         0.0000 
     36 H36         1.7181   53.0636   25.3938 H         1 UNK         0.0000 
     37 H37        -4.3107   50.2117   26.1045 H         1 UNK         0.0000 
     38 H38        -3.0520   49.3346   26.8819 H         1 UNK         0.0000 
     39 H39        -2.3345   50.2866   29.3202 H         1 UNK         0.0000 
     40 H40        -3.8503   49.2969   30.3992 H         1 UNK         0.0000 
     41 H41        -6.1515   48.5107   31.2643 H         1 UNK         0.0000 
     42 H42        -8.1304   49.4561   29.7736 H         1 UNK         0.0000 
@<TRIPOS>BOND
     1    1    6 ar   
     2    1    2 ar   
     3    1   32 1    
     4    2    3 ar   
     5    2   33 1    
     6    3    4 ar   
     7    3    8 1    
     8    4    5 ar   
     9    4   34 1    
    10    5    6 ar   
    11    5    7 1    
    12    6   35 1    
    13    8    9 am   BACKBONE|DICT|INTERRES
    14    8   36 1    
    15    9   10 2    
    16    9   11 1    
    17   11   15 ar   
    18   11   12 ar   
    19   12   13 ar   
    20   12   31 1    
    21   13   21 1    
    22   13   14 ar   
    23   14   15 ar   
    24   14   16 1    
    25   16   17 1    
    26   16   18 1    
    27   16   27 1    
    28   18   19 1    
    29   18   37 1    
    30   18   38 1    
    31   19   20 1    
    32   19   21 1    
    33   19   22 1    
    34   21   39 1    
    35   22   26 1    
    36   22   23 2    
    37   23   24 1    
    38   23   40 1    
    39   24   25 2    
    40   24   41 1    
    41   25   26 1    
    42   25   42 1    
    43   27   28 1    
    44   27   29 1    
    45   27   30 1    
@<TRIPOS>SUBSTRUCTURE
     1 UNK         1 GROUP             0       ****    0 ROOT    
