@<TRIPOS>MOLECULE
ZINC60351506_858
66   69    1
SMALL
USER_CHARGES


@<TRIPOS>ATOM
      1 C1          7.0069   57.9859   16.3148 C.3       1 UNK         0.0000 
      2 C2          6.4164   57.2997   17.5387 C.2       1 UNK         0.0000 
      3 O3          6.0131   57.9742   18.4817 O.2       1 UNK         0.0000 
      4 N4          6.3661   55.9543   17.5106 N.am      1 UNK         0.0000 
      5 C5          5.8046   55.0439   18.5359 C.3       1 UNK         0.0000 
      6 C6          6.2044   53.5802   18.1389 C.3       1 UNK         0.0000 
      7 C7          6.1542   53.1683   16.6455 C.3       1 UNK         0.0000 
      8 C8          4.7560   52.9923   16.0313 C.3       1 UNK         0.0000 
      9 C9          3.7866   54.1699   16.2194 C.3       1 UNK         0.0000 
     10 C10         3.3316   54.3514   17.6772 C.3       1 UNK         0.0000 
     11 C11         4.2373   55.2099   18.5877 C.3       1 UNK         0.0000 
     12 C12         6.4452   55.2821   19.9375 C.2       1 UNK         0.0000 
     13 N13         5.8498   54.8976   21.0550 N.2       1 UNK         0.0000 
     14 C14         6.7247   55.2031   21.9728 C.2       1 UNK         0.0000 
     15 O15         7.8773   55.6975   21.4700 O.3       1 UNK         0.0000 
     16 N16         7.6871   55.7106   20.0912 N.2       1 UNK         0.0000 
     17 C17         6.6128   55.0432   23.4753 C.3       1 UNK         0.0000 
     18 C18         5.2979   54.3489   23.9217 C.3       1 UNK         0.0000 
     19 C19         5.1611   54.1527   25.4353 C.2       1 UNK         0.0000 
     20 O20         6.1664   54.1414   26.1426 O.2       1 UNK         0.0000 
     21 N21         3.8985   53.9571   25.8753 N.am      1 UNK         0.0000 
     22 C22         3.3592   53.5538   27.2013 C.3       1 UNK         0.0000 
     23 C23         3.2750   54.7939   28.1181 C.3       1 UNK         0.0000 
     24 C24         4.6350   54.8968   28.7976 C.3       1 UNK         0.0000 
     25 C25         5.0197   53.4602   29.0897 C.3       1 UNK         0.0000 
     26 C26         4.3328   52.6327   28.0047 C.3       1 UNK         0.0000 
     27 C27         1.9598   52.8948   26.9986 C.ar      1 UNK         0.0000 
     28 C28         1.2415   52.4624   28.1281 C.ar      1 UNK         0.0000 
     29 C29        -0.0104   51.8675   28.0024 C.ar      1 UNK         0.0000 
     30 C30        -0.5683   51.6958   26.7412 C.ar      1 UNK         0.0000 
     31 C31         0.1252   52.0979   25.6050 C.ar      1 UNK         0.0000 
     32 C32         1.3770   52.6961   25.7312 C.ar      1 UNK         0.0000 
     33 Cl33       -2.1335   50.9838   26.5821 Cl        1 UNK         0.0000 
     34 H34         6.4472   57.7135   15.4189 H         1 UNK         0.0000 
     35 H35         6.9582   59.0710   16.4285 H         1 UNK         0.0000 
     36 H36         8.0497   57.6992   16.1803 H         1 UNK         0.0000 
     37 H37         6.6676   55.5005   16.6627 H         1 UNK         0.0000 
     38 H38         7.2180   53.3739   18.4815 H         1 UNK         0.0000 
     39 H39         5.5817   52.8777   18.6948 H         1 UNK         0.0000 
     40 H40         6.7375   53.8585   16.0360 H         1 UNK         0.0000 
     41 H41         6.6749   52.2149   16.5441 H         1 UNK         0.0000 
     42 H42         4.8708   52.7920   14.9647 H         1 UNK         0.0000 
     43 H43         4.3012   52.0919   16.4478 H         1 UNK         0.0000 
     44 H44         4.2154   55.0949   15.8303 H         1 UNK         0.0000 
     45 H45         2.9042   53.9754   15.6071 H         1 UNK         0.0000 
     46 H46         2.3389   54.8039   17.6765 H         1 UNK         0.0000 
     47 H47         3.1830   53.3723   18.1369 H         1 UNK         0.0000 
     48 H48         3.8616   55.0600   19.5971 H         1 UNK         0.0000 
     49 H49         3.9836   56.2529   18.3902 H         1 UNK         0.0000 
     50 H50         6.6949   56.0256   23.9414 H         1 UNK         0.0000 
     51 H51         7.4711   54.4673   23.8264 H         1 UNK         0.0000 
     52 H52         5.2438   53.3607   23.4606 H         1 UNK         0.0000 
     53 H53         4.4330   54.8967   23.5465 H         1 UNK         0.0000 
     54 H54         3.2163   53.8814   25.1408 H         1 UNK         0.0000 
     55 H55         2.9877   55.6854   27.5691 H         1 UNK         0.0000 
     56 H56         2.5125   54.6802   28.8891 H         1 UNK         0.0000 
     57 H57         5.3730   55.3322   28.1297 H         1 UNK         0.0000 
     58 H58         4.6111   55.5211   29.6821 H         1 UNK         0.0000 
     59 H59         6.1021   53.3345   29.0505 H         1 UNK         0.0000 
     60 H60         4.6719   53.1539   30.0771 H         1 UNK         0.0000 
     61 H61         3.8167   51.8017   28.4846 H         1 UNK         0.0000 
     62 H62         5.0999   52.1921   27.3718 H         1 UNK         0.0000 
     63 H63         1.6549   52.5784   29.1197 H         1 UNK         0.0000 
     64 H64        -0.5477   51.5349   28.8796 H         1 UNK         0.0000 
     65 H65        -0.3080   51.9516   24.6263 H         1 UNK         0.0000 
     66 H66         1.8713   52.9869   24.8179 H         1 UNK         0.0000 
@<TRIPOS>BOND
     1    1    2 1    
     2    1   34 1    
     3    1   35 1    
     4    1   36 1    
     5    2    3 2    
     6    2    4 am   BACKBONE|DICT|INTERRES
     7    4    5 1    
     8    4   37 1    
     9    5   11 1    
    10    5    6 1    
    11    5   12 1    
    12    6    7 1    
    13    6   38 1    
    14    6   39 1    
    15    7    8 1    
    16    7   40 1    
    17    7   41 1    
    18    8    9 1    
    19    8   42 1    
    20    8   43 1    
    21    9   10 1    
    22    9   44 1    
    23    9   45 1    
    24   10   11 1    
    25   10   46 1    
    26   10   47 1    
    27   11   48 1    
    28   11   49 1    
    29   12   16 2    
    30   12   13 1    
    31   13   14 2    
    32   14   15 1    
    33   14   17 1    
    34   15   16 1    
    35   17   18 1    
    36   17   50 1    
    37   17   51 1    
    38   18   19 1    
    39   18   52 1    
    40   18   53 1    
    41   19   20 2    
    42   19   21 am   BACKBONE|DICT|INTERRES
    43   21   22 1    
    44   21   54 1    
    45   22   26 1    
    46   22   23 1    
    47   22   27 1    
    48   23   24 1    
    49   23   55 1    
    50   23   56 1    
    51   24   25 1    
    52   24   57 1    
    53   24   58 1    
    54   25   26 1    
    55   25   59 1    
    56   25   60 1    
    57   26   61 1    
    58   26   62 1    
    59   27   32 ar   
    60   27   28 ar   
    61   28   29 ar   
    62   28   63 1    
    63   29   30 ar   
    64   29   64 1    
    65   30   31 ar   
    66   30   33 1    
    67   31   32 ar   
    68   31   65 1    
    69   32   66 1    
@<TRIPOS>SUBSTRUCTURE
     1 UNK         1 GROUP             0       ****    0 ROOT    
