ZINC00619816_4670
                    3D
 Schrodinger Suite 2024-2.
 40 42  0  0  1  0            999 V2000
    3.9112   52.2588   30.8388 C   0  0  0  0  0  0
    4.4200   52.2266   29.3904 C   0  0  0  0  0  0
    5.0773   53.5536   28.9238 C   0  0  0  0  0  0
    5.0159   53.8315   27.4344 C   0  0  0  0  0  0
    3.9206   53.6965   26.5532 C   0  0  0  0  0  0
    4.3947   54.2280   25.3758 C   0  0  0  0  0  0
    5.6957   54.5721   25.5641 N   0  0  0  0  0  0
    6.3065   54.9612   24.8601 H   0  0  0  0  0  0
    6.0815   54.3297   26.8229 N   0  0  0  0  0  0
    3.7307   54.3974   24.1906 O   0  0  0  0  0  0
    2.4436   53.9473   24.2236 C   0  0  0  0  0  0
    1.7948   53.4042   25.2910 C   0  0  0  0  0  0
    2.4665   53.2128   26.6744 C   0  0  2  0  0  0
    2.5071   52.1364   26.8253 H   0  0  0  0  0  0
    1.7307   53.7650   27.9173 C   0  0  0  0  0  0
    2.0076   55.0730   28.3416 C   0  0  0  0  0  0
    1.5044   55.5735   29.5398 C   0  0  0  0  0  0
    0.7042   54.7662   30.3397 C   0  0  0  0  0  0
    0.3781   53.4777   29.9220 C   0  0  0  0  0  0
    0.8861   52.9655   28.7216 C   0  0  0  0  0  0
    0.5397   51.5268   28.3619 C   0  0  0  0  0  0
    0.4744   52.8959   25.0962 C   0  0  0  0  0  0
   -0.5905   52.4970   24.8818 N   0  0  0  0  0  0
    1.9389   54.0966   22.9609 N   0  0  0  0  0  0
    3.5035   51.2976   31.1345 H   0  0  0  0  0  0
    4.6949   52.4953   31.5565 H   0  0  0  0  0  0
    3.1102   52.9870   30.9389 H   0  0  0  0  0  0
    3.5776   51.9635   28.7624 H   0  0  0  0  0  0
    5.1055   51.3926   29.2806 H   0  0  0  0  0  0
    6.1074   53.5889   29.2775 H   0  0  0  0  0  0
    4.5824   54.3834   29.4298 H   0  0  0  0  0  0
    2.6600   55.6948   27.7507 H   0  0  0  0  0  0
    1.7475   56.5795   29.8511 H   0  0  0  0  0  0
    0.3227   55.1440   31.2763 H   0  0  0  0  0  0
   -0.2512   52.8676   30.5561 H   0  0  0  0  0  0
    0.1760   51.4562   27.3374 H   0  0  0  0  0  0
    1.4225   50.8940   28.4464 H   0  0  0  0  0  0
   -0.2428   51.1152   29.0022 H   0  0  0  0  0  0
    0.9922   53.8155   22.7512 H   0  0  0  0  0  0
    2.5617   54.2181   22.1772 H   0  0  0  0  0  0
  1  2  1  0  0  0
  1 25  1  0  0  0
  1 26  1  0  0  0
  1 27  1  0  0  0
  2  3  1  0  0  0
  2 28  1  0  0  0
  2 29  1  0  0  0
  3  4  1  0  0  0
  3 30  1  0  0  0
  3 31  1  0  0  0
  4  9  2  0  0  0
  4  5  1  0  0  0
  5 13  1  0  0  0
  5  6  2  0  0  0
  6  7  1  0  0  0
  6 10  1  0  0  0
  7  8  1  0  0  0
  7  9  1  0  0  0
 10 11  1  0  0  0
 11 12  2  0  0  0
 11 24  1  0  0  0
 12 13  1  0  0  0
 12 22  1  0  0  0
 13 14  1  0  0  0
 13 15  1  0  0  0
 15 20  2  0  0  0
 15 16  1  0  0  0
 16 17  2  0  0  0
 16 32  1  0  0  0
 17 18  1  0  0  0
 17 33  1  0  0  0
 18 19  2  0  0  0
 18 34  1  0  0  0
 19 20  1  0  0  0
 19 35  1  0  0  0
 20 21  1  0  0  0
 21 36  1  0  0  0
 21 37  1  0  0  0
 21 38  1  0  0  0
 22 23  3  0  0  0
 24 39  1  0  0  0
 24 40  1  0  0  0
M  END
> <i_i_glide_confnum>
4

> <i_i_glide_lignum>
4671

> <i_i_glide_posenum>
166

> <i_i_glide_rotatable_bonds>
4

> <i_m_Source_File_Index>
3199

> <b_m_subgroup_collapsed>
0

> <r_i_docking_score>
-6.24509

> <r_i_glide_ecoul>
-0.0407751

> <r_i_glide_eff_state_penalty>
0

> <r_i_glide_einternal>
6.33428

> <r_i_glide_emodel>
-47.4014

> <r_i_glide_energy>
-36.5334

> <r_i_glide_erotb>
0.422131

> <r_i_glide_esite>
0

> <r_i_glide_evdw>
-36.4926

> <r_i_glide_gscore>
-6.24509

> <r_i_glide_hbond>
0

> <r_i_glide_ligand_efficiency>
-0.283868

> <r_i_glide_ligand_efficiency_ln>
-1.52653

> <r_i_glide_ligand_efficiency_sa>
-0.795408

> <r_i_glide_lipo>
-3.2682

> <r_i_glide_metal>
0

> <r_i_glide_rewards>
-1.56827

> <s_i_glide_gridfile>
wee1_glide-grid

> <s_m_Source_File>
wee1_decoys_glide_SP.sdf

> <s_m_Source_Path>
/Users/zhangxujun/Desktop

> <s_m_entry_id>
3474

> <s_m_entry_name>
wee1_decoys_glide_SP.3199

> <s_m_subgroup_title>
wee1_decoys_glide_SP

> <s_m_subgroupid>
wee1_decoys_glide_SP


$$$$
