@<TRIPOS>MOLECULE
ZINC60241778_3847
31   33    1
SMALL
USER_CHARGES


@<TRIPOS>ATOM
      1 C1          3.0063   54.4659   28.5100 C.ar      1 UNK         0.0000 
      2 C2          3.1721   54.4967   27.1252 C.ar      1 UNK         0.0000 
      3 C3          2.4101   53.6629   26.3058 C.ar      1 UNK         0.0000 
      4 C4          1.5089   52.7537   26.8797 C.ar      1 UNK         0.0000 
      5 C5          1.3145   52.7630   28.2616 C.ar      1 UNK         0.0000 
      6 C6          2.0755   53.5982   29.0802 C.ar      1 UNK         0.0000 
      7 C7          0.3263   51.7117   28.6518 C.3       1 UNK         0.0000 
      8 C8         -0.2538   51.2372   27.3087 C.3       1 UNK         0.0000 
      9 H9         -0.2526   50.1476   27.2801 H         1 UNK         0.0000 
     10 N10         0.6329   51.8251   26.2684 N.am      1 UNK         0.0000 
     11 C11         0.7042   51.3836   24.9712 C.2       1 UNK         0.0000 
     12 O12         1.4764   51.8361   24.1253 O.2       1 UNK         0.0000 
     13 C13        -0.1856   50.3196   24.5763 C.2       1 UNK         0.0000 
     14 C14        -0.0638   48.9854   25.0097 C.2       1 UNK         0.0000 
     15 C15        -1.0824   48.1652   24.5509 C.2       1 UNK         0.0000 
     16 S16        -2.2088   49.0254   23.5574 S.3       1 UNK         0.0000 
     17 C17        -1.3164   50.4983   23.7722 C.2       1 UNK         0.0000 
     18 Cl18       -1.8950   51.9449   23.0337 Cl        1 UNK         0.0000 
     19 Cl19       -1.3115   46.4965   24.8815 Cl        1 UNK         0.0000 
     20 C20        -1.7393   51.6472   27.1620 C.2       1 UNK         0.0000 
     21 O21        -2.0969   52.5928   26.4653 O.2       1 UNK         0.0000 
     22 N22        -2.6286   50.8968   27.8059 N.am      1 UNK         0.0000 
     23 H23         3.6000   55.1154   29.1371 H         1 UNK         0.0000 
     24 H24         3.8858   55.1762   26.6815 H         1 UNK         0.0000 
     25 H25         2.5533   53.7236   25.2376 H         1 UNK         0.0000 
     26 H26         1.9514   53.5760   30.1525 H         1 UNK         0.0000 
     27 H27         0.8761   50.8966   29.1171 H         1 UNK         0.0000 
     28 H28        -0.4190   52.0440   29.3790 H         1 UNK         0.0000 
     29 H29         0.7294   48.6220   25.6496 H         1 UNK         0.0000 
     30 H30        -2.3354   50.0080   28.2178 H         1 UNK         0.0000 
     31 H31        -3.6097   51.1139   27.7376 H         1 UNK         0.0000 
@<TRIPOS>BOND
     1    1    6 ar   
     2    1    2 ar   
     3    1   23 1    
     4    2    3 ar   
     5    2   24 1    
     6    3    4 ar   
     7    3   25 1    
     8    4   10 1    
     9    4    5 ar   
    10    5    6 ar   
    11    5    7 1    
    12    6   26 1    
    13    7    8 1    
    14    7   27 1    
    15    7   28 1    
    16    8    9 1    
    17    8   10 1    
    18    8   20 1    
    19   10   11 am   BACKBONE|DICT|INTERRES
    20   11   12 2    
    21   11   13 1    
    22   13   17 2    
    23   13   14 1    
    24   14   15 2    
    25   14   29 1    
    26   15   16 1    
    27   15   19 1    
    28   16   17 1    
    29   17   18 1    
    30   20   21 2    
    31   20   22 am   BACKBONE|DICT|INTERRES
    32   22   30 1    
    33   22   31 1    
@<TRIPOS>SUBSTRUCTURE
     1 UNK         1 GROUP             0       ****    0 ROOT    
