@<TRIPOS>MOLECULE
ZINC35644316_2821
61   65    1
SMALL
USER_CHARGES


@<TRIPOS>ATOM
      1 C1         -0.6533   51.3328   28.3016 C.3       1 UNK         0.0000 
      2 C2          0.4777   52.0733   27.6133 C.ar      1 UNK         0.0000 
      3 C3          0.4637   52.2251   26.2273 C.ar      1 UNK         0.0000 
      4 C4          1.5054   52.8918   25.5876 C.ar      1 UNK         0.0000 
      5 C5          2.5877   53.3947   26.3276 C.ar      1 UNK         0.0000 
      6 C6          2.5857   53.2403   27.7215 C.ar      1 UNK         0.0000 
      7 C7          1.5391   52.5815   28.3609 C.ar      1 UNK         0.0000 
      8 C8          3.7492   54.0964   25.6573 C.2       1 UNK         0.0000 
      9 O9          4.5150   54.8072   26.3115 O.2       1 UNK         0.0000 
     10 N10         3.8994   53.8931   24.3311 N.am      1 UNK         0.0000 
     11 C11         4.9347   54.4966   23.4894 C.3       1 UNK         0.0000 
     12 C12         4.4265   54.8966   22.0678 C.3       1 UNK         0.0000 
     13 C13         5.5042   55.6182   21.1910 C.3       1 UNK         0.0000 
     14 C14         6.6908   54.7017   21.0831 C.3       1 UNK         0.0000 
     15 C15         7.2755   54.4967   22.5008 C.3       1 UNK         0.0000 
     16 C16         6.2745   53.7350   23.3957 C.3       1 UNK         0.0000 
     17 N17         7.7287   55.2968   20.2473 N.pl3     1 UNK         0.0000 
     18 C18         7.9690   54.9202   18.9207 C.ar      1 UNK         0.0000 
     19 C19         7.0467   54.2720   18.0706 C.ar      1 UNK         0.0000 
     20 C20         5.6844   53.8434   18.0599 C.ar      1 UNK         0.0000 
     21 N21         5.3753   53.2833   16.9187 N.2       1 UNK         0.0000 
     22 N22         6.4873   53.2552   16.1470 N.pl3     1 UNK         0.0000 
     23 C23         7.5364   53.8969   16.7946 C.ar      1 UNK         0.0000 
     24 N24         8.7749   54.1380   16.3410 N.ar      1 UNK         0.0000 
     25 C25         9.5527   54.8018   17.2333 C.ar      1 UNK         0.0000 
     26 N26         9.2143   55.2140   18.4787 N.ar      1 UNK         0.0000 
     27 C27        10.9688   55.1006   16.7882 C.3       1 UNK         0.0000 
     28 C28         6.4579   52.6053   14.8909 C.ar      1 UNK         0.0000 
     29 C29         5.4091   52.8687   13.9982 C.ar      1 UNK         0.0000 
     30 C30         5.3794   52.2516   12.7471 C.ar      1 UNK         0.0000 
     31 C31         6.3965   51.3723   12.3765 C.ar      1 UNK         0.0000 
     32 C32         7.4440   51.1078   13.2585 C.ar      1 UNK         0.0000 
     33 C33         7.4809   51.7200   14.5117 C.ar      1 UNK         0.0000 
     34 F34         8.4960   51.4166   15.3543 F         1 UNK         0.0000 
     35 H35        -0.9962   50.5011   27.6842 H         1 UNK         0.0000 
     36 H36        -0.3337   50.9040   29.2520 H         1 UNK         0.0000 
     37 H37        -1.4984   51.9965   28.4802 H         1 UNK         0.0000 
     38 H38        -0.3566   51.8304   25.6455 H         1 UNK         0.0000 
     39 H39         1.4557   53.0010   24.5141 H         1 UNK         0.0000 
     40 H40         3.4029   53.6198   28.3191 H         1 UNK         0.0000 
     41 H41         1.5566   52.4633   29.4344 H         1 UNK         0.0000 
     42 H42         3.2810   53.2381   23.8803 H         1 UNK         0.0000 
     43 H43         5.2139   55.4031   24.0322 H         1 UNK         0.0000 
     44 H44         4.1204   53.9861   21.5495 H         1 UNK         0.0000 
     45 H45         3.5046   55.4704   22.1303 H         1 UNK         0.0000 
     46 H46         5.8713   56.5667   21.5920 H         1 UNK         0.0000 
     47 H47         5.1047   55.8046   20.1939 H         1 UNK         0.0000 
     48 H48         6.3044   53.7792   20.6421 H         1 UNK         0.0000 
     49 H49         7.5043   55.4604   22.9609 H         1 UNK         0.0000 
     50 H50         8.2175   53.9526   22.4818 H         1 UNK         0.0000 
     51 H51         6.7002   53.5860   24.3895 H         1 UNK         0.0000 
     52 H52         6.0993   52.7513   22.9580 H         1 UNK         0.0000 
     53 H53         8.4599   55.8170   20.7087 H         1 UNK         0.0000 
     54 H54         4.9355   53.9384   18.8316 H         1 UNK         0.0000 
     55 H55        10.9626   55.8282   15.9763 H         1 UNK         0.0000 
     56 H56        11.5770   55.4955   17.6041 H         1 UNK         0.0000 
     57 H57        11.4471   54.1909   16.4235 H         1 UNK         0.0000 
     58 H58         4.6152   53.5499   14.2718 H         1 UNK         0.0000 
     59 H59         4.5668   52.4562   12.0651 H         1 UNK         0.0000 
     60 H60         6.3712   50.8945   11.4086 H         1 UNK         0.0000 
     61 H61         8.2293   50.4215   12.9766 H         1 UNK         0.0000 
@<TRIPOS>BOND
     1    1    2 1    
     2    1   35 1    
     3    1   36 1    
     4    1   37 1    
     5    2    7 ar   
     6    2    3 ar   
     7    3    4 ar   
     8    3   38 1    
     9    4    5 ar   
    10    4   39 1    
    11    5    6 ar   
    12    5    8 1    
    13    6    7 ar   
    14    6   40 1    
    15    7   41 1    
    16    8    9 2    
    17    8   10 am   BACKBONE|DICT|INTERRES
    18   10   11 1    
    19   10   42 1    
    20   11   16 1    
    21   11   12 1    
    22   11   43 1    
    23   12   13 1    
    24   12   44 1    
    25   12   45 1    
    26   13   14 1    
    27   13   46 1    
    28   13   47 1    
    29   14   15 1    
    30   14   17 1    
    31   14   48 1    
    32   15   16 1    
    33   15   49 1    
    34   15   50 1    
    35   16   51 1    
    36   16   52 1    
    37   17   18 1    
    38   17   53 1    
    39   18   26 ar   
    40   18   19 ar   
    41   19   23 ar   
    42   19   20 ar   
    43   20   21 ar   
    44   20   54 1    
    45   21   22 ar   
    46   22   23 ar   
    47   22   28 1    
    48   23   24 ar   
    49   24   25 ar   
    50   25   26 ar   
    51   25   27 1    
    52   27   55 1    
    53   27   56 1    
    54   27   57 1    
    55   28   33 ar   
    56   28   29 ar   
    57   29   30 ar   
    58   29   58 1    
    59   30   31 ar   
    60   30   59 1    
    61   31   32 ar   
    62   31   60 1    
    63   32   33 ar   
    64   32   61 1    
    65   33   34 1    
@<TRIPOS>SUBSTRUCTURE
     1 UNK         1 GROUP             0       ****    0 ROOT    
