@<TRIPOS>MOLECULE
ZINC12621446_1570
35   37    1
SMALL
USER_CHARGES


@<TRIPOS>ATOM
      1 C1          5.8388   54.8838   26.0933 C.ar      1 UNK         0.0000 
      2 C2          6.5186   55.0622   24.8935 C.ar      1 UNK         0.0000 
      3 C3          5.9168   54.6846   23.6723 C.ar      1 UNK         0.0000 
      4 C4          6.5582   54.8965   22.4260 C.ar      1 UNK         0.0000 
      5 C5          5.9043   54.5384   21.2486 C.ar      1 UNK         0.0000 
      6 C6          4.6591   53.9306   21.3324 C.ar      1 UNK         0.0000 
      7 N7          4.0252   53.6969   22.5044 N.ar      1 UNK         0.0000 
      8 C8          4.6098   54.0977   23.6740 C.ar      1 UNK         0.0000 
      9 C9          3.9207   53.9544   24.9229 C.ar      1 UNK         0.0000 
     10 C10         4.5587   54.3419   26.1054 C.ar      1 UNK         0.0000 
     11 C11         2.5290   53.3179   25.0035 C.3       1 UNK         0.0000 
     12 S12         1.2889   54.0943   23.9174 S.3       1 UNK         0.0000 
     13 C13        -0.1796   53.0639   24.2698 C.3       1 UNK         0.0000 
     14 C14         0.0116   51.5748   24.0187 C.ar      1 UNK         0.0000 
     15 N15         0.5541   51.2026   22.8320 N.ar      1 UNK         0.0000 
     16 C16         0.6831   49.8657   22.6835 C.ar      1 UNK         0.0000 
     17 N17         0.3076   48.9217   23.5764 N.ar      1 UNK         0.0000 
     18 C18        -0.2138   49.4206   24.7202 C.ar      1 UNK         0.0000 
     19 N19        -0.3934   50.7324   25.0051 N.ar      1 UNK         0.0000 
     20 N20        -0.5841   48.4992   25.6817 N.pl3     1 UNK         0.0000 
     21 N21         1.2676   49.4293   21.5105 N.pl3     1 UNK         0.0000 
     22 H22         6.3036   55.1732   27.0258 H         1 UNK         0.0000 
     23 H23         7.5043   55.5011   24.8800 H         1 UNK         0.0000 
     24 H24         7.5388   55.3508   22.3976 H         1 UNK         0.0000 
     25 H25         6.3679   54.7090   20.2874 H         1 UNK         0.0000 
     26 H26         4.1335   53.6252   20.4380 H         1 UNK         0.0000 
     27 H27         4.0554   54.2200   27.0537 H         1 UNK         0.0000 
     28 H28         2.6172   52.2588   24.7689 H         1 UNK         0.0000 
     29 H29         2.1445   53.3729   26.0235 H         1 UNK         0.0000 
     30 H30        -0.4563   53.2156   25.3094 H         1 UNK         0.0000 
     31 H31        -1.0188   53.4175   23.6753 H         1 UNK         0.0000 
     32 H32        -0.8956   48.8121   26.6017 H         1 UNK         0.0000 
     33 H33        -0.2318   47.5599   25.5887 H         1 UNK         0.0000 
     34 H34         1.4722   48.4495   21.4150 H         1 UNK         0.0000 
     35 H35         1.6243   50.1199   20.8698 H         1 UNK         0.0000 
@<TRIPOS>BOND
     1    1   10 ar   
     2    1    2 ar   
     3    1   22 1    
     4    2    3 ar   
     5    2   23 1    
     6    3    8 ar   
     7    3    4 ar   
     8    4    5 ar   
     9    4   24 1    
    10    5    6 ar   
    11    5   25 1    
    12    6    7 ar   
    13    6   26 1    
    14    7    8 ar   
    15    8    9 ar   
    16    9   10 ar   
    17    9   11 1    
    18   10   27 1    
    19   11   12 1    
    20   11   28 1    
    21   11   29 1    
    22   12   13 1    
    23   13   14 1    
    24   13   30 1    
    25   13   31 1    
    26   14   19 ar   
    27   14   15 ar   
    28   15   16 ar   
    29   16   17 ar   
    30   16   21 1    
    31   17   18 ar   
    32   18   19 ar   
    33   18   20 1    
    34   20   32 1    
    35   20   33 1    
    36   21   34 1    
    37   21   35 1    
@<TRIPOS>SUBSTRUCTURE
     1 UNK         1 GROUP             0       ****    0 ROOT    
