@<TRIPOS>MOLECULE
ZINC16188843_5145
64   67    1
SMALL
USER_CHARGES


@<TRIPOS>ATOM
      1 C1          2.4235   54.6100   22.4942 C.3       1 UNK         0.0000 
      2 N2          3.1670   53.3700   22.3835 N.pl3     1 UNK         0.0000 
      3 C3          2.4695   52.1763   22.1089 C.ar      1 UNK         0.0000 
      4 C4          2.7562   51.5611   20.8822 C.ar      1 UNK         0.0000 
      5 C5          2.1457   50.3700   20.5109 C.ar      1 UNK         0.0000 
      6 C6          1.2261   49.7764   21.3640 C.ar      1 UNK         0.0000 
      7 C7          0.9226   50.3707   22.5865 C.ar      1 UNK         0.0000 
      8 C8          1.5301   51.5761   23.0011 C.ar      1 UNK         0.0000 
      9 C9          1.2093   52.1425   24.3889 C.2       1 UNK         0.0000 
     10 O10         1.7749   53.1396   24.8310 O.2       1 UNK         0.0000 
     11 N11         0.2795   51.4874   25.1156 N.am      1 UNK         0.0000 
     12 C12        -0.0734   51.6539   26.4761 C.ar      1 UNK         0.0000 
     13 C13         0.8365   52.1815   27.4132 C.ar      1 UNK         0.0000 
     14 C14         0.5113   52.2644   28.7636 C.ar      1 UNK         0.0000 
     15 C15        -0.7263   51.8160   29.2058 C.ar      1 UNK         0.0000 
     16 C16        -1.6416   51.2968   28.2946 C.ar      1 UNK         0.0000 
     17 C17        -1.3371   51.1975   26.9248 C.ar      1 UNK         0.0000 
     18 C18        -2.3532   50.5734   25.9863 C.2       1 UNK         0.0000 
     19 O19        -2.5033   50.9878   24.8349 O.2       1 UNK         0.0000 
     20 N20        -3.0333   49.5259   26.4817 N.am      1 UNK         0.0000 
     21 C21        -3.9580   48.6772   25.7271 C.3       1 UNK         0.0000 
     22 C22        -3.2071   47.5466   24.9742 C.3       1 UNK         0.0000 
     23 C23        -2.4969   46.5634   25.9339 C.3       1 UNK         0.0000 
     24 C24        -3.4857   45.9471   26.9443 C.3       1 UNK         0.0000 
     25 C25        -4.3284   47.0180   27.6686 C.3       1 UNK         0.0000 
     26 C26        -4.9832   47.9984   26.6688 C.3       1 UNK         0.0000 
     27 S27         4.9305   53.5350   22.2311 S.o2      1 UNK         0.0000 
     28 O28         5.1981   54.5703   21.2264 O.2       1 UNK         0.0000 
     29 O29         5.5043   52.1957   22.0817 O.2       1 UNK         0.0000 
     30 C30         5.4646   54.1826   23.8138 C.ar      1 UNK         0.0000 
     31 C31         4.9062   53.6994   25.0008 C.ar      1 UNK         0.0000 
     32 C32         5.3255   54.1988   26.2296 C.ar      1 UNK         0.0000 
     33 C33         6.2903   55.1993   26.2667 C.ar      1 UNK         0.0000 
     34 C34         6.8291   55.6968   25.0833 C.ar      1 UNK         0.0000 
     35 C35         6.4466   55.1683   23.8568 C.ar      1 UNK         0.0000 
     36 H36         1.3439   54.4605   22.4736 H         1 UNK         0.0000 
     37 H37         2.6756   55.0984   23.4350 H         1 UNK         0.0000 
     38 H38         2.7054   55.2860   21.6848 H         1 UNK         0.0000 
     39 H39         3.4678   52.0078   20.2004 H         1 UNK         0.0000 
     40 H40         2.3929   49.9119   19.5630 H         1 UNK         0.0000 
     41 H41         0.7525   48.8495   21.0800 H         1 UNK         0.0000 
     42 H42         0.2118   49.8480   23.2091 H         1 UNK         0.0000 
     43 H43        -0.2904   50.8154   24.6248 H         1 UNK         0.0000 
     44 H44         1.8257   52.4992   27.1240 H         1 UNK         0.0000 
     45 H45         1.2261   52.6586   29.4698 H         1 UNK         0.0000 
     46 H46        -0.9732   51.8532   30.2581 H         1 UNK         0.0000 
     47 H47        -2.5871   50.9377   28.6779 H         1 UNK         0.0000 
     48 H48        -2.6311   49.0981   27.3197 H         1 UNK         0.0000 
     49 H49        -4.5042   49.3005   25.0144 H         1 UNK         0.0000 
     50 H50        -3.9090   46.9999   24.3430 H         1 UNK         0.0000 
     51 H51        -2.4776   47.9821   24.2896 H         1 UNK         0.0000 
     52 H52        -1.9992   45.7774   25.3683 H         1 UNK         0.0000 
     53 H53        -1.7051   47.0809   26.4801 H         1 UNK         0.0000 
     54 H54        -4.1517   45.2551   26.4279 H         1 UNK         0.0000 
     55 H55        -2.9410   45.3534   27.6786 H         1 UNK         0.0000 
     56 H56        -5.0955   46.5377   28.2762 H         1 UNK         0.0000 
     57 H57        -3.6964   47.5698   28.3671 H         1 UNK         0.0000 
     58 H58        -5.5368   48.7619   27.2176 H         1 UNK         0.0000 
     59 H59        -5.7286   47.4673   26.0739 H         1 UNK         0.0000 
     60 H60         4.1518   52.9311   24.9807 H         1 UNK         0.0000 
     61 H61         4.8998   53.8145   27.1449 H         1 UNK         0.0000 
     62 H62         6.6082   55.6001   27.2187 H         1 UNK         0.0000 
     63 H63         7.5544   56.4929   25.1068 H         1 UNK         0.0000 
     64 H64         6.8892   55.5472   22.9461 H         1 UNK         0.0000 
@<TRIPOS>BOND
     1    1    2 1    
     2    1   36 1    
     3    1   37 1    
     4    1   38 1    
     5    2    3 1    
     6    2   27 1    
     7    3    8 ar   
     8    3    4 ar   
     9    4    5 ar   
    10    4   39 1    
    11    5    6 ar   
    12    5   40 1    
    13    6    7 ar   
    14    6   41 1    
    15    7    8 ar   
    16    7   42 1    
    17    8    9 1    
    18    9   10 2    
    19    9   11 am   BACKBONE|DICT|INTERRES
    20   11   12 1    
    21   11   43 1    
    22   12   17 ar   
    23   12   13 ar   
    24   13   14 ar   
    25   13   44 1    
    26   14   15 ar   
    27   14   45 1    
    28   15   16 ar   
    29   15   46 1    
    30   16   17 ar   
    31   16   47 1    
    32   17   18 1    
    33   18   19 2    
    34   18   20 am   BACKBONE|DICT|INTERRES
    35   20   21 1    
    36   20   48 1    
    37   21   26 1    
    38   21   22 1    
    39   21   49 1    
    40   22   23 1    
    41   22   50 1    
    42   22   51 1    
    43   23   24 1    
    44   23   52 1    
    45   23   53 1    
    46   24   25 1    
    47   24   54 1    
    48   24   55 1    
    49   25   26 1    
    50   25   56 1    
    51   25   57 1    
    52   26   58 1    
    53   26   59 1    
    54   27   28 2    
    55   27   29 2    
    56   27   30 1    
    57   30   35 ar   
    58   30   31 ar   
    59   31   32 ar   
    60   31   60 1    
    61   32   33 ar   
    62   32   61 1    
    63   33   34 ar   
    64   33   62 1    
    65   34   35 ar   
    66   34   63 1    
    67   35   64 1    
@<TRIPOS>SUBSTRUCTURE
     1 UNK         1 GROUP             0       ****    0 ROOT    
