ZINC36602835_4951
                    3D
 Schrodinger Suite 2024-2.
 80 84  0  0  1  0            999 V2000
    6.3249   52.9237   27.2739 C   0  0  0  0  0  0
    5.7603   54.2774   27.6611 C   0  0  0  0  0  0
    6.3403   55.2919   27.2817 O   0  0  0  0  0  0
    4.4040   54.3651   28.4067 C   0  0  2  0  0  0
    4.3942   55.3747   28.8087 H   0  0  0  0  0  0
    4.2730   53.3691   29.6003 C   0  0  0  0  0  0
    2.9809   52.5597   29.3776 C   0  0  0  0  0  0
    2.7363   52.6882   27.8754 C   0  0  2  0  0  0
    3.5219   52.0968   27.4189 H   0  0  0  0  0  0
    3.1355   54.1387   27.5123 C   0  0  2  0  0  0
    3.2452   54.2826   25.9425 C   0  0  0  0  0  0
    2.4815   53.2204   25.1104 C   0  0  0  0  0  0
    1.1810   52.7589   25.7997 C   0  0  2  0  0  0
    0.7044   53.6967   25.9867 H   0  0  0  0  0  0
    1.4239   52.1679   27.2219 C   0  0  2  0  0  0
    1.5536   51.0973   27.0686 H   0  0  0  0  0  0
    0.1161   52.1903   28.0570 C   0  0  0  0  0  0
   -1.1695   52.0907   27.1863 C   0  0  0  0  0  0
   -0.8763   51.2924   25.9118 C   0  0  0  0  0  0
   -1.4203   50.0819   25.6821 C   0  0  0  0  0  0
   -1.1419   49.2166   24.5564 C   0  0  0  0  0  0
   -1.6682   48.0809   24.3248 N   0  0  0  0  0  0
   -2.5957   47.7292   25.3189 O   0  0  0  0  0  0
   -2.7686   46.3273   25.3041 C   0  0  0  0  0  0
   -3.8724   45.9340   26.2855 C   0  0  0  0  0  0
   -4.4957   44.8944   26.0645 O   0  0  0  0  0  0
   -4.0959   46.7189   27.3552 N   0  0  0  0  0  0
   -5.1142   46.4422   28.3644 C   0  0  0  0  0  0
   -4.8242   47.0814   29.7380 C   0  0  0  0  0  0
   -5.2920   48.5268   29.8657 C   0  0  0  0  0  0
   -4.4952   49.5715   29.3895 C   0  0  0  0  0  0
   -4.9008   50.8972   29.5364 C   0  0  0  0  0  0
   -6.1127   51.1901   30.1636 C   0  0  0  0  0  0
   -6.9266   50.1494   30.6303 C   0  0  0  0  0  0
   -6.5142   48.8235   30.4796 C   0  0  0  0  0  0
   -8.1292   50.4255   31.2356 O   0  0  0  0  0  0
   -6.5008   52.4966   30.3205 O   0  0  0  0  0  0
   -0.1157   49.7333   23.5406 C   0  0  0  0  0  0
    0.8448   50.7745   24.1608 C   0  0  0  0  0  0
    0.1574   51.9281   24.9483 C   0  0  2  0  0  0
   -0.5936   52.8624   23.9629 C   0  0  0  0  0  0
    2.0741   55.1531   28.0327 C   0  0  0  0  0  0
    6.3920   52.2328   28.1048 H   0  0  0  0  0  0
    7.3215   53.0405   26.8490 H   0  0  0  0  0  0
    5.6832   52.4967   26.5046 H   0  0  0  0  0  0
    5.1043   52.6713   29.6801 H   0  0  0  0  0  0
    4.2350   53.9062   30.5480 H   0  0  0  0  0  0
    3.0324   51.5194   29.6986 H   0  0  0  0  0  0
    2.1564   53.0061   29.9350 H   0  0  0  0  0  0
    3.1086   55.2971   25.5876 H   0  0  0  0  0  0
    4.2587   54.0567   25.6240 H   0  0  0  0  0  0
    3.1037   52.3743   24.8491 H   0  0  0  0  0  0
    2.2373   53.6785   24.1511 H   0  0  0  0  0  0
    0.1474   51.4419   28.8506 H   0  0  0  0  0  0
    0.0314   53.1499   28.5660 H   0  0  0  0  0  0
   -1.5099   53.0816   26.8818 H   0  0  0  0  0  0
   -1.9876   51.6669   27.7709 H   0  0  0  0  0  0
   -2.0813   49.7182   26.4571 H   0  0  0  0  0  0
   -3.0497   45.9899   24.3034 H   0  0  0  0  0  0
   -1.8463   45.8310   25.6121 H   0  0  0  0  0  0
   -3.4678   47.4970   27.5299 H   0  0  0  0  0  0
   -6.0821   46.7890   27.9973 H   0  0  0  0  0  0
   -5.2573   45.3666   28.4823 H   0  0  0  0  0  0
   -5.3192   46.4991   30.5155 H   0  0  0  0  0  0
   -3.7620   47.0044   29.9854 H   0  0  0  0  0  0
   -3.5440   49.3534   28.9231 H   0  0  0  0  0  0
   -4.2683   51.6921   29.1699 H   0  0  0  0  0  0
   -7.1388   48.0222   30.8478 H   0  0  0  0  0  0
   -8.6177   49.6376   31.4861 H   0  0  0  0  0  0
   -7.4115   52.5218   30.6330 H   0  0  0  0  0  0
    0.4813   48.9006   23.1657 H   0  0  0  0  0  0
   -0.6405   50.1508   22.6803 H   0  0  0  0  0  0
    1.4902   51.1794   23.3805 H   0  0  0  0  0  0
    1.5004   50.2276   24.8347 H   0  0  0  0  0  0
    0.0904   53.2930   23.2318 H   0  0  0  0  0  0
   -1.3701   52.3360   23.4080 H   0  0  0  0  0  0
   -1.0738   53.6953   24.4767 H   0  0  0  0  0  0
    1.0689   54.9440   27.6816 H   0  0  0  0  0  0
    2.0200   55.1965   29.1208 H   0  0  0  0  0  0
    2.3042   56.1567   27.6869 H   0  0  0  0  0  0
  1  2  1  0  0  0
  1 43  1  0  0  0
  1 44  1  0  0  0
  1 45  1  0  0  0
  2  3  2  0  0  0
  2  4  1  0  0  0
  4  5  1  0  0  0
  4 10  1  0  0  0
  4  6  1  0  0  0
  6  7  1  0  0  0
  6 46  1  0  0  0
  6 47  1  0  0  0
  7  8  1  0  0  0
  7 48  1  0  0  0
  7 49  1  0  0  0
  8  9  1  0  0  0
  8 15  1  0  0  0
  8 10  1  0  0  0
 10 11  1  0  0  0
 10 42  1  0  0  0
 11 12  1  0  0  0
 11 50  1  0  0  0
 11 51  1  0  0  0
 12 13  1  0  0  0
 12 52  1  0  0  0
 12 53  1  0  0  0
 13 14  1  0  0  0
 13 40  1  0  0  0
 13 15  1  0  0  0
 15 16  1  0  0  0
 15 17  1  0  0  0
 17 18  1  0  0  0
 17 54  1  0  0  0
 17 55  1  0  0  0
 18 19  1  0  0  0
 18 56  1  0  0  0
 18 57  1  0  0  0
 19 40  1  0  0  0
 19 20  2  0  0  0
 20 21  1  0  0  0
 20 58  1  0  0  0
 21 22  2  0  0  0
 21 38  1  0  0  0
 22 23  1  0  0  0
 23 24  1  0  0  0
 24 25  1  0  0  0
 24 59  1  0  0  0
 24 60  1  0  0  0
 25 26  2  0  0  0
 25 27  1  0  0  0
 27 28  1  0  0  0
 27 61  1  0  0  0
 28 29  1  0  0  0
 28 62  1  0  0  0
 28 63  1  0  0  0
 29 30  1  0  0  0
 29 64  1  0  0  0
 29 65  1  0  0  0
 30 35  2  0  0  0
 30 31  1  0  0  0
 31 32  2  0  0  0
 31 66  1  0  0  0
 32 33  1  0  0  0
 32 67  1  0  0  0
 33 34  2  0  0  0
 33 37  1  0  0  0
 34 35  1  0  0  0
 34 36  1  0  0  0
 35 68  1  0  0  0
 36 69  1  0  0  0
 37 70  1  0  0  0
 38 39  1  0  0  0
 38 71  1  0  0  0
 38 72  1  0  0  0
 39 40  1  0  0  0
 39 73  1  0  0  0
 39 74  1  0  0  0
 40 41  1  0  0  0
 41 75  1  0  0  0
 41 76  1  0  0  0
 41 77  1  0  0  0
 42 78  1  0  0  0
 42 79  1  0  0  0
 42 80  1  0  0  0
M  END
> <i_i_glide_confnum>
7

> <i_i_glide_lignum>
4952

> <i_i_glide_posenum>
327

> <i_i_glide_rotatable_bonds>
10

> <i_m_Source_File_Index>
2265

> <b_m_subgroup_collapsed>
0

> <r_i_docking_score>
-4.83267

> <r_i_glide_ecoul>
-3.57811

> <r_i_glide_eff_state_penalty>
0

> <r_i_glide_einternal>
11.1779

> <r_i_glide_emodel>
-48.0138

> <r_i_glide_energy>
-38.8488

> <r_i_glide_erotb>
0.526951

> <r_i_glide_esite>
-0.304163

> <r_i_glide_evdw>
-35.2707

> <r_i_glide_gscore>
-4.83267

> <r_i_glide_hbond>
-0.219289

> <r_i_glide_ligand_efficiency>
-0.127175

> <r_i_glide_ligand_efficiency_ln>
-1.04207

> <r_i_glide_ligand_efficiency_sa>
-0.427561

> <r_i_glide_lipo>
-2.13744

> <r_i_glide_metal>
0

> <r_i_glide_rewards>
-0.398473

> <s_i_glide_gridfile>
wee1_glide-grid

> <s_m_Source_File>
wee1_decoys_glide_SP.sdf

> <s_m_Source_Path>
/Users/zhangxujun/Desktop

> <s_m_entry_id>
2540

> <s_m_entry_name>
wee1_decoys_glide_SP.2265

> <s_m_subgroup_title>
wee1_decoys_glide_SP

> <s_m_subgroupid>
wee1_decoys_glide_SP


$$$$
