@<TRIPOS>MOLECULE
ZINC38547663_2925
54   57    1
SMALL
USER_CHARGES


@<TRIPOS>ATOM
      1 C1         -5.1616   52.8761   24.5215 C.3       1 UNK         0.0000 
      2 C2         -4.7084   51.8779   25.5665 C.ar      1 UNK         0.0000 
      3 C3         -5.5827   50.8944   26.0459 C.ar      1 UNK         0.0000 
      4 C4         -5.1288   49.9710   26.9918 C.ar      1 UNK         0.0000 
      5 N5         -3.8563   50.0503   27.4263 N.pl3     1 UNK         0.0000 
      6 C6         -2.9798   50.9773   26.9968 C.ar      1 UNK         0.0000 
      7 C7         -3.3946   51.9194   26.0471 C.ar      1 UNK         0.0000 
      8 N8         -1.6726   50.8965   27.5274 N.pl3     1 UNK         0.0000 
      9 C9         -0.5224   51.7179   27.1273 C.3       1 UNK         0.0000 
     10 H10        -0.9508   52.7078   26.9694 H         1 UNK         0.0000 
     11 C11         0.4078   51.9379   28.3434 C.ar      1 UNK         0.0000 
     12 C12        -0.1700   52.2005   29.5988 C.ar      1 UNK         0.0000 
     13 C13         0.6126   52.4766   30.7174 C.ar      1 UNK         0.0000 
     14 C14         1.9970   52.5148   30.5944 C.ar      1 UNK         0.0000 
     15 C15         2.5936   52.2905   29.3559 C.ar      1 UNK         0.0000 
     16 C16         1.8077   51.9688   28.2464 C.ar      1 UNK         0.0000 
     17 Br17        4.4786   52.4841   29.1794 Br        1 UNK         0.0000 
     18 C18         0.1189   51.2736   25.7857 C.2       1 UNK         0.0000 
     19 C19         0.9751   52.1105   25.0066 C.2       1 UNK         0.0000 
     20 C20         1.3817   51.5361   23.7939 C.2       1 UNK         0.0000 
     21 S21         0.7637   49.9360   23.6191 S.3       1 UNK         0.0000 
     22 C22        -0.1137   50.0519   25.1106 C.2       1 UNK         0.0000 
     23 N23        -0.9150   48.9711   25.4900 N.am      1 UNK         0.0000 
     24 C24        -1.8934   48.4536   24.7069 C.2       1 UNK         0.0000 
     25 O25        -2.1527   48.8352   23.5627 O.2       1 UNK         0.0000 
     26 C26        -2.6847   47.4125   25.3189 C.2       1 UNK         0.0000 
     27 C27        -2.4298   46.4995   26.3395 C.2       1 UNK         0.0000 
     28 C28        -3.5592   45.6965   26.4787 C.2       1 UNK         0.0000 
     29 C29        -4.4398   46.1012   25.4896 C.2       1 UNK         0.0000 
     30 O30        -3.8986   47.1206   24.7719 O.3       1 UNK         0.0000 
     31 C31         2.2413   52.1164   22.6909 C.3       1 UNK         0.0000 
     32 C32         1.4373   53.4999   25.4087 C.3       1 UNK         0.0000 
     33 H33        -6.1204   52.6048   24.0821 H         1 UNK         0.0000 
     34 H34        -5.2371   53.8731   24.9538 H         1 UNK         0.0000 
     35 H35        -4.4305   52.9187   23.7135 H         1 UNK         0.0000 
     36 H36        -6.5979   50.8362   25.6801 H         1 UNK         0.0000 
     37 H37        -5.7277   49.1725   27.4075 H         1 UNK         0.0000 
     38 H38        -2.7088   52.6606   25.6668 H         1 UNK         0.0000 
     39 H39        -1.4687   50.0584   28.0823 H         1 UNK         0.0000 
     40 H40        -1.2427   52.1926   29.7224 H         1 UNK         0.0000 
     41 H41         0.1419   52.6538   31.6759 H         1 UNK         0.0000 
     42 H42         2.6048   52.7269   31.4589 H         1 UNK         0.0000 
     43 H43         2.3050   51.7812   27.3082 H         1 UNK         0.0000 
     44 H44        -0.9090   48.6950   26.4661 H         1 UNK         0.0000 
     45 H45        -1.5385   46.4537   26.9485 H         1 UNK         0.0000 
     46 H46        -3.6992   44.9101   27.2103 H         1 UNK         0.0000 
     47 H47        -5.4288   45.7822   25.1928 H         1 UNK         0.0000 
     48 H48         2.6291   53.1058   22.9303 H         1 UNK         0.0000 
     49 H49         3.1002   51.4798   22.4735 H         1 UNK         0.0000 
     50 H50         1.6816   52.2162   21.7612 H         1 UNK         0.0000 
     51 H51         1.1088   54.2564   24.6978 H         1 UNK         0.0000 
     52 H52         1.1102   53.8116   26.3990 H         1 UNK         0.0000 
     53 H53         2.5264   53.5616   25.4004 H         1 UNK         0.0000 
     54 H54        -3.5109   49.3539   28.0792 H         1 UNK         0.0000 
@<TRIPOS>BOND
     1    1    2 1    
     2    1   33 1    
     3    1   34 1    
     4    1   35 1    
     5    2    7 ar   
     6    2    3 ar   
     7    3    4 ar   
     8    3   36 1    
     9    4    5 ar   
    10    4   37 1    
    11    5    6 ar   
    12    5   54 1    
    13    6    7 ar   
    14    6    8 1    
    15    7   38 1    
    16    8    9 1    
    17    8   39 1    
    18    9   10 1    
    19    9   11 1    
    20    9   18 1    
    21   11   16 ar   
    22   11   12 ar   
    23   12   13 ar   
    24   12   40 1    
    25   13   14 ar   
    26   13   41 1    
    27   14   15 ar   
    28   14   42 1    
    29   15   16 ar   
    30   15   17 1    
    31   16   43 1    
    32   18   22 2    
    33   18   19 1    
    34   19   20 2    
    35   19   32 1    
    36   20   21 1    
    37   20   31 1    
    38   21   22 1    
    39   22   23 am   BACKBONE|DICT|INTERRES
    40   23   24 am   BACKBONE|DICT|INTERRES
    41   23   44 1    
    42   24   25 2    
    43   24   26 1    
    44   26   30 1    
    45   26   27 2    
    46   27   28 1    
    47   27   45 1    
    48   28   29 2    
    49   28   46 1    
    50   29   30 1    
    51   29   47 1    
    52   31   48 1    
    53   31   49 1    
    54   31   50 1    
    55   32   51 1    
    56   32   52 1    
    57   32   53 1    
@<TRIPOS>SUBSTRUCTURE
     1 UNK         1 GROUP             0       ****    0 ROOT    
