@<TRIPOS>MOLECULE
ZINC64930547_2791
50   53    1
SMALL
USER_CHARGES


@<TRIPOS>ATOM
      1 C1         -0.4633   49.4706   21.4707 C.ar      1 UNK         0.0000 
      2 C2         -1.2797   49.8232   22.5426 C.ar      1 UNK         0.0000 
      3 C3         -0.7093   50.1134   23.7801 C.ar      1 UNK         0.0000 
      4 C4          0.6706   50.0449   23.9585 C.ar      1 UNK         0.0000 
      5 C5          1.4884   49.6961   22.8877 C.ar      1 UNK         0.0000 
      6 C6          0.9234   49.4232   21.6391 C.ar      1 UNK         0.0000 
      7 C7          1.8210   49.0393   20.4687 C.3       1 UNK         0.0000 
      8 N8          2.2226   50.2006   19.6767 N.am      1 UNK         0.0000 
      9 C9          3.1041   51.1351   20.0807 C.2       1 UNK         0.0000 
     10 O10         3.9065   50.8967   20.9840 O.2       1 UNK         0.0000 
     11 N11         3.0753   52.3243   19.4143 N.am      1 UNK         0.0000 
     12 C12         2.0992   52.6457   18.3502 C.3       1 UNK         0.0000 
     13 C13         2.9306   53.4706   17.3708 C.3       1 UNK         0.0000 
     14 C14         3.9099   54.2155   18.2523 C.3       1 UNK         0.0000 
     15 C15         4.2813   53.1822   19.3197 C.3       1 UNK         0.0000 
     16 H16         5.0978   52.5655   18.9355 H         1 UNK         0.0000 
     17 C17         4.8024   53.8320   20.6028 C.2       1 UNK         0.0000 
     18 N18         5.9051   54.5386   20.6190 N.2       1 UNK         0.0000 
     19 N19         6.3218   54.9013   21.8929 N.2       1 UNK         0.0000 
     20 C20         5.5215   54.4965   22.8505 C.2       1 UNK         0.0000 
     21 S21         4.1027   53.6992   22.1940 S.3       1 UNK         0.0000 
     22 C22         5.6995   54.6550   24.2798 C.2       1 UNK         0.0000 
     23 O23         6.7044   55.2140   24.7225 O.2       1 UNK         0.0000 
     24 N24         4.6881   54.1712   25.0332 N.am      1 UNK         0.0000 
     25 C25         4.5513   54.1117   26.4273 C.ar      1 UNK         0.0000 
     26 C26         3.3022   53.6967   26.8963 C.ar      1 UNK         0.0000 
     27 C27         3.0792   53.5631   28.2631 C.ar      1 UNK         0.0000 
     28 C28         4.1057   53.8481   29.1571 C.ar      1 UNK         0.0000 
     29 C29         5.3478   54.2760   28.6998 C.ar      1 UNK         0.0000 
     30 C30         5.5789   54.4041   27.3363 C.ar      1 UNK         0.0000 
     31 F31         3.8979   53.6968   30.4812 F         1 UNK         0.0000 
     32 F32        -1.5028   50.4679   24.8152 F         1 UNK         0.0000 
     33 H33        -0.9054   49.2494   20.5094 H         1 UNK         0.0000 
     34 H34        -2.3513   49.8739   22.4187 H         1 UNK         0.0000 
     35 H35         1.1036   50.2563   24.9243 H         1 UNK         0.0000 
     36 H36         2.5592   49.6407   23.0289 H         1 UNK         0.0000 
     37 H37         1.2950   48.3397   19.8175 H         1 UNK         0.0000 
     38 H38         2.7036   48.5030   20.8294 H         1 UNK         0.0000 
     39 H39         1.6849   50.3900   18.8465 H         1 UNK         0.0000 
     40 H40         1.3285   53.3123   18.7368 H         1 UNK         0.0000 
     41 H41         1.7147   51.7900   17.7945 H         1 UNK         0.0000 
     42 H42         2.3183   54.1256   16.7505 H         1 UNK         0.0000 
     43 H43         3.4719   52.8042   16.6949 H         1 UNK         0.0000 
     44 H44         3.4250   55.0870   18.6956 H         1 UNK         0.0000 
     45 H45         4.7799   54.5586   17.6911 H         1 UNK         0.0000 
     46 H46         3.9143   53.7779   24.5209 H         1 UNK         0.0000 
     47 H47         2.5018   53.4614   26.2088 H         1 UNK         0.0000 
     48 H48         2.1190   53.2303   28.6282 H         1 UNK         0.0000 
     49 H49         6.1406   54.4969   29.3979 H         1 UNK         0.0000 
     50 H50         6.5622   54.7124   27.0226 H         1 UNK         0.0000 
@<TRIPOS>BOND
     1    1    6 ar   
     2    1    2 ar   
     3    1   33 1    
     4    2    3 ar   
     5    2   34 1    
     6    3    4 ar   
     7    3   32 1    
     8    4    5 ar   
     9    4   35 1    
    10    5    6 ar   
    11    5   36 1    
    12    6    7 1    
    13    7    8 1    
    14    7   37 1    
    15    7   38 1    
    16    8    9 am   BACKBONE|DICT|INTERRES
    17    8   39 1    
    18    9   10 2    
    19    9   11 am   BACKBONE|DICT|INTERRES
    20   11   15 1    
    21   11   12 1    
    22   12   13 1    
    23   12   40 1    
    24   12   41 1    
    25   13   14 1    
    26   13   42 1    
    27   13   43 1    
    28   14   15 1    
    29   14   44 1    
    30   14   45 1    
    31   15   16 1    
    32   15   17 1    
    33   17   21 1    
    34   17   18 2    
    35   18   19 1    
    36   19   20 2    
    37   20   21 1    
    38   20   22 1    
    39   22   23 2    
    40   22   24 am   BACKBONE|DICT|INTERRES
    41   24   25 1    
    42   24   46 1    
    43   25   30 ar   
    44   25   26 ar   
    45   26   27 ar   
    46   26   47 1    
    47   27   28 ar   
    48   27   48 1    
    49   28   29 ar   
    50   28   31 1    
    51   29   30 ar   
    52   29   49 1    
    53   30   50 1    
@<TRIPOS>SUBSTRUCTURE
     1 UNK         1 GROUP             0       ****    0 ROOT    
