ZINC16572527_3968
                    3D
 Schrodinger Suite 2024-2.
 69 72  0  0  1  0            999 V2000
   -0.7969   47.4354   20.6125 C   0  0  0  0  0  0
    0.2127   47.8714   19.5243 C   0  0  0  0  0  0
    1.5931   48.2042   20.1243 C   0  0  0  0  0  0
    0.3468   46.9029   18.3217 C   0  0  0  0  0  0
    0.0496   45.5440   18.5051 C   0  0  0  0  0  0
    0.2119   44.6258   17.4774 C   0  0  0  0  0  0
    0.6779   45.0441   16.2383 C   0  0  0  0  0  0
    0.9814   46.3898   15.9963 C   0  0  0  0  0  0
    0.8010   47.3283   17.0412 C   0  0  0  0  0  0
    1.1086   48.6790   16.7842 N   0  0  0  0  0  0
    0.2208   49.6945   16.8084 C   0  0  0  0  0  0
   -0.9961   49.5048   16.9150 O   0  0  0  0  0  0
    0.7594   50.9397   16.7905 N   0  0  0  0  0  0
    2.1235   51.3003   16.3925 C   0  0  0  0  0  0
    1.9955   52.7248   15.8768 C   0  0  0  0  0  0
    0.9261   53.3240   16.7772 C   0  0  0  0  0  0
   -0.0213   52.1520   17.1223 C   0  0  2  0  0  0
   -0.8949   52.1825   16.4677 H   0  0  0  0  0  0
   -0.4715   52.1963   18.5976 C   0  0  0  0  0  0
   -1.6407   52.4970   18.8552 O   0  0  0  0  0  0
    0.4888   51.9205   19.5054 N   0  0  0  0  0  0
    0.3626   52.0324   20.8778 C   0  0  0  0  0  0
   -0.7222   51.8678   21.6005 N   0  0  0  0  0  0
   -0.4905   52.0955   22.9536 N   0  0  0  0  0  0
    0.7526   52.4393   23.2151 C   0  0  0  0  0  0
    1.7631   52.4944   21.7919 S   0  0  0  0  0  0
    1.2894   52.7362   24.5824 C   0  0  0  0  0  0
    0.6447   52.2317   25.7165 C   0  0  0  0  0  0
    1.1449   52.4983   26.9895 C   0  0  0  0  0  0
    2.2959   53.2696   27.1539 C   0  0  0  0  0  0
    2.9403   53.7801   26.0177 C   0  0  0  0  0  0
    2.4366   53.5204   24.7454 C   0  0  0  0  0  0
    2.7254   53.4740   28.4526 O   0  0  0  0  0  0
    3.9137   54.2285   28.6818 C   0  0  0  0  0  0
    1.4748   46.8134   14.5929 C   0  0  0  0  0  0
    3.0049   46.9611   14.5604 C   0  0  0  0  0  0
    1.0103   45.9007   13.4353 C   0  0  0  0  0  0
   -1.7787   47.2517   20.1758 H   0  0  0  0  0  0
   -0.4976   46.5327   21.1398 H   0  0  0  0  0  0
   -0.9212   48.2186   21.3617 H   0  0  0  0  0  0
   -0.2183   48.8059   19.1790 H   0  0  0  0  0  0
    2.2459   48.6723   19.3843 H   0  0  0  0  0  0
    1.5068   48.8987   20.9624 H   0  0  0  0  0  0
    2.1013   47.3090   20.4811 H   0  0  0  0  0  0
   -0.2943   45.1677   19.4541 H   0  0  0  0  0  0
   -0.0150   43.5833   17.6391 H   0  0  0  0  0  0
    0.8039   44.2975   15.4672 H   0  0  0  0  0  0
    2.0878   48.8965   16.6270 H   0  0  0  0  0  0
    2.7719   51.2588   17.2683 H   0  0  0  0  0  0
    2.5326   50.6420   15.6245 H   0  0  0  0  0  0
    2.9360   53.2763   15.8882 H   0  0  0  0  0  0
    1.6326   52.7027   14.8478 H   0  0  0  0  0  0
    1.4049   53.7290   17.6726 H   0  0  0  0  0  0
    0.4043   54.1524   16.2969 H   0  0  0  0  0  0
    1.4186   51.7485   19.1526 H   0  0  0  0  0  0
   -0.2437   51.6223   25.6190 H   0  0  0  0  0  0
    0.6396   52.0970   27.8581 H   0  0  0  0  0  0
    3.8328   54.3796   26.1023 H   0  0  0  0  0  0
    2.9488   53.9314   23.8890 H   0  0  0  0  0  0
    4.1164   54.2724   29.7509 H   0  0  0  0  0  0
    4.7806   53.7677   28.2055 H   0  0  0  0  0  0
    3.8069   55.2543   28.3252 H   0  0  0  0  0  0
    1.0308   47.7855   14.3759 H   0  0  0  0  0  0
    3.3463   47.6966   15.2818 H   0  0  0  0  0  0
    3.5021   46.0244   14.8100 H   0  0  0  0  0  0
    3.3567   47.2937   13.5831 H   0  0  0  0  0  0
   -0.0644   45.7172   13.4819 H   0  0  0  0  0  0
    1.2147   46.3613   12.4681 H   0  0  0  0  0  0
    1.5177   44.9354   13.4406 H   0  0  0  0  0  0
  1  2  1  0  0  0
  1 38  1  0  0  0
  1 39  1  0  0  0
  1 40  1  0  0  0
  2  3  1  0  0  0
  2  4  1  0  0  0
  2 41  1  0  0  0
  3 42  1  0  0  0
  3 43  1  0  0  0
  3 44  1  0  0  0
  4  9  2  0  0  0
  4  5  1  0  0  0
  5  6  2  0  0  0
  5 45  1  0  0  0
  6  7  1  0  0  0
  6 46  1  0  0  0
  7  8  2  0  0  0
  7 47  1  0  0  0
  8  9  1  0  0  0
  8 35  1  0  0  0
  9 10  1  0  0  0
 10 11  1  0  0  0
 10 48  1  0  0  0
 11 12  2  0  0  0
 11 13  1  0  0  0
 13 17  1  0  0  0
 13 14  1  0  0  0
 14 15  1  0  0  0
 14 49  1  0  0  0
 14 50  1  0  0  0
 15 16  1  0  0  0
 15 51  1  0  0  0
 15 52  1  0  0  0
 16 17  1  0  0  0
 16 53  1  0  0  0
 16 54  1  0  0  0
 17 18  1  0  0  0
 17 19  1  0  0  0
 19 20  2  0  0  0
 19 21  1  0  0  0
 21 22  1  0  0  0
 21 55  1  0  0  0
 22 26  1  0  0  0
 22 23  2  0  0  0
 23 24  1  0  0  0
 24 25  2  0  0  0
 25 26  1  0  0  0
 25 27  1  0  0  0
 27 32  2  0  0  0
 27 28  1  0  0  0
 28 29  2  0  0  0
 28 56  1  0  0  0
 29 30  1  0  0  0
 29 57  1  0  0  0
 30 31  2  0  0  0
 30 33  1  0  0  0
 31 32  1  0  0  0
 31 58  1  0  0  0
 32 59  1  0  0  0
 33 34  1  0  0  0
 34 60  1  0  0  0
 34 61  1  0  0  0
 34 62  1  0  0  0
 35 36  1  0  0  0
 35 37  1  0  0  0
 35 63  1  0  0  0
 36 64  1  0  0  0
 36 65  1  0  0  0
 36 66  1  0  0  0
 37 67  1  0  0  0
 37 68  1  0  0  0
 37 69  1  0  0  0
M  END
> <i_i_glide_confnum>
205

> <i_i_glide_lignum>
3969

> <i_i_glide_posenum>
382

> <i_i_glide_rotatable_bonds>
10

> <i_m_Source_File_Index>
4271

> <b_m_subgroup_collapsed>
0

> <r_i_docking_score>
-3.77387

> <r_i_glide_ecoul>
-6.53452

> <r_i_glide_eff_state_penalty>
0

> <r_i_glide_einternal>
10.1115

> <r_i_glide_emodel>
-44.0057

> <r_i_glide_energy>
-38.9247

> <r_i_glide_erotb>
0.555966

> <r_i_glide_esite>
-0.162509

> <r_i_glide_evdw>
-32.3902

> <r_i_glide_gscore>
-3.77387

> <r_i_glide_hbond>
-0.184075

> <r_i_glide_ligand_efficiency>
-0.10483

> <r_i_glide_ligand_efficiency_ln>
-0.823357

> <r_i_glide_ligand_efficiency_sa>
-0.34614

> <r_i_glide_lipo>
-1.38559

> <r_i_glide_metal>
0

> <r_i_glide_rewards>
0.00202253

> <s_i_glide_gridfile>
wee1_glide-grid

> <s_m_Source_File>
wee1_decoys_glide_SP.sdf

> <s_m_Source_Path>
/Users/zhangxujun/Desktop

> <s_m_entry_id>
4546

> <s_m_entry_name>
wee1_decoys_glide_SP.4271

> <s_m_subgroup_title>
wee1_decoys_glide_SP

> <s_m_subgroupid>
wee1_decoys_glide_SP


$$$$
