ZINC19631814_264
                    3D
 Schrodinger Suite 2024-2.
 56 59  0  0  1  0            999 V2000
   -0.1132   51.4746   23.8414 C   0  0  0  0  0  0
    0.0287   52.8965   23.2818 C   0  0  0  0  0  0
    1.3008   53.4406   23.6250 O   0  0  0  0  0  0
    2.3661   53.2960   22.8029 C   0  0  0  0  0  0
    2.3044   52.8248   21.6643 O   0  0  0  0  0  0
    3.6317   53.7657   23.4026 C   0  0  0  0  0  0
    3.9236   53.8981   24.7950 C   0  0  0  0  0  0
    5.2664   54.2385   25.0413 C   0  0  0  0  0  0
    6.1598   54.4964   23.5945 S   0  0  0  0  0  0
    4.7464   54.1604   22.6314 C   0  0  0  0  0  0
    4.7265   54.3203   21.2445 N   0  0  0  0  0  0
    5.6413   54.8967   20.4298 C   0  0  0  0  0  0
    6.7449   55.3089   20.7905 O   0  0  0  0  0  0
    5.1623   55.1183   19.0731 C   0  0  0  0  0  0
    5.3339   56.3565   18.5305 C   0  0  0  0  0  0
    4.7681   56.7655   17.2422 C   0  0  0  0  0  0
    4.8565   58.0560   16.7156 C   0  0  0  0  0  0
    4.2227   58.3443   15.5057 C   0  0  0  0  0  0
    3.5122   57.3492   14.8265 C   0  0  0  0  0  0
    3.4231   56.0553   15.3501 C   0  0  0  0  0  0
    4.0482   55.7744   16.5716 C   0  0  0  0  0  0
    3.9349   54.5092   17.1370 O   0  0  0  0  0  0
    4.4679   54.1748   18.2770 C   0  0  0  0  0  0
    4.3057   52.8968   18.5635 N   0  3  0  0  0  0
    2.7093   55.1025   14.6658 O   0  0  0  0  0  0
    3.5058   54.1205   14.0138 C   0  0  0  0  0  0
    5.9361   54.2880   26.4075 C   0  0  0  0  0  0
    4.8499   54.3803   27.5011 C   0  0  1  0  0  0
    4.4121   55.3704   27.4814 H   0  0  0  0  0  0
    3.7539   53.3376   27.2656 C   0  0  0  0  0  0
    2.9715   53.5861   25.9624 C   0  0  0  0  0  0
    5.4894   54.1898   28.8814 C   0  0  0  0  0  0
   -1.0951   51.0616   23.6104 H   0  0  0  0  0  0
    0.6362   50.8055   23.4165 H   0  0  0  0  0  0
    0.0054   51.4640   24.9253 H   0  0  0  0  0  0
   -0.7475   53.5385   23.6965 H   0  0  0  0  0  0
   -0.1287   52.8960   22.2015 H   0  0  0  0  0  0
    3.8420   54.0675   20.8214 H   0  0  0  0  0  0
    5.8550   57.1170   19.0995 H   0  0  0  0  0  0
    5.3908   58.8412   17.2347 H   0  0  0  0  0  0
    4.2775   59.3464   15.1032 H   0  0  0  0  0  0
    3.0225   57.5827   13.8926 H   0  0  0  0  0  0
    3.8320   52.2666   17.9213 H   0  0  0  0  0  0
    2.8596   53.4539   13.4425 H   0  0  0  0  0  0
    4.2127   54.5747   13.3166 H   0  0  0  0  0  0
    4.0629   53.5077   14.7240 H   0  0  0  0  0  0
    6.6222   55.1329   26.4792 H   0  0  0  0  0  0
    6.5272   53.3802   26.5435 H   0  0  0  0  0  0
    3.0554   53.3341   28.1041 H   0  0  0  0  0  0
    4.2032   52.3532   27.2908 H   0  0  0  0  0  0
    2.3560   52.7094   25.7602 H   0  0  0  0  0  0
    2.2798   54.4151   26.1014 H   0  0  0  0  0  0
    5.9043   53.1861   28.9759 H   0  0  0  0  0  0
    6.3016   54.8965   29.0366 H   0  0  0  0  0  0
    4.7629   54.3357   29.6812 H   0  0  0  0  0  0
    4.7025   52.4668   19.3931 H   0  0  0  0  0  0
  1  2  1  0  0  0
  1 33  1  0  0  0
  1 34  1  0  0  0
  1 35  1  0  0  0
  2  3  1  0  0  0
  2 36  1  0  0  0
  2 37  1  0  0  0
  3  4  1  0  0  0
  4  5  2  0  0  0
  4  6  1  0  0  0
  6 10  2  0  0  0
  6  7  1  0  0  0
  7 31  1  0  0  0
  7  8  2  0  0  0
  8  9  1  0  0  0
  8 27  1  0  0  0
  9 10  1  0  0  0
 10 11  1  0  0  0
 11 12  1  0  0  0
 11 38  1  0  0  0
 12 13  2  0  0  0
 12 14  1  0  0  0
 14 23  1  0  0  0
 14 15  2  0  0  0
 15 16  1  0  0  0
 15 39  1  0  0  0
 16 21  2  0  0  0
 16 17  1  0  0  0
 17 18  2  0  0  0
 17 40  1  0  0  0
 18 19  1  0  0  0
 18 41  1  0  0  0
 19 20  2  0  0  0
 19 42  1  0  0  0
 20 21  1  0  0  0
 20 25  1  0  0  0
 21 22  1  0  0  0
 22 23  1  0  0  0
 23 24  2  0  0  0
 24 43  1  0  0  0
 24 56  1  0  0  0
 25 26  1  0  0  0
 26 44  1  0  0  0
 26 45  1  0  0  0
 26 46  1  0  0  0
 27 28  1  0  0  0
 27 47  1  0  0  0
 27 48  1  0  0  0
 28 29  1  0  0  0
 28 30  1  0  0  0
 28 32  1  0  0  0
 30 31  1  0  0  0
 30 49  1  0  0  0
 30 50  1  0  0  0
 31 51  1  0  0  0
 31 52  1  0  0  0
 32 53  1  0  0  0
 32 54  1  0  0  0
 32 55  1  0  0  0
M  CHG  1  24   1
M  END
> <i_i_glide_confnum>
20

> <i_i_glide_lignum>
265

> <i_i_glide_posenum>
377

> <i_i_glide_rotatable_bonds>
7

> <i_m_Source_File_Index>
796

> <b_m_subgroup_collapsed>
0

> <r_i_docking_score>
-4.95266

> <r_i_glide_ecoul>
-1.70273

> <r_i_glide_eff_state_penalty>
0

> <r_i_glide_einternal>
16.9342

> <r_i_glide_emodel>
-43.0627

> <r_i_glide_energy>
-36.6858

> <r_i_glide_erotb>
0.512353

> <r_i_glide_esite>
-0.0848379

> <r_i_glide_evdw>
-34.9831

> <r_i_glide_gscore>
-4.95266

> <r_i_glide_hbond>
0

> <r_i_glide_ligand_efficiency>
-0.159763

> <r_i_glide_ligand_efficiency_ln>
-1.11698

> <r_i_glide_ligand_efficiency_sa>
-0.501877

> <r_i_glide_lipo>
-2.53022

> <r_i_glide_metal>
0

> <r_i_glide_rewards>
-0.84539

> <s_i_glide_gridfile>
wee1_glide-grid

> <s_m_Source_File>
wee1_decoys_glide_SP.sdf

> <s_m_Source_Path>
/Users/zhangxujun/Desktop

> <s_m_entry_id>
1071

> <s_m_entry_name>
wee1_decoys_glide_SP.796

> <s_m_subgroup_title>
wee1_decoys_glide_SP

> <s_m_subgroupid>
wee1_decoys_glide_SP


$$$$
