@<TRIPOS>MOLECULE
ZINC67134287_1511
45   48    1
SMALL
USER_CHARGES


@<TRIPOS>ATOM
      1 C1          4.4188   54.0197   16.6212 C.3       1 UNK         0.0000 
      2 C2          4.6489   54.0448   18.1210 C.ar      1 UNK         0.0000 
      3 C3          5.2723   55.1394   18.7200 C.ar      1 UNK         0.0000 
      4 C4          5.5045   55.1494   20.0943 C.ar      1 UNK         0.0000 
      5 C5          5.1105   54.0630   20.8940 C.ar      1 UNK         0.0000 
      6 C6          4.4977   52.9576   20.2822 C.ar      1 UNK         0.0000 
      7 C7          4.2663   52.9574   18.9074 C.ar      1 UNK         0.0000 
      8 O8          4.1247   51.8482   21.0008 O.3       1 UNK         0.0000 
      9 N9          5.3131   54.0284   22.2879 N.am      1 UNK         0.0000 
     10 C10         6.1940   54.7255   23.0375 C.2       1 UNK         0.0000 
     11 O11         7.0967   55.4306   22.5799 O.2       1 UNK         0.0000 
     12 C12         5.9796   54.6108   24.4678 C.ar      1 UNK         0.0000 
     13 C13         4.7825   54.2992   25.1487 C.ar      1 UNK         0.0000 
     14 N14         5.1493   54.2990   26.4868 N.pl3     1 UNK         0.0000 
     15 N15         6.4254   54.6690   26.6245 N.2       1 UNK         0.0000 
     16 N16         6.9147   54.8942   25.3574 N.2       1 UNK         0.0000 
     17 C17         4.4062   53.9239   27.6303 C.ar      1 UNK         0.0000 
     18 C18         4.9193   52.9339   28.4807 C.ar      1 UNK         0.0000 
     19 C19         4.1730   52.4732   29.5655 C.ar      1 UNK         0.0000 
     20 C20         2.9072   52.9995   29.8032 C.ar      1 UNK         0.0000 
     21 C21         2.4091   54.0342   28.9949 C.ar      1 UNK         0.0000 
     22 C22         3.1576   54.4966   27.9106 C.ar      1 UNK         0.0000 
     23 O23         1.1487   54.5683   29.1817 O.3       1 UNK         0.0000 
     24 C24         0.5713   54.2797   30.4614 C.3       1 UNK         0.0000 
     25 C25         0.8084   52.8010   30.8604 C.3       1 UNK         0.0000 
     26 O26         2.2115   52.5079   30.8865 O.3       1 UNK         0.0000 
     27 C27         3.3835   53.9513   24.6518 C.3       1 UNK         0.0000 
     28 H28         5.2034   54.5677   16.0973 H         1 UNK         0.0000 
     29 H29         3.4529   54.4609   16.3735 H         1 UNK         0.0000 
     30 H30         4.4454   52.9968   16.2419 H         1 UNK         0.0000 
     31 H31         5.5788   55.9862   18.1234 H         1 UNK         0.0000 
     32 H32         5.9711   56.0227   20.5213 H         1 UNK         0.0000 
     33 H33         3.8099   52.0975   18.4368 H         1 UNK         0.0000 
     34 H34         3.8053   51.1609   20.4091 H         1 UNK         0.0000 
     35 H35         4.6995   53.3950   22.7786 H         1 UNK         0.0000 
     36 H36         5.8881   52.4960   28.2835 H         1 UNK         0.0000 
     37 H37         4.5687   51.6988   30.2055 H         1 UNK         0.0000 
     38 H38         2.7537   55.2791   27.2859 H         1 UNK         0.0000 
     39 H39        -0.4953   54.4967   30.4277 H         1 UNK         0.0000 
     40 H40         1.0157   54.9347   31.2119 H         1 UNK         0.0000 
     41 H41         0.3164   52.1485   30.1368 H         1 UNK         0.0000 
     42 H42         0.3726   52.5895   31.8379 H         1 UNK         0.0000 
     43 H43         3.1169   54.5219   23.7619 H         1 UNK         0.0000 
     44 H44         3.2996   52.8980   24.3916 H         1 UNK         0.0000 
     45 H45         2.5901   54.1516   25.3662 H         1 UNK         0.0000 
@<TRIPOS>BOND
     1    1    2 1    
     2    1   28 1    
     3    1   29 1    
     4    1   30 1    
     5    2    7 ar   
     6    2    3 ar   
     7    3    4 ar   
     8    3   31 1    
     9    4    5 ar   
    10    4   32 1    
    11    5    6 ar   
    12    5    9 1    
    13    6    7 ar   
    14    6    8 1    
    15    7   33 1    
    16    8   34 1    
    17    9   10 am   BACKBONE|DICT|INTERRES
    18    9   35 1    
    19   10   11 2    
    20   10   12 1    
    21   12   16 ar   
    22   12   13 ar   
    23   13   14 ar   
    24   13   27 1    
    25   14   15 ar   
    26   14   17 1    
    27   15   16 ar   
    28   17   22 ar   
    29   17   18 ar   
    30   18   19 ar   
    31   18   36 1    
    32   19   20 ar   
    33   19   37 1    
    34   20   26 1    
    35   20   21 ar   
    36   21   22 ar   
    37   21   23 1    
    38   22   38 1    
    39   23   24 1    
    40   24   25 1    
    41   24   39 1    
    42   24   40 1    
    43   25   26 1    
    44   25   41 1    
    45   25   42 1    
    46   27   43 1    
    47   27   44 1    
    48   27   45 1    
@<TRIPOS>SUBSTRUCTURE
     1 UNK         1 GROUP             0       ****    0 ROOT    
