@<TRIPOS>MOLECULE
ZINC09406872_5032
63   67    1
SMALL
USER_CHARGES


@<TRIPOS>ATOM
      1 C1          1.9719   53.6048   26.4153 C.3       1 UNK         0.0000 
      2 C2          3.0557   53.9447   25.4074 C.ar      1 UNK         0.0000 
      3 C3          4.3409   54.2797   25.8448 C.ar      1 UNK         0.0000 
      4 C4          5.3625   54.5217   24.9218 C.ar      1 UNK         0.0000 
      5 C5          5.0981   54.4154   23.5547 C.ar      1 UNK         0.0000 
      6 C6          3.8085   54.0961   23.1078 C.ar      1 UNK         0.0000 
      7 C7          2.7868   53.8762   24.0360 C.ar      1 UNK         0.0000 
      8 N8          3.5047   54.0128   21.7415 N.am      1 UNK         0.0000 
      9 C9          4.1682   53.2593   20.8420 C.2       1 UNK         0.0000 
     10 O10         5.1027   52.5144   21.1447 O.2       1 UNK         0.0000 
     11 C11         3.6659   53.3341   19.3820 C.3       1 UNK         0.0000 
     12 H12         3.1055   54.2606   19.2790 H         1 UNK         0.0000 
     13 C13         2.7443   52.1192   19.1174 C.3       1 UNK         0.0000 
     14 C14         2.2259   52.1811   17.6643 C.3       1 UNK         0.0000 
     15 C15         3.3840   52.2467   16.6490 C.3       1 UNK         0.0000 
     16 N16         4.3811   53.2944   16.9955 N.pl3     1 UNK         0.0000 
     17 C17         4.8660   53.3543   18.3990 C.3       1 UNK         0.0000 
     18 S18         4.8175   54.5325   15.8079 S.o2      1 UNK         0.0000 
     19 O19         6.0305   55.2252   16.2631 O.2       1 UNK         0.0000 
     20 O20         4.7236   53.9428   14.4666 O.2       1 UNK         0.0000 
     21 C21         3.4710   55.7086   15.9033 C.ar      1 UNK         0.0000 
     22 C22         3.7075   57.0238   16.3205 C.ar      1 UNK         0.0000 
     23 C23         2.6804   57.9648   16.4071 C.ar      1 UNK         0.0000 
     24 C24         1.3975   57.5136   16.0817 C.ar      1 UNK         0.0000 
     25 C25         1.1312   56.1901   15.6593 C.ar      1 UNK         0.0000 
     26 C26         2.1855   55.2809   15.5478 C.ar      1 UNK         0.0000 
     27 N27        -0.2057   55.9991   15.4182 N.2       1 UNK         0.0000 
     28 C28        -0.7652   57.1626   15.6655 C.ar      1 UNK         0.0000 
     29 N29         0.1584   58.0981   16.0810 N.pl3     1 UNK         0.0000 
     30 H30        -0.0737   59.0440   16.3484 H         1 UNK         0.0000 
     31 C31        -2.2263   57.4564   15.5160 C.ar      1 UNK         0.0000 
     32 C32        -3.1516   56.4092   15.4372 C.ar      1 UNK         0.0000 
     33 C33        -4.5092   56.6810   15.2825 C.ar      1 UNK         0.0000 
     34 C34        -4.9451   58.0031   15.2099 C.ar      1 UNK         0.0000 
     35 C35        -4.0343   59.0534   15.2822 C.ar      1 UNK         0.0000 
     36 C36        -2.6768   58.7803   15.4353 C.ar      1 UNK         0.0000 
     37 C37         6.7458   54.9192   25.3981 C.3       1 UNK         0.0000 
     38 H38         1.1942   52.9840   25.9662 H         1 UNK         0.0000 
     39 H39         1.5109   54.4965   26.8398 H         1 UNK         0.0000 
     40 H40         2.3939   53.0210   27.2338 H         1 UNK         0.0000 
     41 H41         4.5468   54.3401   26.9035 H         1 UNK         0.0000 
     42 H42         5.8879   54.5968   22.8381 H         1 UNK         0.0000 
     43 H43         1.7948   53.6185   23.6932 H         1 UNK         0.0000 
     44 H44         2.6483   54.4537   21.4305 H         1 UNK         0.0000 
     45 H45         3.2910   51.1774   19.2079 H         1 UNK         0.0000 
     46 H46         1.8625   52.1309   19.7601 H         1 UNK         0.0000 
     47 H47         1.6074   51.3079   17.4504 H         1 UNK         0.0000 
     48 H48         1.5778   53.0501   17.5427 H         1 UNK         0.0000 
     49 H49         3.9039   51.2971   16.5958 H         1 UNK         0.0000 
     50 H50         3.0131   52.4164   15.6398 H         1 UNK         0.0000 
     51 H51         5.4480   54.2702   18.5088 H         1 UNK         0.0000 
     52 H52         5.5278   52.4968   18.5253 H         1 UNK         0.0000 
     53 H53         4.7127   57.3366   16.5736 H         1 UNK         0.0000 
     54 H54         2.8685   58.9820   16.7295 H         1 UNK         0.0000 
     55 H55         1.9953   54.2750   15.2043 H         1 UNK         0.0000 
     56 H56        -2.8221   55.3821   15.4929 H         1 UNK         0.0000 
     57 H57        -5.2197   55.8709   15.2172 H         1 UNK         0.0000 
     58 H58        -5.9979   58.2111   15.0834 H         1 UNK         0.0000 
     59 H59        -4.3778   60.0746   15.2065 H         1 UNK         0.0000 
     60 H60        -1.9819   59.6077   15.4730 H         1 UNK         0.0000 
     61 H61         7.2554   55.5310   24.6517 H         1 UNK         0.0000 
     62 H62         6.6876   55.5131   26.3112 H         1 UNK         0.0000 
     63 H63         7.3401   54.0288   25.5950 H         1 UNK         0.0000 
@<TRIPOS>BOND
     1    1    2 1    
     2    1   38 1    
     3    1   39 1    
     4    1   40 1    
     5    2    7 ar   
     6    2    3 ar   
     7    3    4 ar   
     8    3   41 1    
     9    4    5 ar   
    10    4   37 1    
    11    5    6 ar   
    12    5   42 1    
    13    6    7 ar   
    14    6    8 1    
    15    7   43 1    
    16    8    9 am   BACKBONE|DICT|INTERRES
    17    8   44 1    
    18    9   10 2    
    19    9   11 1    
    20   11   12 1    
    21   11   17 1    
    22   11   13 1    
    23   13   14 1    
    24   13   45 1    
    25   13   46 1    
    26   14   15 1    
    27   14   47 1    
    28   14   48 1    
    29   15   16 1    
    30   15   49 1    
    31   15   50 1    
    32   16   17 1    
    33   16   18 1    
    34   17   51 1    
    35   17   52 1    
    36   18   19 2    
    37   18   20 2    
    38   18   21 1    
    39   21   26 ar   
    40   21   22 ar   
    41   22   23 ar   
    42   22   53 1    
    43   23   24 ar   
    44   23   54 1    
    45   24   29 ar   
    46   24   25 ar   
    47   25   26 ar   
    48   25   27 ar   
    49   26   55 1    
    50   27   28 ar   
    51   28   29 ar   
    52   28   31 1    
    53   29   30 1    
    54   31   36 ar   
    55   31   32 ar   
    56   32   33 ar   
    57   32   56 1    
    58   33   34 ar   
    59   33   57 1    
    60   34   35 ar   
    61   34   58 1    
    62   35   36 ar   
    63   35   59 1    
    64   36   60 1    
    65   37   61 1    
    66   37   62 1    
    67   37   63 1    
@<TRIPOS>SUBSTRUCTURE
     1 UNK         1 GROUP             0       ****    0 ROOT    
