@<TRIPOS>MOLECULE
ZINC39657127_3678
62   66    1
SMALL
USER_CHARGES


@<TRIPOS>ATOM
      1 C1          1.9695   49.2131   21.2506 C.3       1 UNK         0.0000 
      2 C2          1.5264   50.6664   21.4875 C.3       1 UNK         0.0000 
      3 H3          0.6021   50.8381   20.9280 H         1 UNK         0.0000 
      4 C4          2.5253   51.6643   20.8892 C.ar      1 UNK         0.0000 
      5 C5          2.6947   51.6818   19.5000 C.ar      1 UNK         0.0000 
      6 C6          3.5906   52.5660   18.9108 C.ar      1 UNK         0.0000 
      7 C7          4.3234   53.4405   19.7075 C.ar      1 UNK         0.0000 
      8 C8          4.1628   53.4400   21.0888 C.ar      1 UNK         0.0000 
      9 C9          3.2582   52.5613   21.6807 C.ar      1 UNK         0.0000 
     10 Br10        5.5652   54.6426   18.9091 Br        1 UNK         0.0000 
     11 N11         1.2162   50.8869   22.9056 N.am      1 UNK         0.0000 
     12 C12         0.0718   50.5425   23.5271 C.2       1 UNK         0.0000 
     13 O13        -0.8422   49.9813   22.9311 O.2       1 UNK         0.0000 
     14 C14        -0.0742   50.8467   25.0447 C.3       1 UNK         0.0000 
     15 H15         0.2590   49.9542   25.5764 H         1 UNK         0.0000 
     16 C16         0.8389   52.0203   25.4458 C.3       1 UNK         0.0000 
     17 N17         0.2797   52.4908   26.7079 N.am      1 UNK         0.0000 
     18 C18        -1.0967   52.0048   26.8568 C.3       1 UNK         0.0000 
     19 C19        -1.4835   51.2869   25.5416 C.3       1 UNK         0.0000 
     20 C20        -2.4566   50.0978   25.7395 C.3       1 UNK         0.0000 
     21 C21        -3.7349   50.5419   26.4729 C.3       1 UNK         0.0000 
     22 N22        -4.4343   51.6208   25.6126 N.4       1 UNK         0.0000 
     23 C23        -3.5370   52.8161   25.2057 C.3       1 UNK         0.0000 
     24 C24        -2.2306   52.2716   24.5834 C.3       1 UNK         0.0000 
     25 C25         0.9404   52.9212   27.8186 C.2       1 UNK         0.0000 
     26 O26         0.3436   53.0515   28.8927 O.2       1 UNK         0.0000 
     27 C27         2.3780   53.1780   27.8076 C.2       1 UNK         0.0000 
     28 C28         3.0952   53.0208   28.9866 C.2       1 UNK         0.0000 
     29 S29         4.7983   53.2827   28.8769 S.3       1 UNK         0.0000 
     30 C30         4.6249   53.7171   27.2006 C.ar      1 UNK         0.0000 
     31 C31         3.2598   53.6639   26.7625 C.ar      1 UNK         0.0000 
     32 C32         3.0127   54.1089   25.4473 C.ar      1 UNK         0.0000 
     33 C33         4.0578   54.5041   24.6183 C.ar      1 UNK         0.0000 
     34 C34         5.3708   54.4974   25.0626 C.ar      1 UNK         0.0000 
     35 C35         5.6772   54.1076   26.3597 C.ar      1 UNK         0.0000 
     36 H36         2.1051   48.9909   20.1908 H         1 UNK         0.0000 
     37 H37         2.9111   48.9941   21.7604 H         1 UNK         0.0000 
     38 H38         1.2159   48.5261   21.6271 H         1 UNK         0.0000 
     39 H39         2.1474   50.9979   18.8674 H         1 UNK         0.0000 
     40 H40         3.7362   52.5550   17.8406 H         1 UNK         0.0000 
     41 H41         4.7432   54.1196   21.6934 H         1 UNK         0.0000 
     42 H42         3.1458   52.5855   22.7526 H         1 UNK         0.0000 
     43 H43         1.9601   51.2846   23.4590 H         1 UNK         0.0000 
     44 H44         1.8865   51.7290   25.4691 H         1 UNK         0.0000 
     45 H45         0.6317   52.7936   24.7053 H         1 UNK         0.0000 
     46 H46        -1.8111   52.7082   27.2764 H         1 UNK         0.0000 
     47 H47        -1.0361   51.2061   27.6021 H         1 UNK         0.0000 
     48 H48        -2.6758   49.5923   24.7992 H         1 UNK         0.0000 
     49 H49        -1.9821   49.3410   26.3663 H         1 UNK         0.0000 
     50 H50        -4.4486   49.7236   26.5883 H         1 UNK         0.0000 
     51 H51        -3.5417   50.9783   27.4542 H         1 UNK         0.0000 
     52 H52        -4.7689   51.1755   24.7692 H         1 UNK         0.0000 
     53 H53        -4.1183   53.4045   24.4940 H         1 UNK         0.0000 
     54 H54        -3.3830   53.4201   26.0998 H         1 UNK         0.0000 
     55 H55        -1.5930   53.1314   24.3714 H         1 UNK         0.0000 
     56 H56        -2.4388   51.8214   23.6128 H         1 UNK         0.0000 
     57 H57         2.6895   52.7041   29.9388 H         1 UNK         0.0000 
     58 H58         2.0090   54.2121   25.0777 H         1 UNK         0.0000 
     59 H59         3.8374   54.8620   23.6228 H         1 UNK         0.0000 
     60 H60         6.1611   54.8199   24.3985 H         1 UNK         0.0000 
     61 H61         6.6961   54.1250   26.7189 H         1 UNK         0.0000 
     62 H62        -5.2537   51.9569   26.0984 H         1 UNK         0.0000 
@<TRIPOS>BOND
     1    1    2 1    
     2    1   36 1    
     3    1   37 1    
     4    1   38 1    
     5    2    3 1    
     6    2    4 1    
     7    2   11 1    
     8    4    9 ar   
     9    4    5 ar   
    10    5    6 ar   
    11    5   39 1    
    12    6    7 ar   
    13    6   40 1    
    14    7    8 ar   
    15    7   10 1    
    16    8    9 ar   
    17    8   41 1    
    18    9   42 1    
    19   11   12 am   BACKBONE|DICT|INTERRES
    20   11   43 1    
    21   12   13 2    
    22   12   14 1    
    23   14   15 1    
    24   14   19 1    
    25   14   16 1    
    26   16   17 1    
    27   16   44 1    
    28   16   45 1    
    29   17   18 1    
    30   17   25 am   BACKBONE|DICT|INTERRES
    31   18   19 1    
    32   18   46 1    
    33   18   47 1    
    34   19   24 1    
    35   19   20 1    
    36   20   21 1    
    37   20   48 1    
    38   20   49 1    
    39   21   22 1    
    40   21   50 1    
    41   21   51 1    
    42   22   23 1    
    43   22   52 1    
    44   22   62 1    
    45   23   24 1    
    46   23   53 1    
    47   23   54 1    
    48   24   55 1    
    49   24   56 1    
    50   25   26 2    
    51   25   27 1    
    52   27   31 1    
    53   27   28 2    
    54   28   29 1    
    55   28   57 1    
    56   29   30 1    
    57   30   35 ar   
    58   30   31 ar   
    59   31   32 ar   
    60   32   33 ar   
    61   32   58 1    
    62   33   34 ar   
    63   33   59 1    
    64   34   35 ar   
    65   34   60 1    
    66   35   61 1    
@<TRIPOS>SUBSTRUCTURE
     1 UNK         1 GROUP             0       ****    0 ROOT    
