@<TRIPOS>MOLECULE
ZINC35646702_5445
74   77    1
SMALL
USER_CHARGES


@<TRIPOS>ATOM
      1 C1          3.7492   53.8100   22.1020 C.3       1 UNK         0.0000 
      2 C2          2.3724   53.9510   22.7618 C.3       1 UNK         0.0000 
      3 O3          1.8106   52.6579   22.9315 O.3       1 UNK         0.0000 
      4 C4          0.6065   52.4883   23.5302 C.2       1 UNK         0.0000 
      5 O5         -0.0065   53.4083   24.0688 O.2       1 UNK         0.0000 
      6 C6          0.1291   51.0782   23.5027 C.2       1 UNK         0.0000 
      7 C7         -0.5700   50.5011   24.5249 C.2       1 UNK         0.0000 
      8 N8         -0.8924   49.1480   24.4918 N.am      1 UNK         0.0000 
      9 C9         -0.8470   48.4025   23.3372 C.2       1 UNK         0.0000 
     10 O10        -1.2973   47.2748   23.1679 O.2       1 UNK         0.0000 
     11 N11        -0.2639   49.0014   22.2763 N.am      1 UNK         0.0000 
     12 C12         0.6214   50.1770   22.3399 C.3       1 UNK         0.0000 
     13 H13         1.5614   49.7586   22.7079 H         1 UNK         0.0000 
     14 C14         0.8969   50.8091   20.9620 C.ar      1 UNK         0.0000 
     15 C15         2.1863   50.6978   20.4244 C.ar      1 UNK         0.0000 
     16 C16         2.5013   51.2825   19.2027 C.ar      1 UNK         0.0000 
     17 C17         1.5298   51.9808   18.4873 C.ar      1 UNK         0.0000 
     18 C18         0.2402   52.0965   19.0106 C.ar      1 UNK         0.0000 
     19 C19        -0.0879   51.5216   20.2440 C.ar      1 UNK         0.0000 
     20 C20        -1.5145   51.6915   20.7559 C.3       1 UNK         0.0000 
     21 C21         1.8836   52.6323   17.1633 C.3       1 UNK         0.0000 
     22 C22        -1.3055   48.3706   25.6816 C.3       1 UNK         0.0000 
     23 C23        -1.1710   51.2639   25.7307 C.3       1 UNK         0.0000 
     24 N24        -0.3485   51.2192   27.0471 N.4       1 UNK         0.0000 
     25 C25        -1.1669   51.8578   28.1913 C.3       1 UNK         0.0000 
     26 C26        -0.5202   51.7076   29.5742 C.3       1 UNK         0.0000 
     27 C27         0.5415   52.7615   29.9465 C.3       1 UNK         0.0000 
     28 N28         1.7043   52.8889   29.0444 N.am      1 UNK         0.0000 
     29 C29         1.9530   51.8030   28.0831 C.3       1 UNK         0.0000 
     30 C30         1.0402   51.8702   26.8485 C.3       1 UNK         0.0000 
     31 C31         2.5088   53.9861   29.1726 C.2       1 UNK         0.0000 
     32 O32         2.3461   54.8159   30.0710 O.2       1 UNK         0.0000 
     33 C33         3.6786   54.1761   28.2316 C.ar      1 UNK         0.0000 
     34 C34         4.9631   54.2968   28.7697 C.ar      1 UNK         0.0000 
     35 C35         6.0678   54.4338   27.9361 C.ar      1 UNK         0.0000 
     36 C36         5.8965   54.4978   26.5580 C.ar      1 UNK         0.0000 
     37 C37         4.6189   54.4239   26.0078 C.ar      1 UNK         0.0000 
     38 C38         3.5100   54.2664   26.8420 C.ar      1 UNK         0.0000 
     39 F39         6.9756   54.6541   25.7549 F         1 UNK         0.0000 
     40 H40         4.2150   54.7836   21.9624 H         1 UNK         0.0000 
     41 H41         4.4210   53.1997   22.7032 H         1 UNK         0.0000 
     42 H42         3.6587   53.3442   21.1192 H         1 UNK         0.0000 
     43 H43         1.7164   54.5455   22.1257 H         1 UNK         0.0000 
     44 H44         2.4646   54.4636   23.7224 H         1 UNK         0.0000 
     45 H45        -0.1917   48.4227   21.4537 H         1 UNK         0.0000 
     46 H46         2.9622   50.1654   20.9581 H         1 UNK         0.0000 
     47 H47         3.5038   51.1954   18.8085 H         1 UNK         0.0000 
     48 H48        -0.5048   52.6525   18.4582 H         1 UNK         0.0000 
     49 H49        -2.2040   51.9214   19.9449 H         1 UNK         0.0000 
     50 H50        -1.8864   50.7761   21.2118 H         1 UNK         0.0000 
     51 H51        -1.5687   52.4856   21.4999 H         1 UNK         0.0000 
     52 H52         1.2211   53.4677   16.9357 H         1 UNK         0.0000 
     53 H53         2.8958   53.0354   17.1943 H         1 UNK         0.0000 
     54 H54         1.8346   51.9015   16.3543 H         1 UNK         0.0000 
     55 H55        -1.3332   47.2878   25.5422 H         1 UNK         0.0000 
     56 H56        -0.5834   48.5385   26.4815 H         1 UNK         0.0000 
     57 H57        -2.2912   48.6698   26.0378 H         1 UNK         0.0000 
     58 H58        -2.1342   50.8089   25.9778 H         1 UNK         0.0000 
     59 H59        -1.4030   52.3118   25.5491 H         1 UNK         0.0000 
     60 H60        -2.1247   51.3321   28.1784 H         1 UNK         0.0000 
     61 H61        -1.2955   52.8955   27.8873 H         1 UNK         0.0000 
     62 H62        -0.0959   50.7153   29.6437 H         1 UNK         0.0000 
     63 H63        -1.2962   51.7187   30.3405 H         1 UNK         0.0000 
     64 H64         0.9086   52.5149   30.9446 H         1 UNK         0.0000 
     65 H65         0.0456   53.7318   30.0165 H         1 UNK         0.0000 
     66 H66         2.9896   51.8294   27.7487 H         1 UNK         0.0000 
     67 H67         1.8794   50.8306   28.5706 H         1 UNK         0.0000 
     68 H68         0.8432   52.8922   26.5248 H         1 UNK         0.0000 
     69 H69         1.5022   51.3379   26.0203 H         1 UNK         0.0000 
     70 H70         5.1044   54.2839   29.8374 H         1 UNK         0.0000 
     71 H71         7.0580   54.4964   28.3598 H         1 UNK         0.0000 
     72 H72         4.4917   54.4957   24.9396 H         1 UNK         0.0000 
     73 H73         2.5275   54.2346   26.3958 H         1 UNK         0.0000 
     74 H74        -0.2137   50.2395   27.2782 H         1 UNK         0.0000 
@<TRIPOS>BOND
     1    1    2 1    
     2    1   40 1    
     3    1   41 1    
     4    1   42 1    
     5    2    3 1    
     6    2   43 1    
     7    2   44 1    
     8    3    4 1    
     9    4    5 2    
    10    4    6 1    
    11    6   12 1    
    12    6    7 2    
    13    7    8 1    
    14    7   23 1    
    15    8    9 am   BACKBONE|DICT|INTERRES
    16    8   22 1    
    17    9   10 2    
    18    9   11 am   BACKBONE|DICT|INTERRES
    19   11   12 1    
    20   11   45 1    
    21   12   13 1    
    22   12   14 1    
    23   14   19 ar   
    24   14   15 ar   
    25   15   16 ar   
    26   15   46 1    
    27   16   17 ar   
    28   16   47 1    
    29   17   18 ar   
    30   17   21 1    
    31   18   19 ar   
    32   18   48 1    
    33   19   20 1    
    34   20   49 1    
    35   20   50 1    
    36   20   51 1    
    37   21   52 1    
    38   21   53 1    
    39   21   54 1    
    40   22   55 1    
    41   22   56 1    
    42   22   57 1    
    43   23   24 1    
    44   23   58 1    
    45   23   59 1    
    46   24   30 1    
    47   24   25 1    
    48   24   74 1    
    49   25   26 1    
    50   25   60 1    
    51   25   61 1    
    52   26   27 1    
    53   26   62 1    
    54   26   63 1    
    55   27   28 1    
    56   27   64 1    
    57   27   65 1    
    58   28   29 1    
    59   28   31 am   BACKBONE|DICT|INTERRES
    60   29   30 1    
    61   29   66 1    
    62   29   67 1    
    63   30   68 1    
    64   30   69 1    
    65   31   32 2    
    66   31   33 1    
    67   33   38 ar   
    68   33   34 ar   
    69   34   35 ar   
    70   34   70 1    
    71   35   36 ar   
    72   35   71 1    
    73   36   37 ar   
    74   36   39 1    
    75   37   38 ar   
    76   37   72 1    
    77   38   73 1    
@<TRIPOS>SUBSTRUCTURE
     1 UNK         1 GROUP             0       ****    0 ROOT    
