@<TRIPOS>MOLECULE
ZINC14667142_5189
51   53    1
SMALL
USER_CHARGES


@<TRIPOS>ATOM
      1 C1          2.9061   52.0989   29.5918 C.3       1 UNK         0.0000 
      2 C2          1.3954   52.3956   29.5101 C.3       1 UNK         0.0000 
      3 C3          1.0982   53.8714   29.8345 C.3       1 UNK         0.0000 
      4 C4          0.8043   51.9803   28.1464 C.3       1 UNK         0.0000 
      5 O5          1.5209   52.6385   27.1041 O.3       1 UNK         0.0000 
      6 C6          1.0990   52.5605   25.7904 C.ar      1 UNK         0.0000 
      7 C7         -0.0256   51.8075   25.4116 C.ar      1 UNK         0.0000 
      8 C8         -0.4256   51.7390   24.0810 C.ar      1 UNK         0.0000 
      9 C9          0.2786   52.4351   23.1067 C.ar      1 UNK         0.0000 
     10 C10         1.3829   53.2012   23.4647 C.ar      1 UNK         0.0000 
     11 C11         1.8361   53.2495   24.7978 C.ar      1 UNK         0.0000 
     12 C12         3.1044   54.0117   25.1434 C.2       1 UNK         0.0000 
     13 O13         3.2646   54.4976   26.2643 O.2       1 UNK         0.0000 
     14 N14         4.0057   54.0967   24.1310 N.am      1 UNK         0.0000 
     15 C15         5.3390   54.4279   24.0840 C.2       1 UNK         0.0000 
     16 S16         6.3041   54.8950   25.3641 S.2       1 UNK         0.0000 
     17 N17         5.9488   54.4076   22.8587 N.pl3     1 UNK         0.0000 
     18 C18         5.3572   54.0704   21.6387 C.2       1 UNK         0.0000 
     19 C19         5.4867   54.7522   20.4212 C.2       1 UNK         0.0000 
     20 C20         4.7123   54.1703   19.3923 C.2       1 UNK         0.0000 
     21 C21         4.0256   53.0277   19.8240 C.2       1 UNK         0.0000 
     22 S22         4.4128   52.6150   21.4546 S.3       1 UNK         0.0000 
     23 C23         2.9958   52.2544   19.0115 C.3       1 UNK         0.0000 
     24 C24         3.1189   52.6425   17.5241 C.3       1 UNK         0.0000 
     25 C25         3.2503   54.1625   17.3256 C.3       1 UNK         0.0000 
     26 C26         4.5324   54.7279   17.9756 C.3       1 UNK         0.0000 
     27 C27         6.3017   55.9467   20.2332 C.1       1 UNK         0.0000 
     28 N28         6.9419   56.8968   20.0826 N.1       1 UNK         0.0000 
     29 Br29       -0.2302   52.2778   21.2788 Br        1 UNK         0.0000 
     30 H30         3.4758   52.7551   28.9316 H         1 UNK         0.0000 
     31 H31         3.1245   51.0747   29.2822 H         1 UNK         0.0000 
     32 H32         3.2843   52.2356   30.6064 H         1 UNK         0.0000 
     33 H33         0.8960   51.7880   30.2671 H         1 UNK         0.0000 
     34 H34         1.5835   54.5441   29.1252 H         1 UNK         0.0000 
     35 H35         0.0280   54.0765   29.8060 H         1 UNK         0.0000 
     36 H36         1.4466   54.1325   30.8333 H         1 UNK         0.0000 
     37 H37         0.8734   50.8976   28.0181 H         1 UNK         0.0000 
     38 H38        -0.2565   52.2389   28.1209 H         1 UNK         0.0000 
     39 H39        -0.5969   51.2462   26.1339 H         1 UNK         0.0000 
     40 H40        -1.2754   51.1325   23.8059 H         1 UNK         0.0000 
     41 H41         1.8939   53.7332   22.6739 H         1 UNK         0.0000 
     42 H42         3.6661   53.6963   23.2722 H         1 UNK         0.0000 
     43 H43         6.8233   54.9130   22.7974 H         1 UNK         0.0000 
     44 H44         3.1152   51.1764   19.1267 H         1 UNK         0.0000 
     45 H45         1.9935   52.5058   19.3623 H         1 UNK         0.0000 
     46 H46         3.9822   52.1386   17.0862 H         1 UNK         0.0000 
     47 H47         2.2528   52.2666   16.9780 H         1 UNK         0.0000 
     48 H48         3.2438   54.4026   16.2609 H         1 UNK         0.0000 
     49 H49         2.3761   54.6596   17.7490 H         1 UNK         0.0000 
     50 H50         4.4889   55.8173   17.9767 H         1 UNK         0.0000 
     51 H51         5.4002   54.4648   17.3693 H         1 UNK         0.0000 
@<TRIPOS>BOND
     1    1    2 1    
     2    1   30 1    
     3    1   31 1    
     4    1   32 1    
     5    2    3 1    
     6    2    4 1    
     7    2   33 1    
     8    3   34 1    
     9    3   35 1    
    10    3   36 1    
    11    4    5 1    
    12    4   37 1    
    13    4   38 1    
    14    5    6 1    
    15    6   11 ar   
    16    6    7 ar   
    17    7    8 ar   
    18    7   39 1    
    19    8    9 ar   
    20    8   40 1    
    21    9   10 ar   
    22    9   29 1    
    23   10   11 ar   
    24   10   41 1    
    25   11   12 1    
    26   12   13 2    
    27   12   14 am   BACKBONE|DICT|INTERRES
    28   14   15 am   BACKBONE|DICT|INTERRES
    29   14   42 1    
    30   15   16 2    
    31   15   17 1    
    32   17   18 1    
    33   17   43 1    
    34   18   22 1    
    35   18   19 2    
    36   19   20 1    
    37   19   27 1    
    38   20   26 1    
    39   20   21 2    
    40   21   22 1    
    41   21   23 1    
    42   23   24 1    
    43   23   44 1    
    44   23   45 1    
    45   24   25 1    
    46   24   46 1    
    47   24   47 1    
    48   25   26 1    
    49   25   48 1    
    50   25   49 1    
    51   26   50 1    
    52   26   51 1    
    53   27   28 3    
@<TRIPOS>SUBSTRUCTURE
     1 UNK         1 GROUP             0       ****    0 ROOT    
