@<TRIPOS>MOLECULE
ZINC22916689_5240
61   64    1
SMALL
USER_CHARGES


@<TRIPOS>ATOM
      1 C1         -0.6165   49.7188   22.9511 C.ar      1 UNK         0.0000 
      2 C2         -1.1244   50.5888   21.9895 C.ar      1 UNK         0.0000 
      3 C3         -0.2974   51.0509   20.9684 C.ar      1 UNK         0.0000 
      4 C4          1.0430   50.6457   20.9069 C.ar      1 UNK         0.0000 
      5 C5          1.5336   49.7521   21.8690 C.ar      1 UNK         0.0000 
      6 C6          0.7092   49.2977   22.8944 C.ar      1 UNK         0.0000 
      7 C7          1.9937   51.1511   19.8043 C.3       1 UNK         0.0000 
      8 C8          1.3524   51.3295   18.4253 C.ar      1 UNK         0.0000 
      9 C9          0.6694   52.5084   18.0996 C.ar      1 UNK         0.0000 
     10 C10         0.1218   52.6729   16.8303 C.ar      1 UNK         0.0000 
     11 C11         0.2657   51.6629   15.8817 C.ar      1 UNK         0.0000 
     12 C12         0.9560   50.4932   16.1908 C.ar      1 UNK         0.0000 
     13 C13         1.5034   50.3294   17.4600 C.ar      1 UNK         0.0000 
     14 N14         2.8440   52.4052   20.1764 N.4       1 UNK         0.0000 
     15 C15         4.3057   52.2651   19.6814 C.3       1 UNK         0.0000 
     16 C16         5.1531   53.4957   20.0790 C.3       1 UNK         0.0000 
     17 N17         5.0857   53.7478   21.5297 N.3       1 UNK         0.0000 
     18 C18         3.6876   54.0519   21.8845 C.3       1 UNK         0.0000 
     19 C19         2.7981   52.8195   21.6627 C.3       1 UNK         0.0000 
     20 C20         6.0335   54.8002   21.9447 C.3       1 UNK         0.0000 
     21 C21         6.5417   54.7303   23.4294 C.3       1 UNK         0.0000 
     22 H22         7.0502   55.6686   23.6570 H         1 UNK         0.0000 
     23 C23         5.4423   54.5242   24.4886 C.3       1 UNK         0.0000 
     24 O24         5.8581   54.6313   25.8499 O.3       1 UNK         0.0000 
     25 C25         4.8968   54.4019   26.8247 C.ar      1 UNK         0.0000 
     26 C26         5.3029   54.4969   28.1567 C.ar      1 UNK         0.0000 
     27 C27         4.3893   54.3025   29.1917 C.ar      1 UNK         0.0000 
     28 C28         3.0659   53.9861   28.8997 C.ar      1 UNK         0.0000 
     29 C29         2.6437   53.8802   27.5805 C.ar      1 UNK         0.0000 
     30 C30         3.5507   54.0933   26.5484 C.ar      1 UNK         0.0000 
     31 Br31        1.8196   53.6899   30.3060 Br        1 UNK         0.0000 
     32 O32         7.5043   53.6967   23.5674 O.3       1 UNK         0.0000 
     33 H33        -1.2551   49.3658   23.7484 H         1 UNK         0.0000 
     34 H34        -2.1562   50.9046   22.0387 H         1 UNK         0.0000 
     35 H35        -0.7069   51.7294   20.2371 H         1 UNK         0.0000 
     36 H36         2.5615   49.4182   21.8371 H         1 UNK         0.0000 
     37 H37         1.0987   48.6242   23.6454 H         1 UNK         0.0000 
     38 H38         2.7460   50.3661   19.6906 H         1 UNK         0.0000 
     39 H39         0.5607   53.2976   18.8291 H         1 UNK         0.0000 
     40 H40        -0.4059   53.5816   16.5795 H         1 UNK         0.0000 
     41 H41        -0.1530   51.7908   14.8942 H         1 UNK         0.0000 
     42 H42         1.0806   49.7188   15.4480 H         1 UNK         0.0000 
     43 H43         2.0571   49.4271   17.6814 H         1 UNK         0.0000 
     44 H44         4.7113   51.3418   20.0976 H         1 UNK         0.0000 
     45 H45         4.2410   52.1866   18.5942 H         1 UNK         0.0000 
     46 H46         4.7702   54.3841   19.5716 H         1 UNK         0.0000 
     47 H47         6.1756   53.3414   19.7310 H         1 UNK         0.0000 
     48 H48         3.5466   54.3520   22.9140 H         1 UNK         0.0000 
     49 H49         3.3485   54.8941   21.2806 H         1 UNK         0.0000 
     50 H50         3.1098   51.9666   22.2669 H         1 UNK         0.0000 
     51 H51         1.7582   53.0781   21.8689 H         1 UNK         0.0000 
     52 H52         5.6405   55.7816   21.6818 H         1 UNK         0.0000 
     53 H53         6.9291   54.7276   21.3258 H         1 UNK         0.0000 
     54 H54         4.9946   53.5413   24.3298 H         1 UNK         0.0000 
     55 H55         4.6830   55.2909   24.3406 H         1 UNK         0.0000 
     56 H56         6.3285   54.7418   28.3899 H         1 UNK         0.0000 
     57 H57         4.7045   54.3986   30.2181 H         1 UNK         0.0000 
     58 H58         1.6155   53.6347   27.3578 H         1 UNK         0.0000 
     59 H59         3.1804   54.0067   25.5396 H         1 UNK         0.0000 
     60 H60         8.3713   54.1195   23.6813 H         1 UNK         0.0000 
     61 H61         2.4539   53.1904   19.6716 H         1 UNK         0.0000 
@<TRIPOS>BOND
     1    1    6 ar   
     2    1    2 ar   
     3    1   33 1    
     4    2    3 ar   
     5    2   34 1    
     6    3    4 ar   
     7    3   35 1    
     8    4    5 ar   
     9    4    7 1    
    10    5    6 ar   
    11    5   36 1    
    12    6   37 1    
    13    7    8 1    
    14    7   14 1    
    15    7   38 1    
    16    8   13 ar   
    17    8    9 ar   
    18    9   10 ar   
    19    9   39 1    
    20   10   11 ar   
    21   10   40 1    
    22   11   12 ar   
    23   11   41 1    
    24   12   13 ar   
    25   12   42 1    
    26   13   43 1    
    27   14   19 1    
    28   14   15 1    
    29   14   61 1    
    30   15   16 1    
    31   15   44 1    
    32   15   45 1    
    33   16   17 1    
    34   16   46 1    
    35   16   47 1    
    36   17   18 1    
    37   17   20 1    
    38   18   19 1    
    39   18   48 1    
    40   18   49 1    
    41   19   50 1    
    42   19   51 1    
    43   20   21 1    
    44   20   52 1    
    45   20   53 1    
    46   21   22 1    
    47   21   23 1    
    48   21   32 1    
    49   23   24 1    
    50   23   54 1    
    51   23   55 1    
    52   24   25 1    
    53   25   30 ar   
    54   25   26 ar   
    55   26   27 ar   
    56   26   56 1    
    57   27   28 ar   
    58   27   57 1    
    59   28   29 ar   
    60   28   31 1    
    61   29   30 ar   
    62   29   58 1    
    63   30   59 1    
    64   32   60 1    
@<TRIPOS>SUBSTRUCTURE
     1 UNK         1 GROUP             0       ****    0 ROOT    
