@<TRIPOS>MOLECULE
ZINC08907264_2338
56   59    1
SMALL
USER_CHARGES


@<TRIPOS>ATOM
      1 C1          0.8586   54.0876   28.2266 C.3       1 UNK         0.0000 
      2 C2          1.4181   52.9529   27.3341 C.3       1 UNK         0.0000 
      3 C3          1.6573   51.7171   28.2490 C.3       1 UNK         0.0000 
      4 C4          0.3407   52.4997   26.3093 C.3       1 UNK         0.0000 
      5 C5          2.7128   53.4700   26.6414 C.ar      1 UNK         0.0000 
      6 C6          2.7032   53.9644   25.3254 C.ar      1 UNK         0.0000 
      7 C7          3.8525   54.4926   24.7403 C.ar      1 UNK         0.0000 
      8 C8          5.0666   54.4994   25.4351 C.ar      1 UNK         0.0000 
      9 C9          5.0801   54.0127   26.7496 C.ar      1 UNK         0.0000 
     10 C10         3.9232   53.5191   27.3455 C.ar      1 UNK         0.0000 
     11 C11         6.3423   55.0981   24.8694 C.2       1 UNK         0.0000 
     12 O12         7.1038   55.6569   25.6508 O.2       1 UNK         0.0000 
     13 N13         6.7039   55.0561   23.5643 N.am      1 UNK         0.0000 
     14 C14         6.0674   54.5063   22.4384 C.ar      1 UNK         0.0000 
     15 C15         5.4857   53.2378   22.4732 C.ar      1 UNK         0.0000 
     16 C16         4.8242   52.7242   21.3579 C.ar      1 UNK         0.0000 
     17 C17         4.7593   53.4628   20.1756 C.ar      1 UNK         0.0000 
     18 C18         5.4195   54.6982   20.1075 C.ar      1 UNK         0.0000 
     19 C19         6.0725   55.2183   21.2252 C.ar      1 UNK         0.0000 
     20 O20         6.7000   56.4319   21.0887 O.3       1 UNK         0.0000 
     21 N21         4.0388   52.8971   19.1108 N.am      1 UNK         0.0000 
     22 C22         3.4511   53.5245   18.0677 C.2       1 UNK         0.0000 
     23 O23         3.5534   54.7240   17.7994 O.2       1 UNK         0.0000 
     24 C24         2.6129   52.6666   17.2637 C.2       1 UNK         0.0000 
     25 C25         1.9788   52.9205   16.0477 C.2       1 UNK         0.0000 
     26 C26         1.2595   51.7340   15.7071 C.ar      1 UNK         0.0000 
     27 C27         0.4403   51.3133   14.6470 C.ar      1 UNK         0.0000 
     28 C28        -0.0975   50.0221   14.6872 C.ar      1 UNK         0.0000 
     29 C29         0.1647   49.1562   15.7511 C.ar      1 UNK         0.0000 
     30 C30         0.9716   49.5467   16.8211 C.ar      1 UNK         0.0000 
     31 C31         1.5035   50.8401   16.7737 C.ar      1 UNK         0.0000 
     32 O32         2.3037   51.4120   17.7196 O.3       1 UNK         0.0000 
     33 H33        -0.1021   53.8186   28.6672 H         1 UNK         0.0000 
     34 H34         0.7154   55.0197   27.6818 H         1 UNK         0.0000 
     35 H35         1.5370   54.3130   29.0511 H         1 UNK         0.0000 
     36 H36         1.9128   50.8249   27.6820 H         1 UNK         0.0000 
     37 H37         2.4273   51.8710   29.0022 H         1 UNK         0.0000 
     38 H38         0.7507   51.4590   28.7986 H         1 UNK         0.0000 
     39 H39         0.7067   51.6818   25.6872 H         1 UNK         0.0000 
     40 H40        -0.5630   52.1433   26.8072 H         1 UNK         0.0000 
     41 H41         0.0296   53.2964   25.6353 H         1 UNK         0.0000 
     42 H42         1.8018   53.9875   24.7353 H         1 UNK         0.0000 
     43 H43         3.7758   54.9006   23.7435 H         1 UNK         0.0000 
     44 H44         5.9907   54.0277   27.3330 H         1 UNK         0.0000 
     45 H45         3.9876   53.1840   28.3678 H         1 UNK         0.0000 
     46 H46         7.5619   55.5505   23.3532 H         1 UNK         0.0000 
     47 H47         5.5220   52.6545   23.3735 H         1 UNK         0.0000 
     48 H48         4.3512   51.7543   21.4238 H         1 UNK         0.0000 
     49 H49         5.4303   55.2652   19.1897 H         1 UNK         0.0000 
     50 H50         6.6057   56.7544   20.1888 H         1 UNK         0.0000 
     51 H51         3.8838   51.8984   19.1562 H         1 UNK         0.0000 
     52 H52         2.0453   53.8441   15.4921 H         1 UNK         0.0000 
     53 H53         0.2329   51.9709   13.8169 H         1 UNK         0.0000 
     54 H54        -0.7265   49.6843   13.8757 H         1 UNK         0.0000 
     55 H55        -0.2623   48.1635   15.7404 H         1 UNK         0.0000 
     56 H56         1.1969   48.8821   17.6415 H         1 UNK         0.0000 
@<TRIPOS>BOND
     1    1    2 1    
     2    1   33 1    
     3    1   34 1    
     4    1   35 1    
     5    2    3 1    
     6    2    4 1    
     7    2    5 1    
     8    3   36 1    
     9    3   37 1    
    10    3   38 1    
    11    4   39 1    
    12    4   40 1    
    13    4   41 1    
    14    5   10 ar   
    15    5    6 ar   
    16    6    7 ar   
    17    6   42 1    
    18    7    8 ar   
    19    7   43 1    
    20    8    9 ar   
    21    8   11 1    
    22    9   10 ar   
    23    9   44 1    
    24   10   45 1    
    25   11   12 2    
    26   11   13 am   BACKBONE|DICT|INTERRES
    27   13   14 1    
    28   13   46 1    
    29   14   19 ar   
    30   14   15 ar   
    31   15   16 ar   
    32   15   47 1    
    33   16   17 ar   
    34   16   48 1    
    35   17   18 ar   
    36   17   21 1    
    37   18   19 ar   
    38   18   49 1    
    39   19   20 1    
    40   20   50 1    
    41   21   22 am   BACKBONE|DICT|INTERRES
    42   21   51 1    
    43   22   23 2    
    44   22   24 1    
    45   24   32 1    
    46   24   25 2    
    47   25   26 1    
    48   25   52 1    
    49   26   31 ar   
    50   26   27 ar   
    51   27   28 ar   
    52   27   53 1    
    53   28   29 ar   
    54   28   54 1    
    55   29   30 ar   
    56   29   55 1    
    57   30   31 ar   
    58   30   56 1    
    59   31   32 1    
@<TRIPOS>SUBSTRUCTURE
     1 UNK         1 GROUP             0       ****    0 ROOT    
