@<TRIPOS>MOLECULE
ZINC40438788_3831
31   33    1
SMALL
USER_CHARGES


@<TRIPOS>ATOM
      1 C1          0.7014   51.6206   27.4190 C.ar      1 UNK         0.0000 
      2 C2          1.4692   51.8639   28.5541 C.ar      1 UNK         0.0000 
      3 C3          2.4573   52.8454   28.5287 C.ar      1 UNK         0.0000 
      4 C4          2.6780   53.5958   27.3763 C.ar      1 UNK         0.0000 
      5 C5          1.9030   53.3640   26.2430 C.ar      1 UNK         0.0000 
      6 C6          0.9135   52.3776   26.2635 C.ar      1 UNK         0.0000 
      7 S7         -0.1003   52.0762   24.8144 S.o2      1 UNK         0.0000 
      8 O8         -0.2021   53.3301   24.0623 O.2       1 UNK         0.0000 
      9 O9         -1.3071   51.3764   25.2661 O.2       1 UNK         0.0000 
     10 N10         0.7910   50.9043   23.8186 N.pl3     1 UNK         0.0000 
     11 C11         1.6589   51.2152   22.7595 C.ar      1 UNK         0.0000 
     12 C12         1.8505   50.2348   21.7846 C.ar      1 UNK         0.0000 
     13 C13         2.6990   50.4173   20.6913 C.ar      1 UNK         0.0000 
     14 C14         3.3855   51.6313   20.6179 C.ar      1 UNK         0.0000 
     15 C15         3.2189   52.6562   21.5947 C.ar      1 UNK         0.0000 
     16 C16         2.3331   52.4377   22.6620 C.ar      1 UNK         0.0000 
     17 C17         4.0797   53.7371   21.2101 C.ar      1 UNK         0.0000 
     18 C18         4.7189   53.3586   20.0456 C.ar      1 UNK         0.0000 
     19 N19         4.3046   52.0967   19.6996 N.pl3     1 UNK         0.0000 
     20 H20         4.7010   51.5618   18.9161 H         1 UNK         0.0000 
     21 Br21        3.5087   53.1667   30.0824 Br        1 UNK         0.0000 
     22 H22        -0.0631   50.8549   27.4480 H         1 UNK         0.0000 
     23 H23         1.2915   51.2970   29.4531 H         1 UNK         0.0000 
     24 H24         3.4425   54.3590   27.3641 H         1 UNK         0.0000 
     25 H25         2.0651   53.9677   25.3644 H         1 UNK         0.0000 
     26 H26         0.5657   49.9337   23.9711 H         1 UNK         0.0000 
     27 H27         1.3238   49.2955   21.8690 H         1 UNK         0.0000 
     28 H28         2.8249   49.6491   19.9414 H         1 UNK         0.0000 
     29 H29         2.1989   53.2099   23.3963 H         1 UNK         0.0000 
     30 H30         4.2130   54.6800   21.7180 H         1 UNK         0.0000 
     31 H31         5.4520   53.8699   19.4368 H         1 UNK         0.0000 
@<TRIPOS>BOND
     1    1    6 ar   
     2    1    2 ar   
     3    1   22 1    
     4    2    3 ar   
     5    2   23 1    
     6    3    4 ar   
     7    3   21 1    
     8    4    5 ar   
     9    4   24 1    
    10    5    6 ar   
    11    5   25 1    
    12    6    7 1    
    13    7    8 2    
    14    7    9 2    
    15    7   10 1    
    16   10   11 1    
    17   10   26 1    
    18   11   16 ar   
    19   11   12 ar   
    20   12   13 ar   
    21   12   27 1    
    22   13   14 ar   
    23   13   28 1    
    24   14   19 ar   
    25   14   15 ar   
    26   15   16 ar   
    27   15   17 ar   
    28   16   29 1    
    29   17   18 ar   
    30   17   30 1    
    31   18   19 ar   
    32   18   31 1    
    33   19   20 1    
@<TRIPOS>SUBSTRUCTURE
     1 UNK         1 GROUP             0       ****    0 ROOT    
