@<TRIPOS>MOLECULE
ZINC12274462_3964
58   63    1
SMALL
USER_CHARGES


@<TRIPOS>ATOM
      1 C1          3.4303   54.3758   23.9356 C.3       1 UNK         0.0000 
      2 C2          4.8406   54.3744   24.5132 C.ar      1 UNK         0.0000 
      3 C3          6.0868   54.5211   23.8879 C.ar      1 UNK         0.0000 
      4 N4          7.0406   54.5003   24.8048 N.2       1 UNK         0.0000 
      5 N5          6.4709   54.3106   26.0407 N.2       1 UNK         0.0000 
      6 N6          5.1472   54.2209   25.8598 N.pl3     1 UNK         0.0000 
      7 C7          4.2921   54.0117   26.9758 C.ar      1 UNK         0.0000 
      8 C8          4.6415   54.4963   28.2425 C.ar      1 UNK         0.0000 
      9 C9          3.8155   54.3022   29.3474 C.ar      1 UNK         0.0000 
     10 C10         2.5906   53.6449   29.1693 C.ar      1 UNK         0.0000 
     11 C11         2.2182   53.1584   27.8891 C.ar      1 UNK         0.0000 
     12 C12         3.0965   53.3021   26.8089 C.ar      1 UNK         0.0000 
     13 C13         0.9196   52.6191   28.0911 C.2       1 UNK         0.0000 
     14 O14         0.6056   52.7569   29.4103 O.3       1 UNK         0.0000 
     15 N15         1.6378   53.3882   30.1103 N.2       1 UNK         0.0000 
     16 C16        -0.1179   52.0531   27.1777 C.ar      1 UNK         0.0000 
     17 C17        -0.0406   52.2781   25.7976 C.ar      1 UNK         0.0000 
     18 C18        -1.0257   51.7860   24.9461 C.ar      1 UNK         0.0000 
     19 C19        -2.0883   51.0581   25.4739 C.ar      1 UNK         0.0000 
     20 C20        -2.1666   50.8141   26.8408 C.ar      1 UNK         0.0000 
     21 C21        -1.1767   51.2974   27.6903 C.ar      1 UNK         0.0000 
     22 C22         6.3035   54.6051   22.4590 C.2       1 UNK         0.0000 
     23 O23         5.4576   54.1790   21.6679 O.2       1 UNK         0.0000 
     24 N24         7.4493   55.2155   22.0814 N.am      1 UNK         0.0000 
     25 N25         7.7680   55.2973   20.7218 N.am      1 UNK         0.0000 
     26 C26         7.3768   56.3722   20.0067 C.2       1 UNK         0.0000 
     27 O27         6.7043   57.2965   20.4705 O.2       1 UNK         0.0000 
     28 C28         7.8420   56.3947   18.6333 C.2       1 UNK         0.0000 
     29 C29         9.0406   55.8086   18.2086 C.2       1 UNK         0.0000 
     30 S30         9.3708   56.0579   16.5326 S.3       1 UNK         0.0000 
     31 C31         7.9466   57.0299   16.3767 C.2       1 UNK         0.0000 
     32 C32         7.2409   57.1460   17.5870 C.2       1 UNK         0.0000 
     33 C33         5.9405   57.9522   17.6774 C.3       1 UNK         0.0000 
     34 C34         5.3673   58.2450   16.2750 C.3       1 UNK         0.0000 
     35 C35         6.4539   58.7226   15.2956 C.3       1 UNK         0.0000 
     36 C36         7.5142   57.6282   15.0457 C.3       1 UNK         0.0000 
     37 H37         3.3812   54.8970   22.9786 H         1 UNK         0.0000 
     38 H38         3.0696   53.3657   23.7377 H         1 UNK         0.0000 
     39 H39         2.7084   54.8811   24.5766 H         1 UNK         0.0000 
     40 H40         5.5697   55.0310   28.3877 H         1 UNK         0.0000 
     41 H41         4.1167   54.6708   30.3117 H         1 UNK         0.0000 
     42 H42         2.8421   52.8686   25.8608 H         1 UNK         0.0000 
     43 H43         0.7551   52.8665   25.3725 H         1 UNK         0.0000 
     44 H44        -0.9659   51.9717   23.8828 H         1 UNK         0.0000 
     45 H45        -2.8499   50.6659   24.8175 H         1 UNK         0.0000 
     46 H46        -2.9727   50.2239   27.2499 H         1 UNK         0.0000 
     47 H47        -1.2425   51.0819   28.7500 H         1 UNK         0.0000 
     48 H48         8.2084   55.4579   22.7058 H         1 UNK         0.0000 
     49 H49         8.3597   54.5502   20.3876 H         1 UNK         0.0000 
     50 H50         9.7503   55.2398   18.7944 H         1 UNK         0.0000 
     51 H51         6.1369   58.8964   18.1873 H         1 UNK         0.0000 
     52 H52         5.1887   57.4345   18.2765 H         1 UNK         0.0000 
     53 H53         4.8836   57.3505   15.8753 H         1 UNK         0.0000 
     54 H54         4.5840   59.0013   16.3527 H         1 UNK         0.0000 
     55 H55         6.0023   59.0218   14.3511 H         1 UNK         0.0000 
     56 H56         6.9297   59.6183   15.6979 H         1 UNK         0.0000 
     57 H57         7.0825   56.8478   14.4143 H         1 UNK         0.0000 
     58 H58         8.3619   58.0438   14.4979 H         1 UNK         0.0000 
@<TRIPOS>BOND
     1    1    2 1    
     2    1   37 1    
     3    1   38 1    
     4    1   39 1    
     5    2    6 ar   
     6    2    3 ar   
     7    3    4 ar   
     8    3   22 1    
     9    4    5 ar   
    10    5    6 ar   
    11    6    7 1    
    12    7   12 ar   
    13    7    8 ar   
    14    8    9 ar   
    15    8   40 1    
    16    9   10 ar   
    17    9   41 1    
    18   10   15 2    
    19   10   11 ar   
    20   11   12 ar   
    21   11   13 2    
    22   12   42 1    
    23   13   14 1    
    24   13   16 1    
    25   14   15 1    
    26   16   21 ar   
    27   16   17 ar   
    28   17   18 ar   
    29   17   43 1    
    30   18   19 ar   
    31   18   44 1    
    32   19   20 ar   
    33   19   45 1    
    34   20   21 ar   
    35   20   46 1    
    36   21   47 1    
    37   22   23 2    
    38   22   24 am   BACKBONE|DICT|INTERRES
    39   24   25 1    
    40   24   48 1    
    41   25   26 am   BACKBONE|DICT|INTERRES
    42   25   49 1    
    43   26   27 2    
    44   26   28 1    
    45   28   32 1    
    46   28   29 2    
    47   29   30 1    
    48   29   50 1    
    49   30   31 1    
    50   31   36 1    
    51   31   32 2    
    52   32   33 1    
    53   33   34 1    
    54   33   51 1    
    55   33   52 1    
    56   34   35 1    
    57   34   53 1    
    58   34   54 1    
    59   35   36 1    
    60   35   55 1    
    61   35   56 1    
    62   36   57 1    
    63   36   58 1    
@<TRIPOS>SUBSTRUCTURE
     1 UNK         1 GROUP             0       ****    0 ROOT    
