ZINC00719918_5440
                    3D
 Schrodinger Suite 2024-2.
 80 86  0  0  1  0            999 V2000
   -3.1617   54.9168   15.9090 C   0  0  0  0  0  0
   -2.8941   54.6488   17.2805 O   0  0  0  0  0  0
   -1.8469   53.7866   17.4948 C   0  0  0  0  0  0
   -2.1366   52.4675   17.8383 C   0  0  0  0  0  0
   -1.1075   51.5638   18.0879 C   0  0  0  0  0  0
    0.2323   51.9690   18.0324 C   0  0  0  0  0  0
    0.5113   53.2982   17.6781 C   0  0  0  0  0  0
   -0.5162   54.2184   17.4038 C   0  0  0  0  0  0
   -0.2997   55.5427   17.0660 O   0  0  0  0  0  0
    1.0267   55.9939   16.8107 C   0  0  0  0  0  0
    1.3622   50.9484   18.2957 C   0  0  2  0  0  0
    1.4075   50.3518   17.3818 H   0  0  0  0  0  0
    1.0944   50.0020   19.4978 C   0  0  0  0  0  0
    1.0829   50.7550   20.8567 C   0  0  2  0  0  0
    0.2048   51.4024   20.8770 H   0  0  0  0  0  0
    2.2620   51.6407   20.8570 N   0  0  0  0  0  0
    2.9626   52.0630   19.7433 C   0  0  0  0  0  0
    3.9427   52.9025   20.2313 C   0  0  0  0  0  0
    3.7191   53.0311   21.6159 C   0  0  0  0  0  0
    2.7044   52.2592   21.9635 N   0  0  0  0  0  0
    4.5779   53.7824   22.5273 C   0  0  0  0  0  0
    5.7297   54.0503   22.1752 O   0  0  0  0  0  0
    4.1114   54.1201   23.7677 N   0  0  0  0  0  0
    5.0261   54.6302   24.8117 C   0  0  0  0  0  0
    4.7590   53.9000   26.1578 C   0  0  0  0  0  0
    3.2487   53.8159   26.5329 N   0  3  0  0  0  0
    2.4394   53.3258   25.2992 C   0  0  0  0  0  0
    2.6938   54.2656   24.1184 C   0  0  0  0  0  0
    3.0717   52.9268   27.8099 C   0  0  2  0  0  0
    1.6165   52.3760   27.9692 C   0  0  1  0  0  0
    1.5962   51.3836   29.1564 C   0  0  0  0  0  0
    2.0005   52.1178   30.4653 C   0  0  2  0  0  0
    0.9665   53.2450   30.7234 C   0  0  0  0  0  0
    1.0114   54.2661   29.5593 C   0  0  2  0  0  0
    0.6329   53.5438   28.2473 C   0  0  0  0  0  0
    2.4380   54.8556   29.4013 C   0  0  0  0  0  0
    3.4557   53.7142   29.1087 C   0  0  1  0  0  0
    3.4304   52.7079   30.2967 C   0  0  0  0  0  0
    2.7060   51.5150   18.4977 N   0  0  0  0  0  0
    0.9818   49.8091   22.0780 C   0  0  0  0  0  0
   -0.0762   49.0051   21.9767 F   0  0  0  0  0  0
    2.0576   49.0293   22.1660 F   0  0  0  0  0  0
    0.8602   50.4731   23.2293 F   0  0  0  0  0  0
   -4.0179   55.5868   15.8323 H   0  0  0  0  0  0
   -2.3182   55.4009   15.4149 H   0  0  0  0  0  0
   -3.4073   54.0022   15.3653 H   0  0  0  0  0  0
   -3.1638   52.1413   17.8947 H   0  0  0  0  0  0
   -1.3696   50.5435   18.3213 H   0  0  0  0  0  0
    1.5409   53.6142   17.6187 H   0  0  0  0  0  0
    1.0039   57.0525   16.5515 H   0  0  0  0  0  0
    1.6722   55.8878   17.6811 H   0  0  0  0  0  0
    1.4725   55.4571   15.9734 H   0  0  0  0  0  0
    1.8581   49.2204   19.5224 H   0  0  0  0  0  0
    0.1702   49.4409   19.3714 H   0  0  0  0  0  0
    4.7271   53.3670   19.6519 H   0  0  0  0  0  0
    4.8860   55.6987   24.9499 H   0  0  0  0  0  0
    6.0712   54.4817   24.5312 H   0  0  0  0  0  0
    5.2313   54.4659   26.9596 H   0  0  0  0  0  0
    5.1844   52.8968   26.1579 H   0  0  0  0  0  0
    2.7035   52.2920   25.0795 H   0  0  0  0  0  0
    1.3787   53.3860   25.5344 H   0  0  0  0  0  0
    1.9988   54.1244   23.2920 H   0  0  0  0  0  0
    2.5208   55.2986   24.4099 H   0  0  0  0  0  0
    3.7587   52.0969   27.6812 H   0  0  0  0  0  0
    1.3041   51.8151   27.0880 H   0  0  0  0  0  0
    2.2733   50.5583   28.9288 H   0  0  0  0  0  0
    0.6031   50.9416   29.2635 H   0  0  0  0  0  0
    1.9776   51.4371   31.3161 H   0  0  0  0  0  0
    1.1315   53.7342   31.6803 H   0  0  0  0  0  0
   -0.0343   52.8145   30.8051 H   0  0  0  0  0  0
    0.3049   55.0713   29.7595 H   0  0  0  0  0  0
   -0.3974   53.1871   28.2799 H   0  0  0  0  0  0
    0.7045   54.2659   27.4427 H   0  0  0  0  0  0
    2.4551   55.6007   28.6041 H   0  0  0  0  0  0
    2.7045   55.3951   30.3083 H   0  0  0  0  0  0
    4.4591   54.1320   29.0288 H   0  0  0  0  0  0
    3.7670   53.1831   31.2170 H   0  0  0  0  0  0
    4.1470   51.9038   30.1199 H   0  0  0  0  0  0
    3.4418   50.9662   18.0571 H   0  0  0  0  0  0
    2.9229   54.7496   26.7378 H   0  0  0  0  0  0
  1  2  1  0  0  0
  1 44  1  0  0  0
  1 45  1  0  0  0
  1 46  1  0  0  0
  2  3  1  0  0  0
  3  8  2  0  0  0
  3  4  1  0  0  0
  4  5  2  0  0  0
  4 47  1  0  0  0
  5  6  1  0  0  0
  5 48  1  0  0  0
  6  7  2  0  0  0
  6 11  1  0  0  0
  7  8  1  0  0  0
  7 49  1  0  0  0
  8  9  1  0  0  0
  9 10  1  0  0  0
 10 50  1  0  0  0
 10 51  1  0  0  0
 10 52  1  0  0  0
 11 12  1  0  0  0
 11 39  1  0  0  0
 11 13  1  0  0  0
 13 14  1  0  0  0
 13 53  1  0  0  0
 13 54  1  0  0  0
 14 15  1  0  0  0
 14 16  1  0  0  0
 14 40  1  0  0  0
 16 20  1  0  0  0
 16 17  1  0  0  0
 17 18  2  0  0  0
 17 39  1  0  0  0
 18 19  1  0  0  0
 18 55  1  0  0  0
 19 20  2  0  0  0
 19 21  1  0  0  0
 21 22  2  0  0  0
 21 23  1  0  0  0
 23 28  1  0  0  0
 23 24  1  0  0  0
 24 25  1  0  0  0
 24 56  1  0  0  0
 24 57  1  0  0  0
 25 26  1  0  0  0
 25 58  1  0  0  0
 25 59  1  0  0  0
 26 27  1  0  0  0
 26 29  1  0  0  0
 26 80  1  0  0  0
 27 28  1  0  0  0
 27 60  1  0  0  0
 27 61  1  0  0  0
 28 62  1  0  0  0
 28 63  1  0  0  0
 29 37  1  0  0  0
 29 30  1  0  0  0
 29 64  1  0  0  0
 30 35  1  0  0  0
 30 31  1  0  0  0
 30 65  1  0  0  0
 31 32  1  0  0  0
 31 66  1  0  0  0
 31 67  1  0  0  0
 32 38  1  0  0  0
 32 33  1  0  0  0
 32 68  1  0  0  0
 33 34  1  0  0  0
 33 69  1  0  0  0
 33 70  1  0  0  0
 34 35  1  0  0  0
 34 36  1  0  0  0
 34 71  1  0  0  0
 35 72  1  0  0  0
 35 73  1  0  0  0
 36 37  1  0  0  0
 36 74  1  0  0  0
 36 75  1  0  0  0
 37 38  1  0  0  0
 37 76  1  0  0  0
 38 77  1  0  0  0
 38 78  1  0  0  0
 39 79  1  0  0  0
 40 41  1  0  0  0
 40 42  1  0  0  0
 40 43  1  0  0  0
M  CHG  1  26   1
M  END
> <i_i_glide_confnum>
54

> <i_i_glide_lignum>
5441

> <i_i_glide_posenum>
62

> <i_i_glide_rotatable_bonds>
7

> <i_m_Source_File_Index>
4733

> <b_m_subgroup_collapsed>
0

> <r_i_docking_score>
-5.85903

> <r_i_glide_ecoul>
-1.72112

> <r_i_glide_eff_state_penalty>
0

> <r_i_glide_einternal>
9.96948

> <r_i_glide_emodel>
-51.7671

> <r_i_glide_energy>
-42.2476

> <r_i_glide_erotb>
0.158417

> <r_i_glide_esite>
-0.0830495

> <r_i_glide_evdw>
-40.5265

> <r_i_glide_gscore>
-5.85903

> <r_i_glide_hbond>
-0.294064

> <r_i_glide_ligand_efficiency>
-0.142903

> <r_i_glide_ligand_efficiency_ln>
-1.24301

> <r_i_glide_ligand_efficiency_sa>
-0.492761

> <r_i_glide_lipo>
-2.45912

> <r_i_glide_metal>
0

> <r_i_glide_rewards>
-0.896714

> <s_i_glide_gridfile>
wee1_glide-grid

> <s_m_Source_File>
wee1_decoys_glide_SP.sdf

> <s_m_Source_Path>
/Users/zhangxujun/Desktop

> <s_m_entry_id>
5008

> <s_m_entry_name>
wee1_decoys_glide_SP.4733

> <s_m_subgroup_title>
wee1_decoys_glide_SP

> <s_m_subgroupid>
wee1_decoys_glide_SP


$$$$
