@<TRIPOS>MOLECULE
ZINC39521343_1740
43   45    1
SMALL
USER_CHARGES


@<TRIPOS>ATOM
      1 C1          4.4635   53.1687   28.8435 C.ar      1 UNK         0.0000 
      2 C2          4.3997   54.5463   29.0253 C.ar      1 UNK         0.0000 
      3 C3          3.1765   55.2044   28.8979 C.ar      1 UNK         0.0000 
      4 C4          2.0303   54.4926   28.5612 C.ar      1 UNK         0.0000 
      5 C5          2.0780   53.1039   28.3717 C.ar      1 UNK         0.0000 
      6 C6          3.3028   52.4598   28.5405 C.ar      1 UNK         0.0000 
      7 N7          0.9207   52.3543   28.1781 N.pl3     1 UNK         0.0000 
      8 C8          0.3465   51.6891   29.3536 C.3       1 UNK         0.0000 
      9 H9          0.5680   50.6288   29.2817 H         1 UNK         0.0000 
     10 C10        -1.1647   51.8788   29.3959 C.3       1 UNK         0.0000 
     11 C11        -1.8962   51.6001   28.0703 C.3       1 UNK         0.0000 
     12 C12        -1.1408   52.2196   26.8813 C.3       1 UNK         0.0000 
     13 C13         0.3764   51.8580   26.8727 C.3       1 UNK         0.0000 
     14 C14         1.1042   52.5456   25.6719 C.3       1 UNK         0.0000 
     15 C15         0.6162   52.1012   24.2808 C.3       1 UNK         0.0000 
     16 C16         0.7896   50.5846   24.0817 C.3       1 UNK         0.0000 
     17 C17         0.2112   49.7346   25.2339 C.3       1 UNK         0.0000 
     18 H18         0.6371   48.7306   25.1732 H         1 UNK         0.0000 
     19 C19         0.4875   50.3065   26.6500 C.3       1 UNK         0.0000 
     20 O20        -1.1838   49.5859   25.0648 O.3       1 UNK         0.0000 
     21 O21         0.8475   52.0967   30.6211 O.3       1 UNK         0.0000 
     22 O22         0.8603   55.1862   28.4817 O.3       1 UNK         0.0000 
     23 H23         5.4021   52.6471   28.9595 H         1 UNK         0.0000 
     24 H24         5.2924   55.1002   29.2817 H         1 UNK         0.0000 
     25 H25         3.1044   56.2673   29.0743 H         1 UNK         0.0000 
     26 H26         3.3338   51.3853   28.4817 H         1 UNK         0.0000 
     27 H27        -1.6059   51.2752   30.1919 H         1 UNK         0.0000 
     28 H28        -1.2956   52.9188   29.6817 H         1 UNK         0.0000 
     29 H29        -2.0169   50.5259   27.9324 H         1 UNK         0.0000 
     30 H30        -2.9162   51.9832   28.1055 H         1 UNK         0.0000 
     31 H31        -1.6402   51.9523   25.9522 H         1 UNK         0.0000 
     32 H32        -1.2521   53.2967   26.9616 H         1 UNK         0.0000 
     33 H33         1.0632   53.6316   25.7581 H         1 UNK         0.0000 
     34 H34         2.1687   52.3158   25.7236 H         1 UNK         0.0000 
     35 H35         1.1738   52.6351   23.5099 H         1 UNK         0.0000 
     36 H36        -0.4267   52.3803   24.1321 H         1 UNK         0.0000 
     37 H37         1.8686   50.4230   24.0621 H         1 UNK         0.0000 
     38 H38         0.3856   50.2771   23.1161 H         1 UNK         0.0000 
     39 H39         1.5044   50.0575   26.8817 H         1 UNK         0.0000 
     40 H40        -0.0956   49.7411   27.3637 H         1 UNK         0.0000 
     41 H41        -1.5301   49.1694   25.8622 H         1 UNK         0.0000 
     42 H42         0.1193   52.0669   31.2509 H         1 UNK         0.0000 
     43 H43         0.9683   56.1139   28.6993 H         1 UNK         0.0000 
@<TRIPOS>BOND
     1    1    6 ar   
     2    1    2 ar   
     3    1   23 1    
     4    2    3 ar   
     5    2   24 1    
     6    3    4 ar   
     7    3   25 1    
     8    4    5 ar   
     9    4   22 1    
    10    5    6 ar   
    11    5    7 1    
    12    6   26 1    
    13    7   13 1    
    14    7    8 1    
    15    8    9 1    
    16    8   10 1    
    17    8   21 1    
    18   10   11 1    
    19   10   27 1    
    20   10   28 1    
    21   11   12 1    
    22   11   29 1    
    23   11   30 1    
    24   12   13 1    
    25   12   31 1    
    26   12   32 1    
    27   13   19 1    
    28   13   14 1    
    29   14   15 1    
    30   14   33 1    
    31   14   34 1    
    32   15   16 1    
    33   15   35 1    
    34   15   36 1    
    35   16   17 1    
    36   16   37 1    
    37   16   38 1    
    38   17   18 1    
    39   17   19 1    
    40   17   20 1    
    41   19   39 1    
    42   19   40 1    
    43   20   41 1    
    44   21   42 1    
    45   22   43 1    
@<TRIPOS>SUBSTRUCTURE
     1 UNK         1 GROUP             0       ****    0 ROOT    
