@<TRIPOS>MOLECULE
ZINC64117483_3700
60   63    1
SMALL
USER_CHARGES


@<TRIPOS>ATOM
      1 C1          3.8008   56.5954   17.5552 C.3       1 UNK         0.0000 
      2 C2          5.1436   56.1110   18.0770 C.ar      1 UNK         0.0000 
      3 C3          6.1115   57.0620   18.4261 C.ar      1 UNK         0.0000 
      4 C4          7.3663   56.6604   18.8824 C.ar      1 UNK         0.0000 
      5 C5          7.6635   55.3064   18.9983 C.ar      1 UNK         0.0000 
      6 C6          6.7030   54.3533   18.6593 C.ar      1 UNK         0.0000 
      7 C7          5.4383   54.7387   18.2039 C.ar      1 UNK         0.0000 
      8 C8          4.4346   53.6457   17.8290 C.3       1 UNK         0.0000 
      9 C9          4.0004   52.7223   18.9923 C.3       1 UNK         0.0000 
     10 H10         4.8856   52.1488   19.2816 H         1 UNK         0.0000 
     11 C11         2.9507   51.6956   18.5353 C.3       1 UNK         0.0000 
     12 N12         3.5051   53.4381   20.1700 N.am      1 UNK         0.0000 
     13 C13         4.0083   53.3504   21.4112 C.2       1 UNK         0.0000 
     14 O14         5.0391   52.7283   21.6839 O.2       1 UNK         0.0000 
     15 C15         3.1776   54.0311   22.5330 C.3       1 UNK         0.0000 
     16 H16         3.1262   55.0826   22.2538 H         1 UNK         0.0000 
     17 C17         1.7017   53.4977   22.6257 C.3       1 UNK         0.0000 
     18 C18         1.5387   52.0140   22.9591 C.2       1 UNK         0.0000 
     19 C19         0.8621   51.4061   23.9549 C.2       1 UNK         0.0000 
     20 C20         0.0926   51.9596   25.0801 C.2       1 UNK         0.0000 
     21 C21        -0.5225   51.1482   25.9639 C.2       1 UNK         0.0000 
     22 C22        -0.3965   49.7095   25.7743 C.2       1 UNK         0.0000 
     23 C23         0.3053   49.1787   24.7410 C.2       1 UNK         0.0000 
     24 C24         0.9336   50.0168   23.8118 C.2       1 UNK         0.0000 
     25 N25         1.6351   49.6973   22.7538 N.pl3     1 UNK         0.0000 
     26 C26         2.0770   50.9118   22.0647 C.3       1 UNK         0.0000 
     27 N27         3.9480   54.0361   23.7895 N.am      1 UNK         0.0000 
     28 C28         3.5424   54.0920   25.0704 C.2       1 UNK         0.0000 
     29 O29         2.3667   54.0963   25.4254 O.2       1 UNK         0.0000 
     30 C30         4.5954   54.1208   26.0545 C.2       1 UNK         0.0000 
     31 C31         4.4333   53.9529   27.4314 C.2       1 UNK         0.0000 
     32 C32         5.6242   54.0986   28.1457 C.2       1 UNK         0.0000 
     33 C33         6.7034   54.3893   27.3305 C.2       1 UNK         0.0000 
     34 S34         6.2605   54.4998   25.6603 S.3       1 UNK         0.0000 
     35 H35         3.7009   56.3573   16.4981 H         1 UNK         0.0000 
     36 H36         2.9861   56.0990   18.0824 H         1 UNK         0.0000 
     37 H37         3.6662   57.6714   17.6805 H         1 UNK         0.0000 
     38 H38         5.9018   58.1189   18.3251 H         1 UNK         0.0000 
     39 H39         8.1156   57.3976   19.1265 H         1 UNK         0.0000 
     40 H40         8.6390   54.9916   19.3435 H         1 UNK         0.0000 
     41 H41         6.9502   53.3063   18.7410 H         1 UNK         0.0000 
     42 H42         3.5504   54.0638   17.3508 H         1 UNK         0.0000 
     43 H43         4.8932   53.0372   17.0470 H         1 UNK         0.0000 
     44 H44         3.1923   51.2960   17.5500 H         1 UNK         0.0000 
     45 H45         2.9350   50.8328   19.1989 H         1 UNK         0.0000 
     46 H46         1.9486   52.1199   18.4688 H         1 UNK         0.0000 
     47 H47         2.6924   54.0280   20.0263 H         1 UNK         0.0000 
     48 H48         1.1207   54.0972   23.3220 H         1 UNK         0.0000 
     49 H49         1.1938   53.6590   21.6791 H         1 UNK         0.0000 
     50 H50         0.0080   53.0259   25.2327 H         1 UNK         0.0000 
     51 H51        -1.0867   51.5450   26.7952 H         1 UNK         0.0000 
     52 H52        -0.8684   49.0433   26.4810 H         1 UNK         0.0000 
     53 H53         0.3810   48.1043   24.6703 H         1 UNK         0.0000 
     54 H54         1.6385   50.9096   21.0658 H         1 UNK         0.0000 
     55 H55         3.1613   50.8675   21.9972 H         1 UNK         0.0000 
     56 H56         4.9406   53.9408   23.6353 H         1 UNK         0.0000 
     57 H57         3.4831   53.7349   27.8986 H         1 UNK         0.0000 
     58 H58         5.6916   54.0076   29.2208 H         1 UNK         0.0000 
     59 H59         7.7210   54.5588   27.6450 H         1 UNK         0.0000 
     60 H60         1.8530   48.7519   22.4497 H         1 UNK         0.0000 
@<TRIPOS>BOND
     1    1    2 1    
     2    1   35 1    
     3    1   36 1    
     4    1   37 1    
     5    2    7 ar   
     6    2    3 ar   
     7    3    4 ar   
     8    3   38 1    
     9    4    5 ar   
    10    4   39 1    
    11    5    6 ar   
    12    5   40 1    
    13    6    7 ar   
    14    6   41 1    
    15    7    8 1    
    16    8    9 1    
    17    8   42 1    
    18    8   43 1    
    19    9   10 1    
    20    9   11 1    
    21    9   12 1    
    22   11   44 1    
    23   11   45 1    
    24   11   46 1    
    25   12   13 am   BACKBONE|DICT|INTERRES
    26   12   47 1    
    27   13   14 2    
    28   13   15 1    
    29   15   16 1    
    30   15   17 1    
    31   15   27 1    
    32   17   18 1    
    33   17   48 1    
    34   17   49 1    
    35   18   26 1    
    36   18   19 2    
    37   19   24 1    
    38   19   20 1    
    39   20   21 2    
    40   20   50 1    
    41   21   22 1    
    42   21   51 1    
    43   22   23 2    
    44   22   52 1    
    45   23   24 1    
    46   23   53 1    
    47   24   25 2    
    48   25   26 1    
    49   25   60 1    
    50   26   54 1    
    51   26   55 1    
    52   27   28 am   BACKBONE|DICT|INTERRES
    53   27   56 1    
    54   28   29 2    
    55   28   30 1    
    56   30   34 1    
    57   30   31 2    
    58   31   32 1    
    59   31   57 1    
    60   32   33 2    
    61   32   58 1    
    62   33   34 1    
    63   33   59 1    
@<TRIPOS>SUBSTRUCTURE
     1 UNK         1 GROUP             0       ****    0 ROOT    
