ZINC63850106_1311
                    3D
 Schrodinger Suite 2024-2.
 52 55  0  0  1  0            999 V2000
   -0.4277   52.1375   17.4521 C   0  0  0  0  0  0
   -0.9690   52.0959   18.8766 C   0  0  0  0  0  0
   -2.1132   52.4966   19.0898 O   0  0  0  0  0  0
   -0.1171   51.6215   19.8086 N   0  0  0  0  0  0
   -0.3020   51.4525   21.1944 C   0  0  0  0  0  0
   -1.5054   51.7017   21.8728 C   0  0  0  0  0  0
   -1.5833   51.5191   23.2484 C   0  0  0  0  0  0
   -0.4672   51.0717   23.9544 C   0  0  0  0  0  0
    0.7294   50.8055   23.2878 C   0  0  0  0  0  0
    0.8096   50.9992   21.9107 C   0  0  0  0  0  0
   -0.5723   50.8510   25.7252 S   0  0  0  0  0  0
   -1.9941   50.8559   26.0834 O   0  0  0  0  0  0
    0.3077   49.7335   26.0803 O   0  0  0  0  0  0
    0.1228   52.3182   26.3872 N   0  0  0  0  0  0
    1.5730   52.4269   26.6366 C   0  0  0  0  0  0
    1.9282   53.5982   27.5837 C   0  0  1  0  0  0
    1.5266   54.4968   27.1160 H   0  0  0  0  0  0
    1.2285   53.4504   28.9335 C   0  0  0  0  0  0
    0.5983   52.3303   29.4843 C   0  0  0  0  0  0
    0.0635   52.5285   30.7504 C   0  0  0  0  0  0
    0.3042   53.7999   31.2328 C   0  0  0  0  0  0
    1.1065   54.7828   30.0584 S   0  0  0  0  0  0
    3.4383   53.8391   27.6371 C   0  0  0  0  0  0
    4.3242   54.1065   26.6555 C   0  0  0  0  0  0
    4.1411   54.2749   25.2042 C   0  0  0  0  0  0
    5.1971   54.4971   24.3958 C   0  0  0  0  0  0
    6.5190   54.5793   25.0004 C   0  0  0  0  0  0
    6.7018   54.4447   26.3402 C   0  0  0  0  0  0
    5.6150   54.2068   27.1847 C   0  0  0  0  0  0
    5.6019   54.0458   28.4818 N   0  3  0  0  0  0
    4.2283   53.7912   28.9358 C   0  0  0  0  0  0
    0.4296   51.4748   17.3226 H   0  0  0  0  0  0
   -0.1188   53.1531   17.2001 H   0  0  0  0  0  0
   -1.2009   51.8303   16.7467 H   0  0  0  0  0  0
    0.7996   51.3655   19.4741 H   0  0  0  0  0  0
   -2.3957   52.0356   21.3677 H   0  0  0  0  0  0
   -2.5138   51.7218   23.7590 H   0  0  0  0  0  0
    1.5925   50.4480   23.8319 H   0  0  0  0  0  0
    1.7437   50.7918   21.4074 H   0  0  0  0  0  0
   -0.5051   52.9557   26.8825 H   0  0  0  0  0  0
    1.9041   51.4891   27.0819 H   0  0  0  0  0  0
    2.0735   52.4978   25.6716 H   0  0  0  0  0  0
    0.5123   51.3810   28.9743 H   0  0  0  0  0  0
   -0.4815   51.7609   31.2812 H   0  0  0  0  0  0
    0.0025   54.2059   32.1879 H   0  0  0  0  0  0
    3.1633   54.2305   24.7462 H   0  0  0  0  0  0
    5.0666   54.6147   23.3289 H   0  0  0  0  0  0
    7.3774   54.7461   24.3627 H   0  0  0  0  0  0
    7.6985   54.4964   26.7486 H   0  0  0  0  0  0
    3.9632   54.5771   29.6433 H   0  0  0  0  0  0
    4.2051   52.8168   29.4265 H   0  0  0  0  0  0
    6.4158   54.0880   29.0918 H   0  0  0  0  0  0
  1  2  1  0  0  0
  1 32  1  0  0  0
  1 33  1  0  0  0
  1 34  1  0  0  0
  2  3  2  0  0  0
  2  4  1  0  0  0
  4  5  1  0  0  0
  4 35  1  0  0  0
  5 10  2  0  0  0
  5  6  1  0  0  0
  6  7  2  0  0  0
  6 36  1  0  0  0
  7  8  1  0  0  0
  7 37  1  0  0  0
  8  9  2  0  0  0
  8 11  1  0  0  0
  9 10  1  0  0  0
  9 38  1  0  0  0
 10 39  1  0  0  0
 11 12  2  0  0  0
 11 13  2  0  0  0
 11 14  1  0  0  0
 14 15  1  0  0  0
 14 40  1  0  0  0
 15 16  1  0  0  0
 15 41  1  0  0  0
 15 42  1  0  0  0
 16 17  1  0  0  0
 16 18  1  0  0  0
 16 23  1  0  0  0
 18 22  1  0  0  0
 18 19  2  0  0  0
 19 20  1  0  0  0
 19 43  1  0  0  0
 20 21  2  0  0  0
 20 44  1  0  0  0
 21 22  1  0  0  0
 21 45  1  0  0  0
 23 31  1  0  0  0
 23 24  2  0  0  0
 24 29  1  0  0  0
 24 25  1  0  0  0
 25 26  2  0  0  0
 25 46  1  0  0  0
 26 27  1  0  0  0
 26 47  1  0  0  0
 27 28  2  0  0  0
 27 48  1  0  0  0
 28 29  1  0  0  0
 28 49  1  0  0  0
 29 30  2  0  0  0
 30 31  1  0  0  0
 30 52  1  0  0  0
 31 50  1  0  0  0
 31 51  1  0  0  0
M  CHG  1  30   1
M  END
> <i_i_glide_confnum>
132

> <i_i_glide_lignum>
1312

> <i_i_glide_posenum>
283

> <i_i_glide_rotatable_bonds>
8

> <i_m_Source_File_Index>
1008

> <b_m_subgroup_collapsed>
0

> <r_i_docking_score>
-5.78866

> <r_i_glide_ecoul>
-0.945642

> <r_i_glide_eff_state_penalty>
0

> <r_i_glide_einternal>
13.4462

> <r_i_glide_emodel>
-57.9929

> <r_i_glide_energy>
-46.1084

> <r_i_glide_erotb>
0.720136

> <r_i_glide_esite>
-0.178278

> <r_i_glide_evdw>
-45.1627

> <r_i_glide_gscore>
-5.78866

> <r_i_glide_hbond>
-0.32

> <r_i_glide_ligand_efficiency>
-0.192955

> <r_i_glide_ligand_efficiency_ln>
-1.31525

> <r_i_glide_ligand_efficiency_sa>
-0.599558

> <r_i_glide_lipo>
-3.12252

> <r_i_glide_metal>
0

> <r_i_glide_rewards>
-0.488022

> <s_i_glide_gridfile>
wee1_glide-grid

> <s_m_Source_File>
wee1_decoys_glide_SP.sdf

> <s_m_Source_Path>
/Users/zhangxujun/Desktop

> <s_m_entry_id>
1283

> <s_m_entry_name>
wee1_decoys_glide_SP.1008

> <s_m_subgroup_title>
wee1_decoys_glide_SP

> <s_m_subgroupid>
wee1_decoys_glide_SP


$$$$
