ZINC39670959_221
                    3D
 Schrodinger Suite 2024-2.
 65 68  0  0  1  0            999 V2000
   -4.3096   52.0381   25.4103 C   0  0  0  0  0  0
   -4.3754   50.9689   26.5495 C   0  0  0  0  0  0
   -4.1497   49.5099   26.0425 C   0  0  0  0  0  0
   -5.2593   49.0329   25.0796 C   0  0  0  0  0  0
   -6.6554   49.1245   25.7256 C   0  0  0  0  0  0
   -6.9464   50.5277   26.2908 C   0  0  0  0  0  0
   -5.8043   51.0305   27.2062 C   0  0  0  0  0  0
   -3.2905   51.2968   27.6496 C   0  0  0  0  0  0
   -3.6280   51.2369   28.8359 O   0  0  0  0  0  0
   -2.0120   51.6554   27.3382 N   0  0  0  0  0  0
   -1.0024   51.8767   28.3860 C   0  0  0  0  0  0
    0.2307   52.3365   27.5888 C   0  0  2  0  0  0
    0.1371   53.3924   27.3430 H   0  0  0  0  0  0
    0.1306   51.4979   26.2874 C   0  0  0  0  0  0
   -1.3869   51.6235   26.0093 C   0  0  0  0  0  0
    1.0204   52.0400   25.1396 C   0  0  0  0  0  0
    0.8127   51.2538   23.8239 C   0  0  0  0  0  0
    1.1029   49.7518   24.0651 N   0  3  0  0  0  0
    0.3020   49.1287   25.2296 C   0  0  0  0  0  0
    0.5121   49.9959   26.4856 C   0  0  0  0  0  0
    1.5305   52.1656   28.4111 C   0  0  0  0  0  0
    1.6358   51.2974   29.2748 O   0  0  0  0  0  0
    2.4908   53.0818   28.1992 N   0  0  0  0  0  0
    3.7601   53.1408   28.9240 C   0  0  0  0  0  0
    4.5635   54.4192   28.6174 C   0  0  0  0  0  0
    5.1211   54.4609   27.2105 C   0  0  0  0  0  0
    6.4086   54.4882   26.6982 C   0  0  0  0  0  0
    6.2983   54.5106   25.3066 C   0  0  0  0  0  0
    4.9410   54.4970   25.0307 C   0  0  0  0  0  0
    4.2272   54.4719   26.1852 O   0  0  0  0  0  0
   -5.2445   52.1223   24.8600 H   0  0  0  0  0  0
   -4.0949   53.0403   25.7889 H   0  0  0  0  0  0
   -3.5720   51.7971   24.6478 H   0  0  0  0  0  0
   -3.1876   49.3898   25.5500 H   0  0  0  0  0  0
   -4.1447   48.8221   26.8926 H   0  0  0  0  0  0
   -5.2378   49.6259   24.1647 H   0  0  0  0  0  0
   -5.0646   48.0037   24.7753 H   0  0  0  0  0  0
   -7.4221   48.8484   25.0002 H   0  0  0  0  0  0
   -6.7268   48.3903   26.5303 H   0  0  0  0  0  0
   -7.1246   51.2251   25.4732 H   0  0  0  0  0  0
   -7.8798   50.5025   26.8555 H   0  0  0  0  0  0
   -5.8395   50.3775   28.0810 H   0  0  0  0  0  0
   -6.0317   52.0399   27.5574 H   0  0  0  0  0  0
   -0.8260   50.9010   28.8472 H   0  0  0  0  0  0
   -1.2952   52.5574   29.1837 H   0  0  0  0  0  0
   -1.5310   52.6047   25.5530 H   0  0  0  0  0  0
   -1.7253   50.8564   25.3215 H   0  0  0  0  0  0
    0.7499   53.0799   24.9487 H   0  0  0  0  0  0
    2.0716   52.0967   25.4237 H   0  0  0  0  0  0
   -0.2112   51.3129   23.4508 H   0  0  0  0  0  0
    1.4946   51.5768   23.0354 H   0  0  0  0  0  0
    0.9238   49.2299   23.2195 H   0  0  0  0  0  0
   -0.7349   49.0560   24.9087 H   0  0  0  0  0  0
    0.6886   48.1174   25.3612 H   0  0  0  0  0  0
    1.5044   49.8591   26.8822 H   0  0  0  0  0  0
   -0.0953   49.5758   27.2792 H   0  0  0  0  0  0
    2.3667   53.7657   27.4686 H   0  0  0  0  0  0
    4.3565   52.2608   28.6717 H   0  0  0  0  0  0
    3.5750   53.0829   29.9985 H   0  0  0  0  0  0
    5.3876   54.4951   29.3270 H   0  0  0  0  0  0
    3.9429   55.2951   28.8095 H   0  0  0  0  0  0
    7.3183   54.4882   27.2792 H   0  0  0  0  0  0
    7.1042   54.5281   24.5865 H   0  0  0  0  0  0
    4.3672   54.4995   24.1152 H   0  0  0  0  0  0
    2.0865   49.6161   24.2602 H   0  0  0  0  0  0
  1  2  1  0  0  0
  1 31  1  0  0  0
  1 32  1  0  0  0
  1 33  1  0  0  0
  2  7  1  0  0  0
  2  3  1  0  0  0
  2  8  1  0  0  0
  3  4  1  0  0  0
  3 34  1  0  0  0
  3 35  1  0  0  0
  4  5  1  0  0  0
  4 36  1  0  0  0
  4 37  1  0  0  0
  5  6  1  0  0  0
  5 38  1  0  0  0
  5 39  1  0  0  0
  6  7  1  0  0  0
  6 40  1  0  0  0
  6 41  1  0  0  0
  7 42  1  0  0  0
  7 43  1  0  0  0
  8  9  2  0  0  0
  8 10  1  0  0  0
 10 15  1  0  0  0
 10 11  1  0  0  0
 11 12  1  0  0  0
 11 44  1  0  0  0
 11 45  1  0  0  0
 12 13  1  0  0  0
 12 14  1  0  0  0
 12 21  1  0  0  0
 14 20  1  0  0  0
 14 15  1  0  0  0
 14 16  1  0  0  0
 15 46  1  0  0  0
 15 47  1  0  0  0
 16 17  1  0  0  0
 16 48  1  0  0  0
 16 49  1  0  0  0
 17 18  1  0  0  0
 17 50  1  0  0  0
 17 51  1  0  0  0
 18 19  1  0  0  0
 18 52  1  0  0  0
 18 65  1  0  0  0
 19 20  1  0  0  0
 19 53  1  0  0  0
 19 54  1  0  0  0
 20 55  1  0  0  0
 20 56  1  0  0  0
 21 22  2  0  0  0
 21 23  1  0  0  0
 23 24  1  0  0  0
 23 57  1  0  0  0
 24 25  1  0  0  0
 24 58  1  0  0  0
 24 59  1  0  0  0
 25 26  1  0  0  0
 25 60  1  0  0  0
 25 61  1  0  0  0
 26 30  1  0  0  0
 26 27  2  0  0  0
 27 28  1  0  0  0
 27 62  1  0  0  0
 28 29  2  0  0  0
 28 63  1  0  0  0
 29 30  1  0  0  0
 29 64  1  0  0  0
M  CHG  1  18   1
M  END
> <i_i_glide_confnum>
46

> <i_i_glide_lignum>
222

> <i_i_glide_posenum>
324

> <i_i_glide_rotatable_bonds>
7

> <i_m_Source_File_Index>
1539

> <b_m_subgroup_collapsed>
0

> <r_i_docking_score>
-4.44816

> <r_i_glide_ecoul>
-3.1969

> <r_i_glide_eff_state_penalty>
0

> <r_i_glide_einternal>
3.76564

> <r_i_glide_emodel>
-44.9164

> <r_i_glide_energy>
-34.8877

> <r_i_glide_erotb>
0.726637

> <r_i_glide_esite>
-0.131711

> <r_i_glide_evdw>
-31.6908

> <r_i_glide_gscore>
-4.44816

> <r_i_glide_hbond>
-0.0565045

> <r_i_glide_ligand_efficiency>
-0.153385

> <r_i_glide_ligand_efficiency_ln>
-1.01852

> <r_i_glide_ligand_efficiency_sa>
-0.471247

> <r_i_glide_lipo>
-1.92077

> <r_i_glide_metal>
0

> <r_i_glide_rewards>
-1.00173

> <s_i_glide_gridfile>
wee1_glide-grid

> <s_m_Source_File>
wee1_decoys_glide_SP.sdf

> <s_m_Source_Path>
/Users/zhangxujun/Desktop

> <s_m_entry_id>
1814

> <s_m_entry_name>
wee1_decoys_glide_SP.1539

> <s_m_subgroup_title>
wee1_decoys_glide_SP

> <s_m_subgroupid>
wee1_decoys_glide_SP


$$$$
