ZINC00544009_3757
                    3D
 Schrodinger Suite 2024-2.
 38 40  0  0  1  0            999 V2000
    5.6850   53.4381   28.4792 C   0  0  0  0  0  0
    4.4261   52.9868   29.1902 C   0  0  0  0  0  0
    4.3043   52.0969   30.2508 C   0  0  0  0  0  0
    3.0342   52.0037   30.6988 O   0  0  0  0  0  0
    2.3137   52.8237   29.9110 C   0  0  0  0  0  0
    3.1357   53.4877   29.0014 C   0  0  0  0  0  0
    2.6050   54.5390   28.0391 C   0  0  2  0  0  0
    3.2172   55.4349   28.1590 H   0  0  0  0  0  0
    1.1753   54.9423   28.4817 C   0  0  0  0  0  0
    0.2849   53.7430   28.8807 C   0  0  0  0  0  0
    0.8227   52.9806   30.1086 C   0  0  0  0  0  0
    2.7272   54.0896   26.6412 N   0  0  0  0  0  0
    2.2083   53.2553   26.4145 H   0  0  0  0  0  0
    3.7008   54.4667   25.7894 C   0  0  0  0  0  0
    4.5612   55.2956   26.0811 O   0  0  0  0  0  0
    3.6078   53.8771   24.5802 N   0  0  0  0  0  0
    4.4403   54.1343   23.4711 C   0  0  0  0  0  0
    3.8561   54.0716   22.2043 C   0  0  0  0  0  0
    4.5899   54.4429   21.0789 C   0  0  0  0  0  0
    5.9051   54.8818   21.2196 C   0  0  0  0  0  0
    6.5156   54.8908   22.4704 C   0  0  0  0  0  0
    5.7936   54.4965   23.5930 C   0  0  0  0  0  0
    6.7929   55.4030   19.8354 Cl  0  0  0  0  0  0
    6.5951   53.2970   29.0579 H   0  0  0  0  0  0
    5.8121   52.9359   27.5197 H   0  0  0  0  0  0
    5.6538   54.5087   28.2763 H   0  0  0  0  0  0
    5.0314   51.5177   30.7982 H   0  0  0  0  0  0
    1.2388   55.6245   29.3301 H   0  0  0  0  0  0
    0.7038   55.5122   27.6856 H   0  0  0  0  0  0
   -0.7192   54.0917   29.1065 H   0  0  0  0  0  0
    0.1883   53.0629   28.0326 H   0  0  0  0  0  0
    0.6107   53.5353   31.0235 H   0  0  0  0  0  0
    0.3228   52.0127   30.1818 H   0  0  0  0  0  0
    2.7934   53.3123   24.3984 H   0  0  0  0  0  0
    2.8207   53.7841   22.0847 H   0  0  0  0  0  0
    4.1234   54.4240   20.1040 H   0  0  0  0  0  0
    7.5421   55.2103   22.5721 H   0  0  0  0  0  0
    6.2845   54.5178   24.5545 H   0  0  0  0  0  0
  1  2  1  0  0  0
  1 24  1  0  0  0
  1 25  1  0  0  0
  1 26  1  0  0  0
  2  6  1  0  0  0
  2  3  2  0  0  0
  3  4  1  0  0  0
  3 27  1  0  0  0
  4  5  1  0  0  0
  5 11  1  0  0  0
  5  6  2  0  0  0
  6  7  1  0  0  0
  7  8  1  0  0  0
  7  9  1  0  0  0
  7 12  1  0  0  0
  9 10  1  0  0  0
  9 28  1  0  0  0
  9 29  1  0  0  0
 10 11  1  0  0  0
 10 30  1  0  0  0
 10 31  1  0  0  0
 11 32  1  0  0  0
 11 33  1  0  0  0
 12 13  1  0  0  0
 12 14  1  0  0  0
 14 15  2  0  0  0
 14 16  1  0  0  0
 16 17  1  0  0  0
 16 34  1  0  0  0
 17 22  2  0  0  0
 17 18  1  0  0  0
 18 19  2  0  0  0
 18 35  1  0  0  0
 19 20  1  0  0  0
 19 36  1  0  0  0
 20 21  2  0  0  0
 20 23  1  0  0  0
 21 22  1  0  0  0
 21 37  1  0  0  0
 22 38  1  0  0  0
M  END
> <i_i_glide_confnum>
4

> <i_i_glide_lignum>
3758

> <i_i_glide_posenum>
258

> <i_i_glide_rotatable_bonds>
4

> <i_m_Source_File_Index>
1958

> <b_m_subgroup_collapsed>
0

> <r_i_docking_score>
-6.60249

> <r_i_glide_ecoul>
-2.74539

> <r_i_glide_eff_state_penalty>
0

> <r_i_glide_einternal>
3.3078

> <r_i_glide_emodel>
-49.0819

> <r_i_glide_energy>
-36.8618

> <r_i_glide_erotb>
0.595805

> <r_i_glide_esite>
0

> <r_i_glide_evdw>
-34.1164

> <r_i_glide_gscore>
-6.60249

> <r_i_glide_hbond>
-0.32

> <r_i_glide_ligand_efficiency>
-0.314404

> <r_i_glide_ligand_efficiency_ln>
-1.63245

> <r_i_glide_ligand_efficiency_sa>
-0.867418

> <r_i_glide_lipo>
-3.1775

> <r_i_glide_metal>
0

> <r_i_glide_rewards>
-1.58317

> <s_i_glide_gridfile>
wee1_glide-grid

> <s_m_Source_File>
wee1_decoys_glide_SP.sdf

> <s_m_Source_Path>
/Users/zhangxujun/Desktop

> <s_m_entry_id>
2233

> <s_m_entry_name>
wee1_decoys_glide_SP.1958

> <s_m_subgroup_title>
wee1_decoys_glide_SP

> <s_m_subgroupid>
wee1_decoys_glide_SP


$$$$
