@<TRIPOS>MOLECULE
ZINC33513710_3396
57   61    1
SMALL
USER_CHARGES


@<TRIPOS>ATOM
      1 C1          7.2607   54.3633   23.0872 C.3       1 UNK         0.0000 
      2 C2          5.7710   54.1162   23.2354 C.ar      1 UNK         0.0000 
      3 N3          5.1720   53.6402   22.1172 N.ar      1 UNK         0.0000 
      4 C4          3.8378   53.4018   22.1248 C.ar      1 UNK         0.0000 
      5 C5          3.0374   53.6314   23.2691 C.ar      1 UNK         0.0000 
      6 C6          3.6907   54.1149   24.4172 C.ar      1 UNK         0.0000 
      7 C7          5.0746   54.3648   24.4310 C.ar      1 UNK         0.0000 
      8 C8          5.7678   54.8882   25.6745 C.2       1 UNK         0.0000 
      9 O9          6.7044   55.6926   25.5982 O.2       1 UNK         0.0000 
     10 N10         5.3011   54.4146   26.8423 N.am      1 UNK         0.0000 
     11 N11         5.8275   54.7927   28.0281 N.2       1 UNK         0.0000 
     12 C12         5.0940   54.6484   29.0622 C.2       1 UNK         0.0000 
     13 C13         3.6769   54.2609   29.1232 C.ar      1 UNK         0.0000 
     14 C14         3.2462   53.2722   30.0263 C.ar      1 UNK         0.0000 
     15 C15         1.8870   52.9722   30.0647 C.ar      1 UNK         0.0000 
     16 C16         0.9837   53.6116   29.2634 C.ar      1 UNK         0.0000 
     17 C17         1.3728   54.5845   28.3549 C.ar      1 UNK         0.0000 
     18 C18         2.7281   54.9059   28.3016 C.ar      1 UNK         0.0000 
     19 O19        -0.2689   53.1787   29.5483 O.3       1 UNK         0.0000 
     20 C20        -0.1043   52.0984   30.4231 C.3       1 UNK         0.0000 
     21 O21         1.2304   52.0968   30.8670 O.3       1 UNK         0.0000 
     22 C22         1.5396   53.4036   23.3318 C.2       1 UNK         0.0000 
     23 O23         0.8558   54.0968   24.0818 O.2       1 UNK         0.0000 
     24 N24         1.0279   52.4041   22.5904 N.am      1 UNK         0.0000 
     25 N25        -0.2928   52.0966   22.5857 N.2       1 UNK         0.0000 
     26 C26        -0.6639   51.1419   21.8218 C.2       1 UNK         0.0000 
     27 C27         0.1603   50.2102   21.0338 C.ar      1 UNK         0.0000 
     28 C28        -0.2599   49.8516   19.7389 C.ar      1 UNK         0.0000 
     29 C29         0.5498   49.0025   18.9947 C.ar      1 UNK         0.0000 
     30 C30         1.7139   48.4982   19.4957 C.ar      1 UNK         0.0000 
     31 C31         2.1410   48.7912   20.7834 C.ar      1 UNK         0.0000 
     32 C32         1.3503   49.6490   21.5513 C.ar      1 UNK         0.0000 
     33 O33         2.2901   47.6892   18.5714 O.3       1 UNK         0.0000 
     34 C34         1.5464   47.8689   17.3972 C.3       1 UNK         0.0000 
     35 O35         0.3484   48.5120   17.7431 O.3       1 UNK         0.0000 
     36 C36         3.3248   52.8931   20.7801 C.3       1 UNK         0.0000 
     37 H37         7.5039   55.3976   23.3272 H         1 UNK         0.0000 
     38 H38         7.8236   53.6984   23.7435 H         1 UNK         0.0000 
     39 H39         7.6289   54.2291   22.0819 H         1 UNK         0.0000 
     40 H40         3.1056   54.3051   25.3071 H         1 UNK         0.0000 
     41 H41         4.4733   53.8375   26.8938 H         1 UNK         0.0000 
     42 H42         5.5152   54.8951   30.0331 H         1 UNK         0.0000 
     43 H43         3.9430   52.7622   30.6774 H         1 UNK         0.0000 
     44 H44         0.6813   55.0955   27.7057 H         1 UNK         0.0000 
     45 H45         3.0265   55.6935   27.6239 H         1 UNK         0.0000 
     46 H46        -0.3285   51.1820   29.8721 H         1 UNK         0.0000 
     47 H47        -0.7786   52.1952   31.2729 H         1 UNK         0.0000 
     48 H48         1.6092   51.8516   21.9768 H         1 UNK         0.0000 
     49 H49        -1.7289   50.9604   21.7077 H         1 UNK         0.0000 
     50 H50        -1.1768   50.2386   19.3176 H         1 UNK         0.0000 
     51 H51         3.0432   48.3649   21.1951 H         1 UNK         0.0000 
     52 H52         1.6690   49.8614   22.5631 H         1 UNK         0.0000 
     53 H53         2.1136   48.5032   16.7139 H         1 UNK         0.0000 
     54 H54         1.3528   46.9128   16.9131 H         1 UNK         0.0000 
     55 H55         2.3432   53.2967   20.5315 H         1 UNK         0.0000 
     56 H56         3.9862   53.1791   19.9594 H         1 UNK         0.0000 
     57 H57         3.2693   51.8037   20.7830 H         1 UNK         0.0000 
@<TRIPOS>BOND
     1    1    2 1    
     2    1   37 1    
     3    1   38 1    
     4    1   39 1    
     5    2    7 ar   
     6    2    3 ar   
     7    3    4 ar   
     8    4    5 ar   
     9    4   36 1    
    10    5    6 ar   
    11    5   22 1    
    12    6    7 ar   
    13    6   40 1    
    14    7    8 1    
    15    8    9 2    
    16    8   10 am   BACKBONE|DICT|INTERRES
    17   10   11 1    
    18   10   41 1    
    19   11   12 2    
    20   12   13 1    
    21   12   42 1    
    22   13   18 ar   
    23   13   14 ar   
    24   14   15 ar   
    25   14   43 1    
    26   15   21 1    
    27   15   16 ar   
    28   16   17 ar   
    29   16   19 1    
    30   17   18 ar   
    31   17   44 1    
    32   18   45 1    
    33   19   20 1    
    34   20   21 1    
    35   20   46 1    
    36   20   47 1    
    37   22   23 2    
    38   22   24 am   BACKBONE|DICT|INTERRES
    39   24   25 1    
    40   24   48 1    
    41   25   26 2    
    42   26   27 1    
    43   26   49 1    
    44   27   32 ar   
    45   27   28 ar   
    46   28   29 ar   
    47   28   50 1    
    48   29   35 1    
    49   29   30 ar   
    50   30   31 ar   
    51   30   33 1    
    52   31   32 ar   
    53   31   51 1    
    54   32   52 1    
    55   33   34 1    
    56   34   35 1    
    57   34   53 1    
    58   34   54 1    
    59   36   55 1    
    60   36   56 1    
    61   36   57 1    
@<TRIPOS>SUBSTRUCTURE
     1 UNK         1 GROUP             0       ****    0 ROOT    
