@<TRIPOS>MOLECULE
ZINC63588635_5017
58   62    1
SMALL
USER_CHARGES


@<TRIPOS>ATOM
      1 C1          2.7752   50.2896   20.3350 C.3       1 UNK         0.0000 
      2 C2          1.2667   50.5183   20.3546 C.ar      1 UNK         0.0000 
      3 C3          0.5188   50.1243   19.2395 C.ar      1 UNK         0.0000 
      4 C4         -0.8588   50.3295   19.2026 C.ar      1 UNK         0.0000 
      5 C5         -1.4986   50.9359   20.2796 C.ar      1 UNK         0.0000 
      6 C6         -0.7616   51.3341   21.3931 C.ar      1 UNK         0.0000 
      7 C7          0.6262   51.1245   21.4538 C.ar      1 UNK         0.0000 
      8 N8          1.3971   51.5329   22.5584 N.pl3     1 UNK         0.0000 
      9 C9          1.0458   52.2208   23.7632 C.2       1 UNK         0.0000 
     10 N10        -0.0204   51.5577   24.4452 N.pl3     1 UNK         0.0000 
     11 C11        -0.5024   51.9943   25.7582 C.3       1 UNK         0.0000 
     12 C12         0.4630   51.5974   26.8924 C.3       1 UNK         0.0000 
     13 C13         0.1561   52.2093   28.2504 C.2       1 UNK         0.0000 
     14 C14         0.5352   53.3668   28.8305 C.2       1 UNK         0.0000 
     15 C15         1.2902   54.5164   28.3111 C.2       1 UNK         0.0000 
     16 C16         1.5745   55.5770   29.0949 C.2       1 UNK         0.0000 
     17 C17         1.1080   55.5509   30.4736 C.2       1 UNK         0.0000 
     18 C18         0.4123   54.4950   30.9730 C.2       1 UNK         0.0000 
     19 C19         0.1281   53.3869   30.1690 C.2       1 UNK         0.0000 
     20 N20        -0.4961   52.2801   30.4817 N.pl3     1 UNK         0.0000 
     21 C21        -0.6063   51.4287   29.2909 C.3       1 UNK         0.0000 
     22 N22         1.6637   53.2297   24.2644 N.am      1 UNK         0.0000 
     23 C23         2.7999   53.7719   23.6700 C.2       1 UNK         0.0000 
     24 O24         2.8417   54.1093   22.4857 O.2       1 UNK         0.0000 
     25 C25         3.9806   54.0010   24.5918 C.ar      1 UNK         0.0000 
     26 C26         5.1999   54.4969   24.0746 C.ar      1 UNK         0.0000 
     27 C27         6.2986   54.7598   24.9072 C.ar      1 UNK         0.0000 
     28 C28         6.1479   54.4993   26.2643 C.ar      1 UNK         0.0000 
     29 C29         4.9979   53.9678   26.7693 C.ar      1 UNK         0.0000 
     30 C30         3.9049   53.7006   25.9662 C.ar      1 UNK         0.0000 
     31 O31         5.1408   53.7367   28.0982 O.3       1 UNK         0.0000 
     32 C32         6.2704   54.4755   28.4482 C.3       1 UNK         0.0000 
     33 O33         7.0304   54.6714   27.2812 O.3       1 UNK         0.0000 
     34 Cl34       -1.7695   49.8394   17.8218 Cl        1 UNK         0.0000 
     35 H35         3.1088   49.7811   19.4281 H         1 UNK         0.0000 
     36 H36         3.3036   51.2422   20.3952 H         1 UNK         0.0000 
     37 H37         3.0816   49.6855   21.1894 H         1 UNK         0.0000 
     38 H38         1.0088   49.6643   18.3927 H         1 UNK         0.0000 
     39 H39        -2.5657   51.0986   20.2518 H         1 UNK         0.0000 
     40 H40        -1.2866   51.8164   22.2029 H         1 UNK         0.0000 
     41 H41        -0.1146   50.5675   24.2689 H         1 UNK         0.0000 
     42 H42        -0.6568   53.0693   25.7379 H         1 UNK         0.0000 
     43 H43        -1.4820   51.5481   25.9371 H         1 UNK         0.0000 
     44 H44         0.4897   50.5107   26.9942 H         1 UNK         0.0000 
     45 H45         1.4788   51.8797   26.6376 H         1 UNK         0.0000 
     46 H46         1.5990   54.5630   27.2800 H         1 UNK         0.0000 
     47 H47         2.1100   56.4323   28.7070 H         1 UNK         0.0000 
     48 H48         1.3196   56.3967   31.1151 H         1 UNK         0.0000 
     49 H49         0.0934   54.5214   32.0061 H         1 UNK         0.0000 
     50 H50        -1.6609   51.2546   29.0679 H         1 UNK         0.0000 
     51 H51        -0.1153   50.4967   29.5116 H         1 UNK         0.0000 
     52 H52         2.3879   51.4840   22.3784 H         1 UNK         0.0000 
     53 H53         5.2970   54.7058   23.0177 H         1 UNK         0.0000 
     54 H54         7.2175   55.1537   24.4973 H         1 UNK         0.0000 
     55 H55         3.0313   53.2597   26.4048 H         1 UNK         0.0000 
     56 H56         5.9044   55.4258   28.8448 H         1 UNK         0.0000 
     57 H57         6.8628   53.9933   29.2260 H         1 UNK         0.0000 
     58 H58        -0.8880   52.0480   31.4036 H         1 UNK         0.0000 
@<TRIPOS>BOND
     1    1    2 1    
     2    1   35 1    
     3    1   36 1    
     4    1   37 1    
     5    2    7 ar   
     6    2    3 ar   
     7    3    4 ar   
     8    3   38 1    
     9    4    5 ar   
    10    4   34 1    
    11    5    6 ar   
    12    5   39 1    
    13    6    7 ar   
    14    6   40 1    
    15    7    8 1    
    16    8   52 1    
    17    8    9 1    
    18    9   10 1    
    19    9   22 2    
    20   10   11 1    
    21   10   41 1    
    22   11   12 1    
    23   11   42 1    
    24   11   43 1    
    25   12   13 1    
    26   12   44 1    
    27   12   45 1    
    28   13   21 1    
    29   13   14 2    
    30   14   19 1    
    31   14   15 1    
    32   15   16 2    
    33   15   46 1    
    34   16   17 1    
    35   16   47 1    
    36   17   18 2    
    37   17   48 1    
    38   18   19 1    
    39   18   49 1    
    40   19   20 2    
    41   20   21 1    
    42   20   58 1    
    43   21   50 1    
    44   21   51 1    
    45   22   23 am   BACKBONE|DICT|INTERRES
    46   23   24 2    
    47   23   25 1    
    48   25   30 ar   
    49   25   26 ar   
    50   26   27 ar   
    51   26   53 1    
    52   27   28 ar   
    53   27   54 1    
    54   28   33 1    
    55   28   29 ar   
    56   29   30 ar   
    57   29   31 1    
    58   30   55 1    
    59   31   32 1    
    60   32   33 1    
    61   32   56 1    
    62   32   57 1    
@<TRIPOS>SUBSTRUCTURE
     1 UNK         1 GROUP             0       ****    0 ROOT    
