ZINC12659004_4224
                    3D
 Schrodinger Suite 2024-2.
 77 82  0  0  1  0            999 V2000
    0.2745   49.2027   25.6153 C   0  0  0  0  0  0
   -0.1791   50.4907   24.8588 C   0  0  2  0  0  0
   -0.1480   51.6814   25.8759 C   0  0  0  0  0  0
   -1.2309   51.6172   26.9829 C   0  0  0  0  0  0
   -2.6058   51.5483   26.3209 C   0  0  0  0  0  0
   -3.4502   52.4969   26.4681 N   0  0  0  0  0  0
   -4.6437   52.3389   25.8611 N   0  0  0  0  0  0
   -5.5937   53.3001   25.8358 C   0  0  0  0  0  0
   -5.4118   54.4650   26.2135 O   0  0  0  0  0  0
   -6.9431   52.8756   25.2930 C   0  0  0  0  0  0
   -7.8631   53.8415   24.8534 C   0  0  0  0  0  0
   -9.0989   53.4305   24.3539 C   0  0  0  0  0  0
   -9.4703   52.1289   24.2799 N   0  0  0  0  0  0
   -8.5857   51.1974   24.7138 C   0  0  0  0  0  0
   -7.3267   51.5226   25.2219 C   0  0  0  0  0  0
   -2.7155   50.2755   25.4495 C   0  0  0  0  0  0
   -1.6485   50.3449   24.3204 C   0  0  2  0  0  0
   -1.8874   51.2442   23.7530 H   0  0  0  0  0  0
   -1.7482   49.1714   23.3123 C   0  0  0  0  0  0
   -0.7700   49.3389   22.1287 C   0  0  0  0  0  0
    0.7096   49.5985   22.5689 C   0  0  2  0  0  0
    1.0317   48.6989   23.0900 H   0  0  0  0  0  0
    0.7509   50.7674   23.6085 C   0  0  1  0  0  0
    1.7739   50.8154   23.9879 H   0  0  0  0  0  0
    0.5050   52.0967   22.8347 C   0  0  0  0  0  0
    1.5914   52.3534   21.7875 C   0  0  0  0  0  0
    1.7747   51.2143   20.7412 C   0  0  1  0  0  0
    1.7770   49.8108   21.4261 C   0  0  2  0  0  0
    2.7550   49.6662   21.8901 H   0  0  0  0  0  0
    1.6371   48.8484   20.2390 C   0  0  0  0  0  0
    0.8628   49.5995   19.1478 C   0  0  0  0  0  0
    0.6635   51.0323   19.6862 C   0  0  0  0  0  0
   -0.2356   51.8909   19.3822 N   0  0  0  0  0  0
   -1.1009   51.4774   18.4305 N   0  0  0  0  0  0
   -2.1960   52.1707   18.0562 C   0  0  0  0  0  0
   -2.4897   53.2914   18.4816 O   0  0  0  0  0  0
   -3.0932   51.4871   17.0492 C   0  0  0  0  0  0
   -3.9486   52.2518   16.2390 C   0  0  0  0  0  0
   -4.7777   51.6047   15.3212 C   0  0  0  0  0  0
   -4.8043   50.2567   15.1730 N   0  0  0  0  0  0
   -3.9817   49.5210   15.9615 C   0  0  0  0  0  0
   -3.1211   50.0873   16.9036 C   0  0  0  0  0  0
    3.1395   51.5019   20.0508 C   0  0  0  0  0  0
    0.2457   48.2957   25.0176 H   0  0  0  0  0  0
    1.2935   49.2912   25.9838 H   0  0  0  0  0  0
   -0.3467   48.9889   26.4817 H   0  0  0  0  0  0
    0.8450   51.7687   26.3199 H   0  0  0  0  0  0
   -0.3068   52.6305   25.3690 H   0  0  0  0  0  0
   -1.1610   52.4967   27.6248 H   0  0  0  0  0  0
   -1.0890   50.7572   27.6378 H   0  0  0  0  0  0
   -4.7995   51.4356   25.4419 H   0  0  0  0  0  0
   -7.6316   54.8959   24.8831 H   0  0  0  0  0  0
   -9.8175   54.1552   23.9998 H   0  0  0  0  0  0
   -8.9075   50.1683   24.6494 H   0  0  0  0  0  0
   -6.6789   50.7250   25.5562 H   0  0  0  0  0  0
   -2.5666   49.3946   26.0747 H   0  0  0  0  0  0
   -3.7070   50.1621   25.0145 H   0  0  0  0  0  0
   -1.5986   48.2156   23.8133 H   0  0  0  0  0  0
   -2.7669   49.1135   22.9264 H   0  0  0  0  0  0
   -1.1329   50.1596   21.5135 H   0  0  0  0  0  0
   -0.8277   48.4664   21.4788 H   0  0  0  0  0  0
   -0.4854   52.1447   22.3855 H   0  0  0  0  0  0
    0.5306   52.9496   23.5086 H   0  0  0  0  0  0
    2.5268   52.5144   22.3266 H   0  0  0  0  0  0
    1.3880   53.2967   21.2820 H   0  0  0  0  0  0
    2.6277   48.5865   19.8596 H   0  0  0  0  0  0
    1.1779   47.8960   20.5004 H   0  0  0  0  0  0
    1.4355   49.6211   18.2177 H   0  0  0  0  0  0
   -0.0911   49.1071   18.9534 H   0  0  0  0  0  0
   -0.9013   50.5712   18.0359 H   0  0  0  0  0  0
   -3.9726   53.3302   16.3139 H   0  0  0  0  0  0
   -5.4431   52.1714   14.6858 H   0  0  0  0  0  0
   -4.0260   48.4506   15.8280 H   0  0  0  0  0  0
   -2.5040   49.4360   17.5063 H   0  0  0  0  0  0
    3.3948   50.7716   19.2824 H   0  0  0  0  0  0
    3.1398   52.4771   19.5614 H   0  0  0  0  0  0
    3.9640   51.4991   20.7652 H   0  0  0  0  0  0
  1  2  1  0  0  0
  1 44  1  0  0  0
  1 45  1  0  0  0
  1 46  1  0  0  0
  2 17  1  0  0  0
  2 23  1  0  0  0
  2  3  1  0  0  0
  3  4  1  0  0  0
  3 47  1  0  0  0
  3 48  1  0  0  0
  4  5  1  0  0  0
  4 49  1  0  0  0
  4 50  1  0  0  0
  5  6  2  0  0  0
  5 16  1  0  0  0
  6  7  1  0  0  0
  7  8  1  0  0  0
  7 51  1  0  0  0
  8  9  2  0  0  0
  8 10  1  0  0  0
 10 15  2  0  0  0
 10 11  1  0  0  0
 11 12  2  0  0  0
 11 52  1  0  0  0
 12 13  1  0  0  0
 12 53  1  0  0  0
 13 14  2  0  0  0
 14 15  1  0  0  0
 14 54  1  0  0  0
 15 55  1  0  0  0
 16 17  1  0  0  0
 16 56  1  0  0  0
 16 57  1  0  0  0
 17 18  1  0  0  0
 17 19  1  0  0  0
 19 20  1  0  0  0
 19 58  1  0  0  0
 19 59  1  0  0  0
 20 21  1  0  0  0
 20 60  1  0  0  0
 20 61  1  0  0  0
 21 22  1  0  0  0
 21 28  1  0  0  0
 21 23  1  0  0  0
 23 24  1  0  0  0
 23 25  1  0  0  0
 25 26  1  0  0  0
 25 62  1  0  0  0
 25 63  1  0  0  0
 26 27  1  0  0  0
 26 64  1  0  0  0
 26 65  1  0  0  0
 27 32  1  0  0  0
 27 28  1  0  0  0
 27 43  1  0  0  0
 28 29  1  0  0  0
 28 30  1  0  0  0
 30 31  1  0  0  0
 30 66  1  0  0  0
 30 67  1  0  0  0
 31 32  1  0  0  0
 31 68  1  0  0  0
 31 69  1  0  0  0
 32 33  2  0  0  0
 33 34  1  0  0  0
 34 35  1  0  0  0
 34 70  1  0  0  0
 35 36  2  0  0  0
 35 37  1  0  0  0
 37 42  2  0  0  0
 37 38  1  0  0  0
 38 39  2  0  0  0
 38 71  1  0  0  0
 39 40  1  0  0  0
 39 72  1  0  0  0
 40 41  2  0  0  0
 41 42  1  0  0  0
 41 73  1  0  0  0
 42 74  1  0  0  0
 43 75  1  0  0  0
 43 76  1  0  0  0
 43 77  1  0  0  0
M  END
> <i_i_glide_confnum>
10

> <i_i_glide_lignum>
4225

> <i_i_glide_posenum>
134

> <i_i_glide_rotatable_bonds>
6

> <i_m_Source_File_Index>
1590

> <b_m_subgroup_collapsed>
0

> <r_i_docking_score>
-3.64286

> <r_i_glide_ecoul>
-8.05441

> <r_i_glide_eff_state_penalty>
0

> <r_i_glide_einternal>
6.18631

> <r_i_glide_emodel>
-50.0427

> <r_i_glide_energy>
-42.5167

> <r_i_glide_erotb>
0.296924

> <r_i_glide_esite>
-0.0629318

> <r_i_glide_evdw>
-34.4623

> <r_i_glide_gscore>
-3.64286

> <r_i_glide_hbond>
-0.547138

> <r_i_glide_ligand_efficiency>
-0.0934066

> <r_i_glide_ligand_efficiency_ln>
-0.781132

> <r_i_glide_ligand_efficiency_sa>
-0.316762

> <r_i_glide_lipo>
-0.316059

> <r_i_glide_metal>
0

> <r_i_glide_rewards>
-0.0823757

> <s_i_glide_gridfile>
wee1_glide-grid

> <s_m_Source_File>
wee1_decoys_glide_SP.sdf

> <s_m_Source_Path>
/Users/zhangxujun/Desktop

> <s_m_entry_id>
1865

> <s_m_entry_name>
wee1_decoys_glide_SP.1590

> <s_m_subgroup_title>
wee1_decoys_glide_SP

> <s_m_subgroupid>
wee1_decoys_glide_SP


$$$$
