@<TRIPOS>MOLECULE
ZINC44942892_4857
78   82    1
SMALL
USER_CHARGES


@<TRIPOS>ATOM
      1 C1          5.7712   54.4954   24.0598 C.ar      1 UNK         0.0000 
      2 C2          6.7190   54.4823   25.0781 C.ar      1 UNK         0.0000 
      3 C3          6.3151   54.4411   26.4106 C.ar      1 UNK         0.0000 
      4 C4          4.9542   54.4284   26.7242 C.ar      1 UNK         0.0000 
      5 C5          4.0047   54.4851   25.6941 C.ar      1 UNK         0.0000 
      6 C6          4.4120   54.4968   24.3636 C.ar      1 UNK         0.0000 
      7 C7          4.5472   54.3601   28.1991 C.3       1 UNK         0.0000 
      8 O8          3.1375   54.2069   28.3758 O.3       1 UNK         0.0000 
      9 C9          2.6109   52.9009   28.1281 C.3       1 UNK         0.0000 
     10 H10         3.1468   52.4624   27.2864 H         1 UNK         0.0000 
     11 C11         2.7902   51.9940   29.3669 C.3       1 UNK         0.0000 
     12 C12         1.9620   52.4918   30.5674 C.3       1 UNK         0.0000 
     13 C13         0.4727   52.6518   30.2060 C.3       1 UNK         0.0000 
     14 C14         0.3084   53.5405   28.9600 C.3       1 UNK         0.0000 
     15 C15         1.1157   53.0296   27.7375 C.3       1 UNK         0.0000 
     16 H16         1.0528   53.7828   26.9543 H         1 UNK         0.0000 
     17 N17         0.6083   51.7813   27.1466 N.am      1 UNK         0.0000 
     18 C18        -0.5726   51.6220   26.5191 C.2       1 UNK         0.0000 
     19 O19        -1.4372   52.4963   26.4855 O.2       1 UNK         0.0000 
     20 C20        -0.8101   50.2508   25.8437 C.3       1 UNK         0.0000 
     21 H21        -0.3946   49.5752   26.5957 H         1 UNK         0.0000 
     22 C22        -2.3070   49.8651   25.6812 C.3       1 UNK         0.0000 
     23 C23        -2.4270   48.4147   25.1591 C.3       1 UNK         0.0000 
     24 C24        -1.5730   48.1459   23.9007 C.3       1 UNK         0.0000 
     25 C25        -0.0993   48.5462   24.1281 C.3       1 UNK         0.0000 
     26 C26         0.0936   50.0145   24.5800 C.3       1 UNK         0.0000 
     27 H27         1.1272   50.2055   24.8569 H         1 UNK         0.0000 
     28 C28        -0.1858   50.9853   23.3766 C.2       1 UNK         0.0000 
     29 O29        -1.2088   51.6747   23.3933 O.2       1 UNK         0.0000 
     30 N30         0.6396   50.9971   22.2861 N.am      1 UNK         0.0000 
     31 C31         0.2475   51.8476   21.1336 C.3       1 UNK         0.0000 
     32 C32         1.1993   51.6079   19.9370 C.3       1 UNK         0.0000 
     33 N33         2.6113   51.8239   20.3245 N.pl3     1 UNK         0.0000 
     34 C34         2.9731   51.3689   21.6832 C.3       1 UNK         0.0000 
     35 C35         1.9653   50.3432   22.2534 C.3       1 UNK         0.0000 
     36 C36         3.5320   52.5487   19.5057 C.ar      1 UNK         0.0000 
     37 C37         4.6342   53.2343   20.0447 C.ar      1 UNK         0.0000 
     38 C38         5.4870   53.9522   19.2019 C.ar      1 UNK         0.0000 
     39 C39         5.2330   53.9868   17.8286 C.ar      1 UNK         0.0000 
     40 C40         4.1284   53.2971   17.3212 C.ar      1 UNK         0.0000 
     41 N41         3.3282   52.6189   18.1705 N.pl3     1 UNK         0.0000 
     42 H42         6.0953   54.5217   23.0293 H         1 UNK         0.0000 
     43 H43         7.7696   54.4938   24.8319 H         1 UNK         0.0000 
     44 H44         7.0558   54.4093   27.1966 H         1 UNK         0.0000 
     45 H45         2.9482   54.4985   25.9101 H         1 UNK         0.0000 
     46 H46         3.6787   54.5213   23.5707 H         1 UNK         0.0000 
     47 H47         4.8368   55.2964   28.6697 H         1 UNK         0.0000 
     48 H48         5.0978   53.5724   28.7144 H         1 UNK         0.0000 
     49 H49         2.4366   50.9915   29.1144 H         1 UNK         0.0000 
     50 H50         3.8442   51.8725   29.6192 H         1 UNK         0.0000 
     51 H51         2.0703   51.8175   31.4191 H         1 UNK         0.0000 
     52 H52         2.3538   53.4564   30.8813 H         1 UNK         0.0000 
     53 H53         0.0265   51.6734   30.0193 H         1 UNK         0.0000 
     54 H54        -0.0751   53.0771   31.0491 H         1 UNK         0.0000 
     55 H55         0.6227   54.5592   29.1973 H         1 UNK         0.0000 
     56 H56        -0.7450   53.6142   28.7063 H         1 UNK         0.0000 
     57 H57         1.1843   50.9666   27.2706 H         1 UNK         0.0000 
     58 H58        -2.8187   50.5106   24.9665 H         1 UNK         0.0000 
     59 H59        -2.8139   49.8851   26.6490 H         1 UNK         0.0000 
     60 H60        -3.4742   48.1833   24.9595 H         1 UNK         0.0000 
     61 H61        -2.1136   47.7308   25.9526 H         1 UNK         0.0000 
     62 H62        -1.9829   48.6993   23.0541 H         1 UNK         0.0000 
     63 H63        -1.6362   47.0913   23.6280 H         1 UNK         0.0000 
     64 H64         0.5400   48.3042   23.2832 H         1 UNK         0.0000 
     65 H65         0.3431   47.9030   24.8894 H         1 UNK         0.0000 
     66 H66         0.3313   52.8944   21.4350 H         1 UNK         0.0000 
     67 H67        -0.7667   51.5888   20.8142 H         1 UNK         0.0000 
     68 H68         0.9412   52.3236   19.1588 H         1 UNK         0.0000 
     69 H69         1.0920   50.6062   19.5162 H         1 UNK         0.0000 
     70 H70         3.9582   50.9069   21.6280 H         1 UNK         0.0000 
     71 H71         3.0482   52.2442   22.3292 H         1 UNK         0.0000 
     72 H72         1.8945   49.4897   21.5804 H         1 UNK         0.0000 
     73 H73         2.3376   49.9986   23.2173 H         1 UNK         0.0000 
     74 H74         4.8315   53.2174   21.1065 H         1 UNK         0.0000 
     75 H75         6.3389   54.4785   19.6082 H         1 UNK         0.0000 
     76 H76         5.8906   54.5316   17.1663 H         1 UNK         0.0000 
     77 H77         3.8663   53.2450   16.2742 H         1 UNK         0.0000 
     78 H78         2.5602   52.0876   17.7852 H         1 UNK         0.0000 
@<TRIPOS>BOND
     1    1    6 ar   
     2    1    2 ar   
     3    1   42 1    
     4    2    3 ar   
     5    2   43 1    
     6    3    4 ar   
     7    3   44 1    
     8    4    5 ar   
     9    4    7 1    
    10    5    6 ar   
    11    5   45 1    
    12    6   46 1    
    13    7    8 1    
    14    7   47 1    
    15    7   48 1    
    16    8    9 1    
    17    9   10 1    
    18    9   15 1    
    19    9   11 1    
    20   11   12 1    
    21   11   49 1    
    22   11   50 1    
    23   12   13 1    
    24   12   51 1    
    25   12   52 1    
    26   13   14 1    
    27   13   53 1    
    28   13   54 1    
    29   14   15 1    
    30   14   55 1    
    31   14   56 1    
    32   15   16 1    
    33   15   17 1    
    34   17   18 am   BACKBONE|DICT|INTERRES
    35   17   57 1    
    36   18   19 2    
    37   18   20 1    
    38   20   21 1    
    39   20   26 1    
    40   20   22 1    
    41   22   23 1    
    42   22   58 1    
    43   22   59 1    
    44   23   24 1    
    45   23   60 1    
    46   23   61 1    
    47   24   25 1    
    48   24   62 1    
    49   24   63 1    
    50   25   26 1    
    51   25   64 1    
    52   25   65 1    
    53   26   27 1    
    54   26   28 1    
    55   28   29 2    
    56   28   30 am   BACKBONE|DICT|INTERRES
    57   30   35 1    
    58   30   31 1    
    59   31   32 1    
    60   31   66 1    
    61   31   67 1    
    62   32   33 1    
    63   32   68 1    
    64   32   69 1    
    65   33   34 1    
    66   33   36 1    
    67   34   35 1    
    68   34   70 1    
    69   34   71 1    
    70   35   72 1    
    71   35   73 1    
    72   36   41 ar   
    73   36   37 ar   
    74   37   38 ar   
    75   37   74 1    
    76   38   39 ar   
    77   38   75 1    
    78   39   40 ar   
    79   39   76 1    
    80   40   41 ar   
    81   40   77 1    
    82   41   78 1    
@<TRIPOS>SUBSTRUCTURE
     1 UNK         1 GROUP             0       ****    0 ROOT    
