@<TRIPOS>MOLECULE
ZINC60331840_2786
57   61    1
SMALL
USER_CHARGES


@<TRIPOS>ATOM
      1 C1         -0.4360   57.3451   16.4799 C.3       1 UNK         0.0000 
      2 C2          1.0441   57.0956   16.3266 C.2       1 UNK         0.0000 
      3 C3          2.0823   57.9962   16.0795 C.2       1 UNK         0.0000 
      4 C4          3.3543   57.4166   16.0343 C.2       1 UNK         0.0000 
      5 C5          3.3104   56.0429   16.1861 C.2       1 UNK         0.0000 
      6 S6          1.6929   55.4908   16.4799 S.3       1 UNK         0.0000 
      7 S7          4.7492   54.9447   16.2009 S.o2      1 UNK         0.0000 
      8 O8          5.8411   55.7008   16.8256 O.2       1 UNK         0.0000 
      9 O9          4.8598   54.4055   14.8418 O.2       1 UNK         0.0000 
     10 N10         4.1997   53.6630   17.2932 N.pl3     1 UNK         0.0000 
     11 C11         3.3822   52.5345   16.7808 C.3       1 UNK         0.0000 
     12 C12         2.3206   52.1050   17.8280 C.3       1 UNK         0.0000 
     13 C13         2.8962   51.9598   19.2630 C.3       1 UNK         0.0000 
     14 C14         3.7417   53.2125   19.6249 C.3       1 UNK         0.0000 
     15 H15         3.1044   54.0967   19.6424 H         1 UNK         0.0000 
     16 C16         4.8632   53.4333   18.5932 C.3       1 UNK         0.0000 
     17 C17         4.3453   53.0672   21.0316 C.2       1 UNK         0.0000 
     18 O18         5.1034   52.1275   21.2859 O.2       1 UNK         0.0000 
     19 N19         3.9764   54.0010   21.9293 N.am      1 UNK         0.0000 
     20 C20         4.4511   54.0967   23.2390 C.ar      1 UNK         0.0000 
     21 C21         5.8208   54.2359   23.5034 C.ar      1 UNK         0.0000 
     22 C22         6.3136   54.3880   24.8018 C.ar      1 UNK         0.0000 
     23 C23         5.3695   54.3776   25.8317 C.ar      1 UNK         0.0000 
     24 C24         3.9807   54.2281   25.5839 C.ar      1 UNK         0.0000 
     25 C25         3.5123   54.0979   24.2698 C.ar      1 UNK         0.0000 
     26 N26         3.2625   54.2412   26.7464 N.2       1 UNK         0.0000 
     27 C27         4.1570   54.4041   27.6888 C.ar      1 UNK         0.0000 
     28 N28         5.4413   54.4844   27.2032 N.pl3     1 UNK         0.0000 
     29 H29         6.2519   54.5965   27.7947 H         1 UNK         0.0000 
     30 C30         3.8360   54.4747   29.1762 C.3       1 UNK         0.0000 
     31 C31         2.3828   54.8403   29.5483 C.3       1 UNK         0.0000 
     32 C32         2.0723   53.3412   29.6801 C.3       1 UNK         0.0000 
     33 C33         3.5800   53.1205   29.8699 C.3       1 UNK         0.0000 
     34 H34        -1.0139   56.8038   15.7338 H         1 UNK         0.0000 
     35 H35        -0.7916   57.0335   17.4628 H         1 UNK         0.0000 
     36 H36        -0.6849   58.4011   16.3784 H         1 UNK         0.0000 
     37 H37         1.9238   59.0575   15.9639 H         1 UNK         0.0000 
     38 H38         4.2659   57.9809   15.8808 H         1 UNK         0.0000 
     39 H39         4.0560   51.7006   16.5958 H         1 UNK         0.0000 
     40 H40         2.9274   52.8101   15.8282 H         1 UNK         0.0000 
     41 H41         1.8583   51.1689   17.5148 H         1 UNK         0.0000 
     42 H42         1.5179   52.8425   17.8376 H         1 UNK         0.0000 
     43 H43         3.5052   51.0550   19.2578 H         1 UNK         0.0000 
     44 H44         2.0399   51.8473   19.9316 H         1 UNK         0.0000 
     45 H45         5.4865   54.2917   18.8337 H         1 UNK         0.0000 
     46 H46         5.4804   52.5377   18.4779 H         1 UNK         0.0000 
     47 H47         3.2231   54.6221   21.6708 H         1 UNK         0.0000 
     48 H48         6.5176   54.2355   22.6780 H         1 UNK         0.0000 
     49 H49         7.3690   54.4984   24.9819 H         1 UNK         0.0000 
     50 H50         2.4541   53.9868   24.0720 H         1 UNK         0.0000 
     51 H51         4.5828   55.0913   29.6803 H         1 UNK         0.0000 
     52 H52         1.8257   55.4051   28.7986 H         1 UNK         0.0000 
     53 H53         2.3044   55.3957   30.4822 H         1 UNK         0.0000 
     54 H54         1.6782   52.8943   28.7655 H         1 UNK         0.0000 
     55 H55         1.4443   53.0620   30.5273 H         1 UNK         0.0000 
     56 H56         3.8984   53.1110   30.9156 H         1 UNK         0.0000 
     57 H57         4.0269   52.2499   29.3853 H         1 UNK         0.0000 
@<TRIPOS>BOND
     1    1    2 1    
     2    1   34 1    
     3    1   35 1    
     4    1   36 1    
     5    2    6 1    
     6    2    3 2    
     7    3    4 1    
     8    3   37 1    
     9    4    5 2    
    10    4   38 1    
    11    5    6 1    
    12    5    7 1    
    13    7    8 2    
    14    7    9 2    
    15    7   10 1    
    16   10   16 1    
    17   10   11 1    
    18   11   12 1    
    19   11   39 1    
    20   11   40 1    
    21   12   13 1    
    22   12   41 1    
    23   12   42 1    
    24   13   14 1    
    25   13   43 1    
    26   13   44 1    
    27   14   15 1    
    28   14   16 1    
    29   14   17 1    
    30   16   45 1    
    31   16   46 1    
    32   17   18 2    
    33   17   19 am   BACKBONE|DICT|INTERRES
    34   19   20 1    
    35   19   47 1    
    36   20   25 ar   
    37   20   21 ar   
    38   21   22 ar   
    39   21   48 1    
    40   22   23 ar   
    41   22   49 1    
    42   23   28 ar   
    43   23   24 ar   
    44   24   25 ar   
    45   24   26 ar   
    46   25   50 1    
    47   26   27 ar   
    48   27   28 ar   
    49   27   30 1    
    50   28   29 1    
    51   30   33 1    
    52   30   31 1    
    53   30   51 1    
    54   31   32 1    
    55   31   52 1    
    56   31   53 1    
    57   32   33 1    
    58   32   54 1    
    59   32   55 1    
    60   33   56 1    
    61   33   57 1    
@<TRIPOS>SUBSTRUCTURE
     1 UNK         1 GROUP             0       ****    0 ROOT    
