ZINC66135911_1822
                    3D
 Schrodinger Suite 2024-2.
 44 45  0  0  1  0            999 V2000
   -0.0972   52.5539   30.4287 C   0  0  0  0  0  0
    0.7429   53.5280   29.6080 C   0  0  0  0  0  0
    1.3659   53.1828   28.3894 C   0  0  0  0  0  0
    2.1549   54.1814   27.7626 C   0  0  0  0  0  0
    2.3027   55.4057   28.3486 N   0  0  0  0  0  0
    1.6400   55.6404   29.5055 C   0  0  0  0  0  0
    0.8629   54.7580   30.1628 N   0  0  0  0  0  0
    1.7623   56.8942   30.0841 N   0  0  0  0  0  0
    2.8971   54.0438   26.4570 C   0  0  0  0  0  0
    2.2376   53.6967   25.2707 C   0  0  0  0  0  0
    2.9183   53.6277   24.0526 C   0  0  0  0  0  0
    4.2921   53.9022   23.9684 C   0  0  0  0  0  0
    4.9542   54.2393   25.1628 C   0  0  0  0  0  0
    4.2693   54.3109   26.3789 C   0  0  0  0  0  0
    5.0388   53.8209   22.5949 C   0  0  0  0  0  0
    5.1649   52.3663   22.0795 C   0  0  0  0  0  0
    6.4628   54.4397   22.6559 C   0  0  0  0  0  0
    4.2718   54.5847   21.4951 C   0  0  0  0  0  0
    1.2798   51.7722   27.8931 C   0  0  0  0  0  0
    1.9046   50.8969   28.4812 O   0  0  0  0  0  0
    0.4516   51.5462   26.8654 N   0  0  0  0  0  0
    0.2076   50.2167   26.3139 C   0  0  0  0  0  0
   -0.9360   52.1807   29.8419 H   0  0  0  0  0  0
    0.5047   51.6987   30.7339 H   0  0  0  0  0  0
   -0.4960   53.0071   31.3369 H   0  0  0  0  0  0
    1.3074   57.0668   30.9684 H   0  0  0  0  0  0
    2.3883   57.5792   29.6821 H   0  0  0  0  0  0
    1.1760   53.5065   25.2772 H   0  0  0  0  0  0
    2.3610   53.3490   23.1709 H   0  0  0  0  0  0
    6.0114   54.4513   25.1743 H   0  0  0  0  0  0
    4.8130   54.5833   27.2721 H   0  0  0  0  0  0
    5.5042   52.3384   21.0430 H   0  0  0  0  0  0
    4.2121   51.8356   22.0817 H   0  0  0  0  0  0
    5.9041   51.7943   22.6350 H   0  0  0  0  0  0
    6.4462   55.4566   23.0500 H   0  0  0  0  0  0
    7.1371   53.8535   23.2817 H   0  0  0  0  0  0
    6.9216   54.4982   21.6690 H   0  0  0  0  0  0
    4.3095   55.6463   21.6817 H   0  0  0  0  0  0
    4.7206   54.4448   20.5107 H   0  0  0  0  0  0
    3.2271   54.2894   21.4065 H   0  0  0  0  0  0
   -0.1058   52.3066   26.5091 H   0  0  0  0  0  0
   -0.1120   50.2918   25.2749 H   0  0  0  0  0  0
    1.0987   49.5871   26.3469 H   0  0  0  0  0  0
   -0.5765   49.7156   26.8811 H   0  0  0  0  0  0
  1  2  1  0  0  0
  1 23  1  0  0  0
  1 24  1  0  0  0
  1 25  1  0  0  0
  2  7  2  0  0  0
  2  3  1  0  0  0
  3  4  2  0  0  0
  3 19  1  0  0  0
  4  5  1  0  0  0
  4  9  1  0  0  0
  5  6  2  0  0  0
  6  7  1  0  0  0
  6  8  1  0  0  0
  8 26  1  0  0  0
  8 27  1  0  0  0
  9 14  2  0  0  0
  9 10  1  0  0  0
 10 11  2  0  0  0
 10 28  1  0  0  0
 11 12  1  0  0  0
 11 29  1  0  0  0
 12 13  2  0  0  0
 12 15  1  0  0  0
 13 14  1  0  0  0
 13 30  1  0  0  0
 14 31  1  0  0  0
 15 16  1  0  0  0
 15 17  1  0  0  0
 15 18  1  0  0  0
 16 32  1  0  0  0
 16 33  1  0  0  0
 16 34  1  0  0  0
 17 35  1  0  0  0
 17 36  1  0  0  0
 17 37  1  0  0  0
 18 38  1  0  0  0
 18 39  1  0  0  0
 18 40  1  0  0  0
 19 20  2  0  0  0
 19 21  1  0  0  0
 21 22  1  0  0  0
 21 41  1  0  0  0
 22 42  1  0  0  0
 22 43  1  0  0  0
 22 44  1  0  0  0
M  END
> <i_i_glide_confnum>
4

> <i_i_glide_lignum>
1823

> <i_i_glide_posenum>
142

> <i_i_glide_rotatable_bonds>
4

> <i_m_Source_File_Index>
743

> <b_m_subgroup_collapsed>
0

> <r_i_docking_score>
-6.78977

> <r_i_glide_ecoul>
-5.17627

> <r_i_glide_eff_state_penalty>
0

> <r_i_glide_einternal>
3.16913

> <r_i_glide_emodel>
-49.5373

> <r_i_glide_energy>
-35.1086

> <r_i_glide_erotb>
0.412213

> <r_i_glide_esite>
-0.0038852

> <r_i_glide_evdw>
-29.9324

> <r_i_glide_gscore>
-6.78977

> <r_i_glide_hbond>
-0.284524

> <r_i_glide_ligand_efficiency>
-0.308626

> <r_i_glide_ligand_efficiency_ln>
-1.65967

> <r_i_glide_ligand_efficiency_sa>
-0.864782

> <r_i_glide_lipo>
-2.58329

> <r_i_glide_metal>
0

> <r_i_glide_rewards>
-2.05723

> <s_i_glide_gridfile>
wee1_glide-grid

> <s_m_Source_File>
wee1_decoys_glide_SP.sdf

> <s_m_Source_Path>
/Users/zhangxujun/Desktop

> <s_m_entry_id>
1018

> <s_m_entry_name>
wee1_decoys_glide_SP.743

> <s_m_subgroup_title>
wee1_decoys_glide_SP

> <s_m_subgroupid>
wee1_decoys_glide_SP


$$$$
