@<TRIPOS>MOLECULE
ZINC15946704_5082
67   70    1
SMALL
USER_CHARGES


@<TRIPOS>ATOM
      1 C1          2.6708   52.6825   30.1455 C.3       1 UNK         0.0000 
      2 C2          3.0811   53.8253   29.1769 C.3       1 UNK         0.0000 
      3 C3          2.2433   55.0957   29.4931 C.3       1 UNK         0.0000 
      4 C4          4.5628   54.1733   29.4603 C.3       1 UNK         0.0000 
      5 C5          2.8805   53.3299   27.6906 C.3       1 UNK         0.0000 
      6 H6          3.1741   52.2790   27.6666 H         1 UNK         0.0000 
      7 C7          1.3988   53.3912   27.2551 C.3       1 UNK         0.0000 
      8 C8          1.1110   52.6530   25.9347 C.3       1 UNK         0.0000 
      9 C9          2.1373   53.0583   24.8707 C.2       1 UNK         0.0000 
     10 C10         3.3239   53.7163   25.2379 C.2       1 UNK         0.0000 
     11 S11         4.3211   54.0969   23.8866 S.3       1 UNK         0.0000 
     12 C12         3.1547   53.4339   22.8091 C.2       1 UNK         0.0000 
     13 C13         2.0075   52.9138   23.4578 C.2       1 UNK         0.0000 
     14 C14         0.8830   52.2342   22.8148 C.2       1 UNK         0.0000 
     15 O15         0.1387   51.4906   23.4518 O.2       1 UNK         0.0000 
     16 N16         0.7390   52.4945   21.4971 N.am      1 UNK         0.0000 
     17 C17        -0.2004   51.9812   20.5845 C.ar      1 UNK         0.0000 
     18 C18         0.1221   52.0988   19.2308 C.ar      1 UNK         0.0000 
     19 C19        -0.7577   51.6441   18.2527 C.ar      1 UNK         0.0000 
     20 C20        -1.9716   51.0675   18.6186 C.ar      1 UNK         0.0000 
     21 C21        -2.3246   50.9372   19.9701 C.ar      1 UNK         0.0000 
     22 C22        -1.4284   51.4021   20.9469 C.ar      1 UNK         0.0000 
     23 N23        -3.6158   50.3172   20.3561 N.pl3     1 UNK         0.0000 
     24 O24        -4.4195   50.0458   19.4693 O.co2     1 UNK         0.0000 
     25 O25        -3.8353   50.1086   21.5452 O.co2     1 UNK         0.0000 
     26 N26         3.5058   53.4942   21.4755 N.am      1 UNK         0.0000 
     27 C27         3.9166   52.4213   20.7676 C.2       1 UNK         0.0000 
     28 O28         4.0345   51.2965   21.2532 O.2       1 UNK         0.0000 
     29 C29         4.2677   52.6108   19.2809 C.3       1 UNK         0.0000 
     30 C30         3.6845   54.0255   17.2053 C.3       1 UNK         0.0000 
     31 C31         3.8169   55.4973   16.8149 C.3       1 UNK         0.0000 
     32 C32         4.7278   56.1481   17.8620 C.3       1 UNK         0.0000 
     33 C33         5.0156   55.0808   18.9216 C.3       1 UNK         0.0000 
     34 C34         3.7210   54.1223   26.6503 C.3       1 UNK         0.0000 
     35 H35         3.2009   51.7590   29.9106 H         1 UNK         0.0000 
     36 H36         2.8964   52.9009   31.1877 H         1 UNK         0.0000 
     37 H37         1.6051   52.4613   30.0945 H         1 UNK         0.0000 
     38 H38         2.4441   55.8977   28.7822 H         1 UNK         0.0000 
     39 H39         1.1712   54.9009   29.4753 H         1 UNK         0.0000 
     40 H40         2.4531   55.4924   30.4821 H         1 UNK         0.0000 
     41 H41         4.9250   54.9995   28.8487 H         1 UNK         0.0000 
     42 H42         4.7036   54.4958   30.4900 H         1 UNK         0.0000 
     43 H43         5.2163   53.3184   29.2816 H         1 UNK         0.0000 
     44 H44         0.7589   52.9474   28.0179 H         1 UNK         0.0000 
     45 H45         1.1047   54.4373   27.2081 H         1 UNK         0.0000 
     46 H46         0.0953   52.8854   25.6151 H         1 UNK         0.0000 
     47 H47         1.1282   51.5743   26.0905 H         1 UNK         0.0000 
     48 H48         1.4397   53.1001   21.0958 H         1 UNK         0.0000 
     49 H49         1.0548   52.5488   18.9239 H         1 UNK         0.0000 
     50 H50        -0.4975   51.7331   17.2082 H         1 UNK         0.0000 
     51 H51        -2.6336   50.7145   17.8398 H         1 UNK         0.0000 
     52 H52        -1.7079   51.3172   21.9859 H         1 UNK         0.0000 
     53 H53         3.6145   54.4123   21.0747 H         1 UNK         0.0000 
     54 H54         3.6920   51.8915   18.6924 H         1 UNK         0.0000 
     55 H55         5.3274   52.4420   19.0856 H         1 UNK         0.0000 
     56 H56         2.7183   53.5672   16.9856 H         1 UNK         0.0000 
     57 H57         4.4722   53.4006   16.7752 H         1 UNK         0.0000 
     58 H58         2.8347   55.9758   16.8109 H         1 UNK         0.0000 
     59 H59         4.2260   55.6006   15.8085 H         1 UNK         0.0000 
     60 H60         5.6609   56.4965   17.4124 H         1 UNK         0.0000 
     61 H61         4.2497   57.0232   18.3062 H         1 UNK         0.0000 
     62 H62         5.9656   54.5770   18.7258 H         1 UNK         0.0000 
     63 H63         5.0219   55.4294   19.9547 H         1 UNK         0.0000 
     64 H64         4.7852   53.9294   26.7922 H         1 UNK         0.0000 
     65 H65         3.5605   55.1936   26.7695 H         1 UNK         0.0000 
     66 N66         3.9061   54.0216   18.7290 N.4       1 UNK         0.0000 
     67 H67         3.0406   54.3359   19.1598 H         1 UNK         0.0000 
@<TRIPOS>BOND
     1    1    2 1    
     2    1   35 1    
     3    1   36 1    
     4    1   37 1    
     5    2    3 1    
     6    2    4 1    
     7    2    5 1    
     8    3   38 1    
     9    3   39 1    
    10    3   40 1    
    11    4   41 1    
    12    4   42 1    
    13    4   43 1    
    14    5    6 1    
    15    5   34 1    
    16    5    7 1    
    17    7    8 1    
    18    7   44 1    
    19    7   45 1    
    20    8    9 1    
    21    8   46 1    
    22    8   47 1    
    23    9   13 1    
    24    9   10 2    
    25   10   11 1    
    26   10   34 1    
    27   11   12 1    
    28   12   13 2    
    29   12   26 am   BACKBONE|DICT|INTERRES
    30   13   14 1    
    31   14   15 2    
    32   14   16 am   BACKBONE|DICT|INTERRES
    33   16   17 1    
    34   16   48 1    
    35   17   22 ar   
    36   17   18 ar   
    37   18   19 ar   
    38   18   49 1    
    39   19   20 ar   
    40   19   50 1    
    41   20   21 ar   
    42   20   51 1    
    43   21   22 ar   
    44   21   23 1    
    45   22   52 1    
    46   23   24 2    
    47   23   25 1    
    48   26   27 am   BACKBONE|DICT|INTERRES
    49   26   53 1    
    50   27   28 2    
    51   27   29 1    
    52   29   54 1    
    53   29   55 1    
    54   29   66 1    
    55   30   31 1    
    56   30   56 1    
    57   30   57 1    
    58   30   66 1    
    59   31   32 1    
    60   31   58 1    
    61   31   59 1    
    62   32   33 1    
    63   32   60 1    
    64   32   61 1    
    65   33   62 1    
    66   33   63 1    
    67   33   66 1    
    68   34   64 1    
    69   34   65 1    
    70   66   67 1    
@<TRIPOS>SUBSTRUCTURE
     1 UNK         1 GROUP             0       ****    0 ROOT    
