@<TRIPOS>MOLECULE
ZINC00941175_4309
37   39    1
SMALL
USER_CHARGES


@<TRIPOS>ATOM
      1 C1          3.0175   54.1857   28.8460 C.ar      1 UNK         0.0000 
      2 C2          4.3544   54.3977   29.1936 C.ar      1 UNK         0.0000 
      3 C3          5.3521   54.4967   28.2223 C.ar      1 UNK         0.0000 
      4 C4          4.9466   54.3857   26.8884 C.ar      1 UNK         0.0000 
      5 C5          3.6023   54.1632   26.5070 C.ar      1 UNK         0.0000 
      6 C6          2.6235   54.0622   27.5093 C.ar      1 UNK         0.0000 
      7 C7          3.6307   54.0957   25.0820 C.2       1 UNK         0.0000 
      8 C8          4.9572   54.2847   24.7011 C.2       1 UNK         0.0000 
      9 O9          5.7604   54.4783   25.7936 O.3       1 UNK         0.0000 
     10 C10         5.5622   54.2196   23.3961 C.2       1 UNK         0.0000 
     11 O11         5.0357   53.5748   22.4857 O.2       1 UNK         0.0000 
     12 N12         6.7000   54.9369   23.2776 N.am      1 UNK         0.0000 
     13 N13         7.4123   54.8968   22.0818 N.am      1 UNK         0.0000 
     14 C14         7.1445   55.7478   21.0754 C.2       1 UNK         0.0000 
     15 O15         6.3045   56.6474   21.1417 O.2       1 UNK         0.0000 
     16 C16         7.9735   55.5330   19.7914 C.3       1 UNK         0.0000 
     17 O17         7.8114   56.6084   18.8564 O.3       1 UNK         0.0000 
     18 C18         6.6136   56.8244   18.1942 C.ar      1 UNK         0.0000 
     19 C19         5.5399   55.9172   18.1935 C.ar      1 UNK         0.0000 
     20 C20         4.3407   56.2350   17.5547 C.ar      1 UNK         0.0000 
     21 C21         4.2045   57.4573   16.9002 C.ar      1 UNK         0.0000 
     22 C22         5.2702   58.3562   16.8754 C.ar      1 UNK         0.0000 
     23 C23         6.4693   58.0405   17.5172 C.ar      1 UNK         0.0000 
     24 Br24        7.9049   59.2956   17.4854 Br        1 UNK         0.0000 
     25 Br25        2.5543   57.9033   16.0669 Br        1 UNK         0.0000 
     26 H26         2.2704   54.1141   29.6251 H         1 UNK         0.0000 
     27 H27         4.6263   54.4977   30.2336 H         1 UNK         0.0000 
     28 H28         6.3866   54.6680   28.4845 H         1 UNK         0.0000 
     29 H29         1.5880   53.8929   27.2520 H         1 UNK         0.0000 
     30 H30         2.8089   53.9152   24.4049 H         1 UNK         0.0000 
     31 H31         7.1764   55.4243   24.0231 H         1 UNK         0.0000 
     32 H32         8.1402   54.1977   22.0766 H         1 UNK         0.0000 
     33 H33         7.7321   54.5768   19.3242 H         1 UNK         0.0000 
     34 H34         9.0323   55.4934   20.0540 H         1 UNK         0.0000 
     35 H35         5.6113   54.9690   18.7031 H         1 UNK         0.0000 
     36 H36         3.5164   55.5355   17.5790 H         1 UNK         0.0000 
     37 H37         5.1590   59.3101   16.3806 H         1 UNK         0.0000 
@<TRIPOS>BOND
     1    1    6 ar   
     2    1    2 ar   
     3    1   26 1    
     4    2    3 ar   
     5    2   27 1    
     6    3    4 ar   
     7    3   28 1    
     8    4    9 1    
     9    4    5 ar   
    10    5    6 ar   
    11    5    7 1    
    12    6   29 1    
    13    7    8 2    
    14    7   30 1    
    15    8    9 1    
    16    8   10 1    
    17   10   11 2    
    18   10   12 am   BACKBONE|DICT|INTERRES
    19   12   13 1    
    20   12   31 1    
    21   13   14 am   BACKBONE|DICT|INTERRES
    22   13   32 1    
    23   14   15 2    
    24   14   16 1    
    25   16   17 1    
    26   16   33 1    
    27   16   34 1    
    28   17   18 1    
    29   18   23 ar   
    30   18   19 ar   
    31   19   20 ar   
    32   19   35 1    
    33   20   21 ar   
    34   20   36 1    
    35   21   22 ar   
    36   21   25 1    
    37   22   23 ar   
    38   22   37 1    
    39   23   24 1    
@<TRIPOS>SUBSTRUCTURE
     1 UNK         1 GROUP             0       ****    0 ROOT    
