@<TRIPOS>MOLECULE
ZINC21522696_5150
75   78    1
SMALL
USER_CHARGES


@<TRIPOS>ATOM
      1 C1          4.5767   54.8910   25.3511 C.3       1 UNK         0.0000 
      2 C2          3.3572   54.1018   25.7825 C.2       1 UNK         0.0000 
      3 C3          2.9633   53.9156   27.1063 C.2       1 UNK         0.0000 
      4 S4          1.5639   52.8544   27.2461 S.3       1 UNK         0.0000 
      5 C5          1.5058   52.7037   25.5151 C.ar      1 UNK         0.0000 
      6 C6          2.4790   53.4454   24.8616 C.ar      1 UNK         0.0000 
      7 C7          2.2635   53.2568   23.4565 C.ar      1 UNK         0.0000 
      8 C8          1.1968   52.3509   23.3280 C.ar      1 UNK         0.0000 
      9 N9          0.7874   51.9851   24.6051 N.pl3     1 UNK         0.0000 
     10 C10        -0.1677   50.9353   24.8765 C.3       1 UNK         0.0000 
     11 C11        -1.1460   50.7263   23.6782 C.3       1 UNK         0.0000 
     12 N12        -0.4213   50.8875   22.3679 N.am      1 UNK         0.0000 
     13 C13         0.5723   51.8169   22.1281 C.2       1 UNK         0.0000 
     14 O14         0.9339   52.0919   20.9816 O.2       1 UNK         0.0000 
     15 C15        -1.0578   50.2963   21.1673 C.3       1 UNK         0.0000 
     16 C16        -0.2634   49.0966   20.6023 C.3       1 UNK         0.0000 
     17 C17        -0.9103   48.4234   19.3723 C.3       1 UNK         0.0000 
     18 C18         0.0487   47.3924   18.7469 C.3       1 UNK         0.0000 
     19 C19        -2.2712   47.7781   19.6950 C.3       1 UNK         0.0000 
     20 C20        -1.7358   49.2900   23.8887 C.3       1 UNK         0.0000 
     21 C21        -2.3063   51.7873   23.7954 C.2       1 UNK         0.0000 
     22 O22        -2.2060   52.8937   23.2588 O.2       1 UNK         0.0000 
     23 N23        -3.4066   51.4465   24.4961 N.am      1 UNK         0.0000 
     24 C24        -4.6274   52.2376   24.6622 C.3       1 UNK         0.0000 
     25 C25        -5.7844   51.2645   24.9961 C.3       1 UNK         0.0000 
     26 C26        -7.1919   51.8897   24.9804 C.3       1 UNK         0.0000 
     27 C27        -7.6463   52.5712   26.2854 C.3       1 UNK         0.0000 
     28 C28        -6.6021   53.4315   27.0221 C.3       1 UNK         0.0000 
     29 C29        -5.6229   54.2025   26.1203 C.3       1 UNK         0.0000 
     30 C30        -4.3957   53.3779   25.6864 C.3       1 UNK         0.0000 
     31 N31         2.9846   53.9014   22.4682 N.am      1 UNK         0.0000 
     32 C32         3.8717   53.2859   21.6596 C.2       1 UNK         0.0000 
     33 O33         4.1358   52.0832   21.6818 O.2       1 UNK         0.0000 
     34 C34         4.5876   54.1791   20.6539 C.3       1 UNK         0.0000 
     35 C35         3.5906   54.4741   28.3651 C.3       1 UNK         0.0000 
     36 H36         4.7139   54.9026   24.2716 H         1 UNK         0.0000 
     37 H37         5.4867   54.4664   25.7748 H         1 UNK         0.0000 
     38 H38         4.5309   55.9261   25.6817 H         1 UNK         0.0000 
     39 H39         0.3924   50.0246   25.1007 H         1 UNK         0.0000 
     40 H40        -0.7001   51.1861   25.7976 H         1 UNK         0.0000 
     41 H41        -2.0767   49.9902   21.3950 H         1 UNK         0.0000 
     42 H42        -1.1933   51.0470   20.3851 H         1 UNK         0.0000 
     43 H43         0.7339   49.4411   20.3241 H         1 UNK         0.0000 
     44 H44        -0.1175   48.3503   21.3832 H         1 UNK         0.0000 
     45 H45        -1.0829   49.1980   18.6231 H         1 UNK         0.0000 
     46 H46         0.2718   46.5797   19.4400 H         1 UNK         0.0000 
     47 H47        -0.3750   46.9521   17.8439 H         1 UNK         0.0000 
     48 H48         0.9950   47.8571   18.4649 H         1 UNK         0.0000 
     49 H49        -2.1789   47.0230   20.4759 H         1 UNK         0.0000 
     50 H50        -3.0005   48.5159   20.0299 H         1 UNK         0.0000 
     51 H51        -2.6934   47.2932   18.8151 H         1 UNK         0.0000 
     52 H52        -2.0611   49.1169   24.9168 H         1 UNK         0.0000 
     53 H53        -2.5912   49.0737   23.2457 H         1 UNK         0.0000 
     54 H54        -0.9821   48.5310   23.6770 H         1 UNK         0.0000 
     55 H55        -3.4357   50.5192   24.8937 H         1 UNK         0.0000 
     56 H56        -4.8478   52.6729   23.6828 H         1 UNK         0.0000 
     57 H57        -5.7844   50.4704   24.2463 H         1 UNK         0.0000 
     58 H58        -5.6059   50.7666   25.9501 H         1 UNK         0.0000 
     59 H59        -7.2608   52.6014   24.1570 H         1 UNK         0.0000 
     60 H60        -7.9205   51.1132   24.7416 H         1 UNK         0.0000 
     61 H61        -8.5139   53.1906   26.0557 H         1 UNK         0.0000 
     62 H62        -8.0142   51.8114   26.9745 H         1 UNK         0.0000 
     63 H63        -7.1320   54.1390   27.6616 H         1 UNK         0.0000 
     64 H64        -6.0335   52.8000   27.7065 H         1 UNK         0.0000 
     65 H65        -6.1450   54.5834   25.2430 H         1 UNK         0.0000 
     66 H66        -5.2677   55.0758   26.6706 H         1 UNK         0.0000 
     67 H67        -3.8788   52.9923   26.5667 H         1 UNK         0.0000 
     68 H68        -3.6958   54.0789   25.2327 H         1 UNK         0.0000 
     69 H69         2.8026   54.8813   22.3277 H         1 UNK         0.0000 
     70 H70         5.3779   54.7455   21.1477 H         1 UNK         0.0000 
     71 H71         5.0373   53.5737   19.8661 H         1 UNK         0.0000 
     72 H72         3.8965   54.8782   20.1841 H         1 UNK         0.0000 
     73 H73         4.2788   55.2952   28.1577 H         1 UNK         0.0000 
     74 H74         2.8376   54.8645   29.0515 H         1 UNK         0.0000 
     75 H75         4.1529   53.7109   28.9027 H         1 UNK         0.0000 
@<TRIPOS>BOND
     1    1    2 1    
     2    1   36 1    
     3    1   37 1    
     4    1   38 1    
     5    2    6 1    
     6    2    3 2    
     7    3    4 1    
     8    3   35 1    
     9    4    5 1    
    10    5    9 ar   
    11    5    6 ar   
    12    6    7 ar   
    13    7    8 ar   
    14    7   31 1    
    15    8   13 1    
    16    8    9 ar   
    17    9   10 1    
    18   10   11 1    
    19   10   39 1    
    20   10   40 1    
    21   11   12 1    
    22   11   20 1    
    23   11   21 1    
    24   12   13 am   BACKBONE|DICT|INTERRES
    25   12   15 1    
    26   13   14 2    
    27   15   16 1    
    28   15   41 1    
    29   15   42 1    
    30   16   17 1    
    31   16   43 1    
    32   16   44 1    
    33   17   18 1    
    34   17   19 1    
    35   17   45 1    
    36   18   46 1    
    37   18   47 1    
    38   18   48 1    
    39   19   49 1    
    40   19   50 1    
    41   19   51 1    
    42   20   52 1    
    43   20   53 1    
    44   20   54 1    
    45   21   22 2    
    46   21   23 am   BACKBONE|DICT|INTERRES
    47   23   24 1    
    48   23   55 1    
    49   24   30 1    
    50   24   25 1    
    51   24   56 1    
    52   25   26 1    
    53   25   57 1    
    54   25   58 1    
    55   26   27 1    
    56   26   59 1    
    57   26   60 1    
    58   27   28 1    
    59   27   61 1    
    60   27   62 1    
    61   28   29 1    
    62   28   63 1    
    63   28   64 1    
    64   29   30 1    
    65   29   65 1    
    66   29   66 1    
    67   30   67 1    
    68   30   68 1    
    69   31   32 am   BACKBONE|DICT|INTERRES
    70   31   69 1    
    71   32   33 2    
    72   32   34 1    
    73   34   70 1    
    74   34   71 1    
    75   34   72 1    
    76   35   73 1    
    77   35   74 1    
    78   35   75 1    
@<TRIPOS>SUBSTRUCTURE
     1 UNK         1 GROUP             0       ****    0 ROOT    
