ZINC03011520_5098
                    3D
 Schrodinger Suite 2024-2.
 52 55  0  0  1  0            999 V2000
    4.4529   52.8932   28.7347 C   0  0  0  0  0  0
    3.7651   54.1382   28.1600 C   0  0  0  0  0  0
    3.4373   53.9717   26.6806 C   0  0  0  0  0  0
    2.2248   53.4351   26.2269 C   0  0  0  0  0  0
    2.1680   53.3888   24.4920 S   0  0  0  0  0  0
    3.7766   54.0406   24.3567 C   0  0  0  0  0  0
    4.3090   54.3135   25.6173 C   0  0  0  0  0  0
    5.6441   54.8653   25.8129 C   0  0  0  0  0  0
    6.7044   55.2973   25.9641 N   0  0  0  0  0  0
    4.4137   54.2769   23.1373 N   0  0  0  0  0  0
    4.0593   53.8607   21.9028 C   0  0  0  0  0  0
    3.1299   53.0912   21.6533 O   0  0  0  0  0  0
    4.8789   54.4239   20.8497 C   0  0  0  0  0  0
    6.2014   54.8969   20.9665 C   0  0  0  0  0  0
    6.5949   55.2744   19.6981 C   0  0  0  0  0  0
    5.4689   55.1167   18.9050 N   0  0  0  0  0  0
    4.4903   54.5009   19.5908 N   0  0  0  0  0  0
    5.3728   55.3746   17.4531 C   0  0  2  0  0  0
    5.3954   54.4085   16.9500 H   0  0  0  0  0  0
    6.6301   56.1911   17.0417 C   0  0  0  0  0  0
    7.9408   55.7371   17.7310 C   0  0  1  0  0  0
    8.6976   56.4851   17.4905 H   0  0  0  0  0  0
    7.7723   55.7965   19.1893 N   0  0  0  0  0  0
    8.4921   54.4091   17.1850 C   0  0  0  0  0  0
    7.8195   53.1971   17.3832 C   0  0  0  0  0  0
    8.3431   52.0091   16.8781 C   0  0  0  0  0  0
    9.5444   52.0210   16.1755 C   0  0  0  0  0  0
   10.2219   53.2209   15.9669 C   0  0  0  0  0  0
    9.6945   54.4132   16.4667 C   0  0  0  0  0  0
   10.1915   50.5407   15.5631 Cl  0  0  0  0  0  0
    4.0551   56.0550   17.0093 C   0  0  0  0  0  0
    4.0600   56.2827   15.6951 F   0  0  0  0  0  0
    2.9762   55.3196   17.2770 F   0  0  0  0  0  0
    3.9045   57.2364   17.6069 F   0  0  0  0  0  0
    1.0532   52.9224   27.0359 C   0  0  0  0  0  0
    4.7015   53.0287   29.7861 H   0  0  0  0  0  0
    3.8081   52.0192   28.6560 H   0  0  0  0  0  0
    5.3792   52.6677   28.2031 H   0  0  0  0  0  0
    4.4067   55.0033   28.3289 H   0  0  0  0  0  0
    2.8615   54.3452   28.7376 H   0  0  0  0  0  0
    5.2815   54.7841   23.1900 H   0  0  0  0  0  0
    6.8210   54.9299   21.8523 H   0  0  0  0  0  0
    6.7446   56.1817   15.9570 H   0  0  0  0  0  0
    6.4674   57.2453   17.2783 H   0  0  0  0  0  0
    8.6458   55.6222   19.6658 H   0  0  0  0  0  0
    6.9037   53.1395   17.9500 H   0  0  0  0  0  0
    7.8194   51.0799   17.0423 H   0  0  0  0  0  0
   11.1536   53.2262   15.4193 H   0  0  0  0  0  0
   10.2323   55.3353   16.2973 H   0  0  0  0  0  0
    1.3484   52.0961   27.6846 H   0  0  0  0  0  0
    0.6361   53.7007   27.6777 H   0  0  0  0  0  0
    0.2342   52.5576   26.4135 H   0  0  0  0  0  0
  1  2  1  0  0  0
  1 36  1  0  0  0
  1 37  1  0  0  0
  1 38  1  0  0  0
  2  3  1  0  0  0
  2 39  1  0  0  0
  2 40  1  0  0  0
  3  7  1  0  0  0
  3  4  2  0  0  0
  4  5  1  0  0  0
  4 35  1  0  0  0
  5  6  1  0  0  0
  6  7  2  0  0  0
  6 10  1  0  0  0
  7  8  1  0  0  0
  8  9  3  0  0  0
 10 11  1  0  0  0
 10 41  1  0  0  0
 11 12  2  0  0  0
 11 13  1  0  0  0
 13 17  2  0  0  0
 13 14  1  0  0  0
 14 15  2  0  0  0
 14 42  1  0  0  0
 15 23  1  0  0  0
 15 16  1  0  0  0
 16 17  1  0  0  0
 16 18  1  0  0  0
 18 19  1  0  0  0
 18 20  1  0  0  0
 18 31  1  0  0  0
 20 21  1  0  0  0
 20 43  1  0  0  0
 20 44  1  0  0  0
 21 22  1  0  0  0
 21 23  1  0  0  0
 21 24  1  0  0  0
 23 45  1  0  0  0
 24 29  2  0  0  0
 24 25  1  0  0  0
 25 26  2  0  0  0
 25 46  1  0  0  0
 26 27  1  0  0  0
 26 47  1  0  0  0
 27 28  2  0  0  0
 27 30  1  0  0  0
 28 29  1  0  0  0
 28 48  1  0  0  0
 29 49  1  0  0  0
 31 32  1  0  0  0
 31 33  1  0  0  0
 31 34  1  0  0  0
 35 50  1  0  0  0
 35 51  1  0  0  0
 35 52  1  0  0  0
M  END
> <i_i_glide_confnum>
40

> <i_i_glide_lignum>
5099

> <i_i_glide_posenum>
300

> <i_i_glide_rotatable_bonds>
7

> <i_m_Source_File_Index>
4577

> <b_m_subgroup_collapsed>
0

> <r_i_docking_score>
-5.77248

> <r_i_glide_ecoul>
-1.79118

> <r_i_glide_eff_state_penalty>
0

> <r_i_glide_einternal>
3.22815

> <r_i_glide_emodel>
-56.9658

> <r_i_glide_energy>
-42.5848

> <r_i_glide_erotb>
0.334057

> <r_i_glide_esite>
0

> <r_i_glide_evdw>
-40.7936

> <r_i_glide_gscore>
-5.77248

> <r_i_glide_hbond>
-0.32

> <r_i_glide_ligand_efficiency>
-0.174924

> <r_i_glide_ligand_efficiency_ln>
-1.28377

> <r_i_glide_ligand_efficiency_sa>
-0.561073

> <r_i_glide_lipo>
-2.54688

> <r_i_glide_metal>
0

> <r_i_glide_rewards>
-0.931299

> <s_i_glide_gridfile>
wee1_glide-grid

> <s_m_Source_File>
wee1_decoys_glide_SP.sdf

> <s_m_Source_Path>
/Users/zhangxujun/Desktop

> <s_m_entry_id>
4852

> <s_m_entry_name>
wee1_decoys_glide_SP.4577

> <s_m_subgroup_title>
wee1_decoys_glide_SP

> <s_m_subgroupid>
wee1_decoys_glide_SP


$$$$
