@<TRIPOS>MOLECULE
ZINC22645317_4575
42   44    1
SMALL
USER_CHARGES


@<TRIPOS>ATOM
      1 C1          6.3094   54.4747   24.1259 C.ar      1 UNK         0.0000 
      2 C2          5.1962   54.2885   23.2885 C.ar      1 UNK         0.0000 
      3 C3          3.9183   54.0966   23.8605 C.ar      1 UNK         0.0000 
      4 C4          3.7489   54.0439   25.2495 C.ar      1 UNK         0.0000 
      5 C5          4.8752   54.2203   26.0441 C.ar      1 UNK         0.0000 
      6 C6          6.1095   54.4354   25.4997 C.ar      1 UNK         0.0000 
      7 O7          7.0368   54.4967   26.4884 O.3       1 UNK         0.0000 
      8 C8          6.3077   54.4988   27.6847 C.3       1 UNK         0.0000 
      9 O9          4.9872   54.1359   27.3943 O.3       1 UNK         0.0000 
     10 Cl10        2.2029   53.6968   25.9361 Cl        1 UNK         0.0000 
     11 C11         5.4167   54.2474   21.8314 C.2       1 UNK         0.0000 
     12 C12         4.5499   53.7611   20.9180 C.2       1 UNK         0.0000 
     13 C13         4.8580   53.7176   19.5097 C.2       1 UNK         0.0000 
     14 O14         5.9037   54.1733   19.0382 O.2       1 UNK         0.0000 
     15 N15         3.9038   53.0862   18.7935 N.am      1 UNK         0.0000 
     16 N16         4.0532   52.8967   17.4143 N.pl3     1 UNK         0.0000 
     17 C17         3.8355   53.8536   16.4650 C.2       1 UNK         0.0000 
     18 S18         4.0551   53.3992   14.8760 S.2       1 UNK         0.0000 
     19 N19         3.4647   55.0971   16.9062 N.pl3     1 UNK         0.0000 
     20 C20         3.2016   56.2630   16.0542 C.3       1 UNK         0.0000 
     21 C21         1.7186   56.6442   16.0503 C.3       1 UNK         0.0000 
     22 C22         1.6998   58.1178   15.6389 C.3       1 UNK         0.0000 
     23 C23         3.0484   58.7027   16.0893 C.3       1 UNK         0.0000 
     24 C24         3.8947   57.5226   16.5857 C.3       1 UNK         0.0000 
     25 H25         7.3018   54.6058   23.7172 H         1 UNK         0.0000 
     26 H26         3.0496   53.9528   23.2358 H         1 UNK         0.0000 
     27 H27         6.3042   55.5143   28.0817 H         1 UNK         0.0000 
     28 H28         6.7501   53.8197   28.4154 H         1 UNK         0.0000 
     29 H29         6.3658   54.6461   21.4951 H         1 UNK         0.0000 
     30 H30         3.5902   53.3619   21.2143 H         1 UNK         0.0000 
     31 H31         2.9948   52.8183   19.1407 H         1 UNK         0.0000 
     32 H32         4.5933   52.0618   17.2106 H         1 UNK         0.0000 
     33 H33         3.3762   55.2370   17.9020 H         1 UNK         0.0000 
     34 H34         3.5163   56.1393   15.0163 H         1 UNK         0.0000 
     35 H35         1.1320   56.0030   15.3908 H         1 UNK         0.0000 
     36 H36         1.2890   56.5282   17.0477 H         1 UNK         0.0000 
     37 H37         1.6020   58.2022   14.5554 H         1 UNK         0.0000 
     38 H38         0.8560   58.6486   16.0813 H         1 UNK         0.0000 
     39 H39         3.5420   59.2161   15.2625 H         1 UNK         0.0000 
     40 H40         2.9169   59.4423   16.8810 H         1 UNK         0.0000 
     41 H41         3.9079   57.5207   17.6778 H         1 UNK         0.0000 
     42 H42         4.9392   57.5781   16.2758 H         1 UNK         0.0000 
@<TRIPOS>BOND
     1    1    6 ar   
     2    1    2 ar   
     3    1   25 1    
     4    2    3 ar   
     5    2   11 1    
     6    3    4 ar   
     7    3   26 1    
     8    4    5 ar   
     9    4   10 1    
    10    5    9 1    
    11    5    6 ar   
    12    6    7 1    
    13    7    8 1    
    14    8    9 1    
    15    8   27 1    
    16    8   28 1    
    17   11   12 2    
    18   11   29 1    
    19   12   13 1    
    20   12   30 1    
    21   13   14 2    
    22   13   15 am   BACKBONE|DICT|INTERRES
    23   15   16 1    
    24   15   31 1    
    25   16   17 1    
    26   16   32 1    
    27   17   18 2    
    28   17   19 1    
    29   19   20 1    
    30   19   33 1    
    31   20   24 1    
    32   20   21 1    
    33   20   34 1    
    34   21   22 1    
    35   21   35 1    
    36   21   36 1    
    37   22   23 1    
    38   22   37 1    
    39   22   38 1    
    40   23   24 1    
    41   23   39 1    
    42   23   40 1    
    43   24   41 1    
    44   24   42 1    
@<TRIPOS>SUBSTRUCTURE
     1 UNK         1 GROUP             0       ****    0 ROOT    
