@<TRIPOS>MOLECULE
ZINC39637720_3064
66   69    1
SMALL
USER_CHARGES


@<TRIPOS>ATOM
      1 C1         -7.2259   51.8024   25.5246 C.3       1 UNK         0.0000 
      2 O2         -6.3081   51.5573   26.5865 O.3       1 UNK         0.0000 
      3 C3         -4.9482   51.6769   26.3610 C.ar      1 UNK         0.0000 
      4 C4         -4.4129   52.1589   25.1589 C.ar      1 UNK         0.0000 
      5 C5         -3.0376   52.2772   24.9911 C.ar      1 UNK         0.0000 
      6 C6         -2.1417   51.9160   26.0089 C.ar      1 UNK         0.0000 
      7 C7         -2.6814   51.3860   27.1918 C.ar      1 UNK         0.0000 
      8 C8         -4.0695   51.2992   27.3903 C.ar      1 UNK         0.0000 
      9 C9         -4.6224   50.8428   28.7443 C.3       1 UNK         0.0000 
     10 F10        -5.5686   51.6791   29.1761 F         1 UNK         0.0000 
     11 F11        -5.1446   49.6222   28.6341 F         1 UNK         0.0000 
     12 F12        -3.6785   50.8239   29.6814 F         1 UNK         0.0000 
     13 C13        -0.6541   52.1257   25.7599 C.2       1 UNK         0.0000 
     14 O14        -0.2704   52.1214   24.5855 O.2       1 UNK         0.0000 
     15 N15         0.2055   52.4902   26.7580 N.am      1 UNK         0.0000 
     16 C16         1.5546   52.9547   26.4339 C.3       1 UNK         0.0000 
     17 C17         2.3560   52.7206   27.7260 C.3       1 UNK         0.0000 
     18 H18         2.7064   51.6918   27.6801 H         1 UNK         0.0000 
     19 C19         1.3259   52.9184   28.8739 C.3       1 UNK         0.0000 
     20 C20         0.0176   52.4001   28.2077 C.3       1 UNK         0.0000 
     21 C21         1.1903   54.3912   29.3640 C.3       1 UNK         0.0000 
     22 C22         0.0940   54.5533   30.4453 C.3       1 UNK         0.0000 
     23 N23         0.3051   53.5578   31.6120 N.4       1 UNK         0.0000 
     24 C24         0.5996   52.1075   31.1842 C.3       1 UNK         0.0000 
     25 C25         1.7288   52.1269   30.1338 C.3       1 UNK         0.0000 
     26 C26         3.6370   53.6038   27.7542 C.2       1 UNK         0.0000 
     27 O27         4.3320   53.6013   28.7696 O.2       1 UNK         0.0000 
     28 N28         3.9994   54.2631   26.6378 N.am      1 UNK         0.0000 
     29 C29         5.2489   54.9902   26.4364 C.3       1 UNK         0.0000 
     30 C30         6.1988   54.3185   25.4216 C.3       1 UNK         0.0000 
     31 C31         5.7489   54.3378   23.9576 C.ar      1 UNK         0.0000 
     32 C32         4.5370   53.7676   23.5462 C.ar      1 UNK         0.0000 
     33 C33         4.1591   53.7884   22.2025 C.ar      1 UNK         0.0000 
     34 C34         4.9930   54.3776   21.2532 C.ar      1 UNK         0.0000 
     35 C35         6.2005   54.9473   21.6500 C.ar      1 UNK         0.0000 
     36 C36         6.5753   54.9209   22.9924 C.ar      1 UNK         0.0000 
     37 F37         7.0046   55.5384   20.7378 F         1 UNK         0.0000 
     38 H38        -8.2399   51.6030   25.8742 H         1 UNK         0.0000 
     39 H39        -7.1913   52.8426   25.1955 H         1 UNK         0.0000 
     40 H40        -7.0389   51.1494   24.6703 H         1 UNK         0.0000 
     41 H41        -5.0503   52.4602   24.3415 H         1 UNK         0.0000 
     42 H42        -2.6754   52.6747   24.0524 H         1 UNK         0.0000 
     43 H43        -2.0407   51.0127   27.9747 H         1 UNK         0.0000 
     44 H44         1.4640   54.0259   26.2398 H         1 UNK         0.0000 
     45 H45         2.0112   52.4329   25.5902 H         1 UNK         0.0000 
     46 H46        -0.0209   51.3290   28.4147 H         1 UNK         0.0000 
     47 H47        -0.8949   52.8391   28.6028 H         1 UNK         0.0000 
     48 H48         2.1364   54.7860   29.7369 H         1 UNK         0.0000 
     49 H49         0.9309   55.0300   28.5178 H         1 UNK         0.0000 
     50 H50         0.0955   55.5530   30.8799 H         1 UNK         0.0000 
     51 H51        -0.8957   54.3392   30.0682 H         1 UNK         0.0000 
     52 H52         1.0761   53.8824   32.1762 H         1 UNK         0.0000 
     53 H53         0.8766   51.5945   32.1068 H         1 UNK         0.0000 
     54 H54        -0.3461   51.7010   30.8203 H         1 UNK         0.0000 
     55 H55         1.8987   51.1043   29.8062 H         1 UNK         0.0000 
     56 H56         2.6784   52.4666   30.5503 H         1 UNK         0.0000 
     57 H57         3.3683   54.2556   25.8515 H         1 UNK         0.0000 
     58 H58         5.7744   55.2421   27.3615 H         1 UNK         0.0000 
     59 H59         4.9549   55.9522   26.0201 H         1 UNK         0.0000 
     60 H60         6.4003   53.2958   25.7342 H         1 UNK         0.0000 
     61 H61         7.1682   54.8117   25.4986 H         1 UNK         0.0000 
     62 H62         3.8824   53.2928   24.2583 H         1 UNK         0.0000 
     63 H63         3.2220   53.3473   21.8945 H         1 UNK         0.0000 
     64 H64         4.7011   54.3984   20.2129 H         1 UNK         0.0000 
     65 H65         7.5044   55.3819   23.2797 H         1 UNK         0.0000 
     66 H66        -0.5003   53.5295   32.2295 H         1 UNK         0.0000 
@<TRIPOS>BOND
     1    1    2 1    
     2    1   38 1    
     3    1   39 1    
     4    1   40 1    
     5    2    3 1    
     6    3    8 ar   
     7    3    4 ar   
     8    4    5 ar   
     9    4   41 1    
    10    5    6 ar   
    11    5   42 1    
    12    6    7 ar   
    13    6   13 1    
    14    7    8 ar   
    15    7   43 1    
    16    8    9 1    
    17    9   10 1    
    18    9   11 1    
    19    9   12 1    
    20   13   14 2    
    21   13   15 am   BACKBONE|DICT|INTERRES
    22   15   20 1    
    23   15   16 1    
    24   16   17 1    
    25   16   44 1    
    26   16   45 1    
    27   17   18 1    
    28   17   19 1    
    29   17   26 1    
    30   19   25 1    
    31   19   20 1    
    32   19   21 1    
    33   20   46 1    
    34   20   47 1    
    35   21   22 1    
    36   21   48 1    
    37   21   49 1    
    38   22   23 1    
    39   22   50 1    
    40   22   51 1    
    41   23   24 1    
    42   23   52 1    
    43   23   66 1    
    44   24   25 1    
    45   24   53 1    
    46   24   54 1    
    47   25   55 1    
    48   25   56 1    
    49   26   27 2    
    50   26   28 am   BACKBONE|DICT|INTERRES
    51   28   29 1    
    52   28   57 1    
    53   29   30 1    
    54   29   58 1    
    55   29   59 1    
    56   30   31 1    
    57   30   60 1    
    58   30   61 1    
    59   31   36 ar   
    60   31   32 ar   
    61   32   33 ar   
    62   32   62 1    
    63   33   34 ar   
    64   33   63 1    
    65   34   35 ar   
    66   34   64 1    
    67   35   36 ar   
    68   35   37 1    
    69   36   65 1    
@<TRIPOS>SUBSTRUCTURE
     1 UNK         1 GROUP             0       ****    0 ROOT    
