ZINC38547663_2925
                    3D
 Schrodinger Suite 2024-2.
 54 57  0  0  1  0            999 V2000
   -5.1616   52.8761   24.5215 C   0  0  0  0  0  0
   -4.7084   51.8779   25.5665 C   0  0  0  0  0  0
   -5.5827   50.8944   26.0459 C   0  0  0  0  0  0
   -5.1288   49.9710   26.9918 C   0  0  0  0  0  0
   -3.8563   50.0503   27.4263 N   0  3  0  0  0  0
   -2.9798   50.9773   26.9968 C   0  0  0  0  0  0
   -3.3946   51.9194   26.0471 C   0  0  0  0  0  0
   -1.6726   50.8965   27.5274 N   0  0  0  0  0  0
   -0.5224   51.7179   27.1273 C   0  0  1  0  0  0
   -0.9508   52.7078   26.9694 H   0  0  0  0  0  0
    0.4078   51.9379   28.3434 C   0  0  0  0  0  0
   -0.1700   52.2005   29.5988 C   0  0  0  0  0  0
    0.6126   52.4766   30.7174 C   0  0  0  0  0  0
    1.9970   52.5148   30.5944 C   0  0  0  0  0  0
    2.5936   52.2905   29.3559 C   0  0  0  0  0  0
    1.8077   51.9688   28.2464 C   0  0  0  0  0  0
    4.4786   52.4841   29.1794 Br  0  0  0  0  0  0
    0.1189   51.2736   25.7857 C   0  0  0  0  0  0
    0.9751   52.1105   25.0066 C   0  0  0  0  0  0
    1.3817   51.5361   23.7939 C   0  0  0  0  0  0
    0.7637   49.9360   23.6191 S   0  0  0  0  0  0
   -0.1137   50.0519   25.1106 C   0  0  0  0  0  0
   -0.9150   48.9711   25.4900 N   0  0  0  0  0  0
   -1.8934   48.4536   24.7069 C   0  0  0  0  0  0
   -2.1527   48.8352   23.5627 O   0  0  0  0  0  0
   -2.6847   47.4125   25.3189 C   0  0  0  0  0  0
   -2.4298   46.4995   26.3395 C   0  0  0  0  0  0
   -3.5592   45.6965   26.4787 C   0  0  0  0  0  0
   -4.4398   46.1012   25.4896 C   0  0  0  0  0  0
   -3.8986   47.1206   24.7719 O   0  0  0  0  0  0
    2.2413   52.1164   22.6909 C   0  0  0  0  0  0
    1.4373   53.4999   25.4087 C   0  0  0  0  0  0
   -6.1204   52.6048   24.0821 H   0  0  0  0  0  0
   -5.2371   53.8731   24.9538 H   0  0  0  0  0  0
   -4.4305   52.9187   23.7135 H   0  0  0  0  0  0
   -6.5979   50.8362   25.6801 H   0  0  0  0  0  0
   -5.7277   49.1725   27.4075 H   0  0  0  0  0  0
   -2.7088   52.6606   25.6668 H   0  0  0  0  0  0
   -1.4687   50.0584   28.0823 H   0  0  0  0  0  0
   -1.2427   52.1926   29.7224 H   0  0  0  0  0  0
    0.1419   52.6538   31.6759 H   0  0  0  0  0  0
    2.6048   52.7269   31.4589 H   0  0  0  0  0  0
    2.3050   51.7812   27.3082 H   0  0  0  0  0  0
   -0.9090   48.6950   26.4661 H   0  0  0  0  0  0
   -1.5385   46.4537   26.9485 H   0  0  0  0  0  0
   -3.6992   44.9101   27.2103 H   0  0  0  0  0  0
   -5.4288   45.7822   25.1928 H   0  0  0  0  0  0
    2.6291   53.1058   22.9303 H   0  0  0  0  0  0
    3.1002   51.4798   22.4735 H   0  0  0  0  0  0
    1.6816   52.2162   21.7612 H   0  0  0  0  0  0
    1.1088   54.2564   24.6978 H   0  0  0  0  0  0
    1.1102   53.8116   26.3990 H   0  0  0  0  0  0
    2.5264   53.5616   25.4004 H   0  0  0  0  0  0
   -3.5109   49.3539   28.0792 H   0  0  0  0  0  0
  1  2  1  0  0  0
  1 33  1  0  0  0
  1 34  1  0  0  0
  1 35  1  0  0  0
  2  7  2  0  0  0
  2  3  1  0  0  0
  3  4  2  0  0  0
  3 36  1  0  0  0
  4  5  1  0  0  0
  4 37  1  0  0  0
  5  6  2  0  0  0
  5 54  1  0  0  0
  6  7  1  0  0  0
  6  8  1  0  0  0
  7 38  1  0  0  0
  8  9  1  0  0  0
  8 39  1  0  0  0
  9 10  1  0  0  0
  9 11  1  0  0  0
  9 18  1  0  0  0
 11 16  2  0  0  0
 11 12  1  0  0  0
 12 13  2  0  0  0
 12 40  1  0  0  0
 13 14  1  0  0  0
 13 41  1  0  0  0
 14 15  2  0  0  0
 14 42  1  0  0  0
 15 16  1  0  0  0
 15 17  1  0  0  0
 16 43  1  0  0  0
 18 22  2  0  0  0
 18 19  1  0  0  0
 19 20  2  0  0  0
 19 32  1  0  0  0
 20 21  1  0  0  0
 20 31  1  0  0  0
 21 22  1  0  0  0
 22 23  1  0  0  0
 23 24  1  0  0  0
 23 44  1  0  0  0
 24 25  2  0  0  0
 24 26  1  0  0  0
 26 30  1  0  0  0
 26 27  2  0  0  0
 27 28  1  0  0  0
 27 45  1  0  0  0
 28 29  2  0  0  0
 28 46  1  0  0  0
 29 30  1  0  0  0
 29 47  1  0  0  0
 31 48  1  0  0  0
 31 49  1  0  0  0
 31 50  1  0  0  0
 32 51  1  0  0  0
 32 52  1  0  0  0
 32 53  1  0  0  0
M  CHG  1   5   1
M  END
> <i_i_glide_confnum>
96

> <i_i_glide_lignum>
2926

> <i_i_glide_posenum>
260

> <i_i_glide_rotatable_bonds>
7

> <i_m_Source_File_Index>
282

> <b_m_subgroup_collapsed>
0

> <r_i_docking_score>
-4.03491

> <r_i_glide_ecoul>
-6.50803

> <r_i_glide_eff_state_penalty>
0

> <r_i_glide_einternal>
14.7593

> <r_i_glide_emodel>
-44.6868

> <r_i_glide_energy>
-41.3881

> <r_i_glide_erotb>
0.577096

> <r_i_glide_esite>
-0.332909

> <r_i_glide_evdw>
-34.8801

> <r_i_glide_gscore>
-4.03491

> <r_i_glide_hbond>
-0.420784

> <r_i_glide_ligand_efficiency>
-0.130158

> <r_i_glide_ligand_efficiency_ln>
-0.909995

> <r_i_glide_ligand_efficiency_sa>
-0.408877

> <r_i_glide_lipo>
-1.07894

> <r_i_glide_metal>
0

> <r_i_glide_rewards>
-0.0591631

> <s_i_glide_gridfile>
wee1_glide-grid

> <s_m_Source_File>
wee1_decoys_glide_SP.sdf

> <s_m_Source_Path>
/Users/zhangxujun/Desktop

> <s_m_entry_id>
557

> <s_m_entry_name>
wee1_decoys_glide_SP.282

> <s_m_subgroup_title>
wee1_decoys_glide_SP

> <s_m_subgroupid>
wee1_decoys_glide_SP


$$$$
