@<TRIPOS>MOLECULE
ZINC20179257_4828
68   72    1
SMALL
USER_CHARGES


@<TRIPOS>ATOM
      1 C1          7.1057   58.6640   18.3701 C.3       1 UNK         0.0000 
      2 C2          7.0337   58.5515   16.8382 C.3       1 UNK         0.0000 
      3 N3          5.6166   58.8966   16.3321 N.4       1 UNK         0.0000 
      4 C4          5.5336   59.1401   14.8148 C.3       1 UNK         0.0000 
      5 C5          4.0441   59.0379   14.4781 C.3       1 UNK         0.0000 
      6 C6          3.3580   58.4695   15.7203 C.3       1 UNK         0.0000 
      7 C7          4.4546   57.9255   16.6480 C.3       1 UNK         0.0000 
      8 H8          4.2110   58.1603   17.6817 H         1 UNK         0.0000 
      9 C9          4.7116   56.3952   16.5052 C.3       1 UNK         0.0000 
     10 N10         4.9278   55.7424   17.7983 N.am      1 UNK         0.0000 
     11 C11         6.1129   55.3634   18.3065 C.2       1 UNK         0.0000 
     12 O12         7.1687   55.3905   17.6743 O.2       1 UNK         0.0000 
     13 C13         6.0940   55.0434   19.7758 C.ar      1 UNK         0.0000 
     14 C14         7.1214   55.5182   20.5991 C.ar      1 UNK         0.0000 
     15 C15         7.0782   55.2967   21.9727 C.ar      1 UNK         0.0000 
     16 C16         6.0228   54.5747   22.5368 C.ar      1 UNK         0.0000 
     17 C17         5.0188   54.0650   21.7056 C.ar      1 UNK         0.0000 
     18 C18         5.0487   54.3004   20.3363 C.ar      1 UNK         0.0000 
     19 C19         5.9694   54.3994   24.0011 C.2       1 UNK         0.0000 
     20 C20         4.8464   54.4133   24.7597 C.2       1 UNK         0.0000 
     21 C21         4.9089   54.1283   26.1979 C.2       1 UNK         0.0000 
     22 O22         5.9295   54.3324   26.8661 O.2       1 UNK         0.0000 
     23 N23         3.7410   53.5978   26.6881 N.am      1 UNK         0.0000 
     24 C24         2.5955   53.2972   25.8862 C.ar      1 UNK         0.0000 
     25 C25         1.5047   52.4983   26.2826 C.ar      1 UNK         0.0000 
     26 C26         0.4396   52.2693   25.4073 C.ar      1 UNK         0.0000 
     27 C27         0.4398   52.8379   24.1319 C.ar      1 UNK         0.0000 
     28 C28         1.5070   53.6376   23.7245 C.ar      1 UNK         0.0000 
     29 C29         2.5679   53.8489   24.6014 C.ar      1 UNK         0.0000 
     30 O30         3.6219   54.6274   24.1897 O.3       1 UNK         0.0000 
     31 C31         3.7442   53.1482   28.1004 C.3       1 UNK         0.0000 
     32 C32         2.7000   53.8157   28.9859 C.ar      1 UNK         0.0000 
     33 C33         2.6047   55.2076   29.0346 C.ar      1 UNK         0.0000 
     34 C34         1.6044   55.8227   29.7827 C.ar      1 UNK         0.0000 
     35 C35         0.7046   55.0350   30.4987 C.ar      1 UNK         0.0000 
     36 C36         0.8068   53.6469   30.4849 C.ar      1 UNK         0.0000 
     37 C37         1.8102   53.0403   29.7358 C.ar      1 UNK         0.0000 
     38 F38         1.9093   51.6966   29.7280 F         1 UNK         0.0000 
     39 H39         8.0705   58.3076   18.7304 H         1 UNK         0.0000 
     40 H40         6.9981   59.6966   18.6995 H         1 UNK         0.0000 
     41 H41         6.3323   58.0838   18.8701 H         1 UNK         0.0000 
     42 H42         7.2855   57.5675   16.4478 H         1 UNK         0.0000 
     43 H43         7.6891   59.2871   16.3690 H         1 UNK         0.0000 
     44 H44         6.1217   58.3511   14.3383 H         1 UNK         0.0000 
     45 H45         5.9912   60.1114   14.6089 H         1 UNK         0.0000 
     46 H46         3.8962   58.3870   13.6150 H         1 UNK         0.0000 
     47 H47         3.6361   60.0183   14.2218 H         1 UNK         0.0000 
     48 H48         2.5674   57.7496   15.5078 H         1 UNK         0.0000 
     49 H49         2.8414   59.2788   16.2443 H         1 UNK         0.0000 
     50 H50         5.5241   56.1977   15.8042 H         1 UNK         0.0000 
     51 H51         3.8405   55.9078   16.0655 H         1 UNK         0.0000 
     52 H52         4.1055   55.5552   18.3536 H         1 UNK         0.0000 
     53 H53         7.9494   56.0778   20.1851 H         1 UNK         0.0000 
     54 H54         7.8671   55.6974   22.5918 H         1 UNK         0.0000 
     55 H55         4.2032   53.4868   22.1119 H         1 UNK         0.0000 
     56 H56         4.2529   53.9040   19.7207 H         1 UNK         0.0000 
     57 H57         6.9265   54.2172   24.4720 H         1 UNK         0.0000 
     58 H58         1.4733   52.0267   27.2512 H         1 UNK         0.0000 
     59 H59        -0.3836   51.6435   25.7211 H         1 UNK         0.0000 
     60 H60        -0.3850   52.6552   23.4585 H         1 UNK         0.0000 
     61 H61         1.5158   54.0824   22.7395 H         1 UNK         0.0000 
     62 H62         4.7119   53.2899   28.5871 H         1 UNK         0.0000 
     63 H63         3.5877   52.0704   28.1007 H         1 UNK         0.0000 
     64 H64         3.3071   55.8039   28.4822 H         1 UNK         0.0000 
     65 H65         1.5281   56.9000   29.8099 H         1 UNK         0.0000 
     66 H66        -0.0802   55.4981   31.0696 H         1 UNK         0.0000 
     67 H67         0.1145   53.0409   31.0534 H         1 UNK         0.0000 
     68 H68         5.3967   59.7925   16.7680 H         1 UNK         0.0000 
@<TRIPOS>BOND
     1    1    2 1    
     2    1   39 1    
     3    1   40 1    
     4    1   41 1    
     5    2    3 1    
     6    2   42 1    
     7    2   43 1    
     8    3    7 1    
     9    3    4 1    
    10    3   68 1    
    11    4    5 1    
    12    4   44 1    
    13    4   45 1    
    14    5    6 1    
    15    5   46 1    
    16    5   47 1    
    17    6    7 1    
    18    6   48 1    
    19    6   49 1    
    20    7    8 1    
    21    7    9 1    
    22    9   10 1    
    23    9   50 1    
    24    9   51 1    
    25   10   11 am   BACKBONE|DICT|INTERRES
    26   10   52 1    
    27   11   12 2    
    28   11   13 1    
    29   13   18 ar   
    30   13   14 ar   
    31   14   15 ar   
    32   14   53 1    
    33   15   16 ar   
    34   15   54 1    
    35   16   17 ar   
    36   16   19 1    
    37   17   18 ar   
    38   17   55 1    
    39   18   56 1    
    40   19   20 2    
    41   19   57 1    
    42   20   30 1    
    43   20   21 1    
    44   21   22 2    
    45   21   23 am   BACKBONE|DICT|INTERRES
    46   23   24 1    
    47   23   31 1    
    48   24   29 ar   
    49   24   25 ar   
    50   25   26 ar   
    51   25   58 1    
    52   26   27 ar   
    53   26   59 1    
    54   27   28 ar   
    55   27   60 1    
    56   28   29 ar   
    57   28   61 1    
    58   29   30 1    
    59   31   32 1    
    60   31   62 1    
    61   31   63 1    
    62   32   37 ar   
    63   32   33 ar   
    64   33   34 ar   
    65   33   64 1    
    66   34   35 ar   
    67   34   65 1    
    68   35   36 ar   
    69   35   66 1    
    70   36   37 ar   
    71   36   67 1    
    72   37   38 1    
@<TRIPOS>SUBSTRUCTURE
     1 UNK         1 GROUP             0       ****    0 ROOT    
