ZINC35361144_82
                    3D
 Schrodinger Suite 2024-2.
 72 76  0  0  1  0            999 V2000
   -4.8822   47.4540   30.1917 C   0  0  0  0  0  0
   -5.6255   47.8450   28.9119 C   0  0  0  0  0  0
   -4.7078   47.8227   27.8278 O   0  0  0  0  0  0
   -5.0764   48.2694   26.6101 C   0  0  0  0  0  0
   -6.1768   48.7509   26.3322 O   0  0  0  0  0  0
   -3.9595   48.1712   25.5492 C   0  0  2  0  0  0
   -3.2858   49.4492   25.0443 C   0  0  1  0  0  0
   -4.2426   48.7461   24.2892 O   0  0  0  0  0  0
   -3.7003   50.8335   25.5943 C   0  0  0  0  0  0
   -2.6854   51.8418   25.0369 C   0  0  0  0  0  0
   -1.9806   51.0845   23.9023 C   0  0  2  0  0  0
   -2.7109   51.0789   23.0880 H   0  0  0  0  0  0
   -1.8726   49.6149   24.3893 C   0  0  2  0  0  0
   -1.6234   48.7936   23.0998 C   0  0  0  0  0  0
   -0.3024   49.1744   22.4014 C   0  0  0  0  0  0
   -0.0167   50.7148   22.2322 C   0  0  1  0  0  0
   -0.6252   50.9590   21.3598 H   0  0  0  0  0  0
   -0.6875   51.6892   23.2771 C   0  0  2  0  0  0
   -1.0282   52.5691   22.7245 H   0  0  0  0  0  0
    0.3704   52.2127   24.2795 C   0  0  0  0  0  0
    1.4367   53.0748   23.5912 C   0  0  0  0  0  0
    1.7873   52.6014   22.1596 C   0  0  2  0  0  0
    1.0761   53.1435   21.5319 H   0  0  0  0  0  0
    1.4676   51.0982   21.8151 C   0  0  2  0  0  0
    1.6732   50.9569   20.2752 C   0  0  0  0  0  0
    3.1040   51.3342   19.8132 C   0  0  0  0  0  0
    3.4336   52.7984   20.1990 C   0  0  1  0  0  0
    2.7631   53.4542   19.6465 H   0  0  0  0  0  0
    3.1838   53.0826   21.6936 C   0  0  0  0  0  0
    4.7840   53.1665   19.9169 O   0  0  0  0  0  0
    5.2337   53.6452   18.7272 C   0  0  0  0  0  0
    6.3927   54.0201   18.5666 O   0  0  0  0  0  0
    4.2354   53.7163   17.5700 C   0  0  0  0  0  0
    2.4679   50.1586   22.5436 C   0  0  0  0  0  0
   -0.7755   49.3685   25.4693 C   0  0  0  0  0  0
   -3.1892   46.8419   25.4580 C   0  0  0  0  0  0
   -3.2963   46.0973   24.4822 O   0  0  0  0  0  0
   -2.4161   46.4968   26.4818 N   0  0  0  0  0  0
   -5.5610   47.4028   31.0428 H   0  0  0  0  0  0
   -4.3962   46.4847   30.0829 H   0  0  0  0  0  0
   -4.1001   48.1793   30.4273 H   0  0  0  0  0  0
   -6.0572   48.8419   29.0263 H   0  0  0  0  0  0
   -6.4438   47.1472   28.7222 H   0  0  0  0  0  0
   -3.6749   50.8437   26.6865 H   0  0  0  0  0  0
   -4.7151   51.0865   25.2798 H   0  0  0  0  0  0
   -1.9866   52.0839   25.8370 H   0  0  0  0  0  0
   -3.1253   52.7869   24.7098 H   0  0  0  0  0  0
   -2.4466   48.9285   22.3943 H   0  0  0  0  0  0
   -1.6067   47.7285   23.3222 H   0  0  0  0  0  0
   -0.1917   48.6572   21.4477 H   0  0  0  0  0  0
    0.4548   48.7269   23.0390 H   0  0  0  0  0  0
    0.8173   51.4259   24.8769 H   0  0  0  0  0  0
   -0.1111   52.8562   25.0172 H   0  0  0  0  0  0
    2.3225   52.9414   24.2158 H   0  0  0  0  0  0
    1.2128   54.1416   23.6103 H   0  0  0  0  0  0
    0.9406   51.5559   19.7338 H   0  0  0  0  0  0
    1.4715   49.9276   19.9733 H   0  0  0  0  0  0
    3.1419   51.2064   18.7311 H   0  0  0  0  0  0
    3.8272   50.6460   20.2502 H   0  0  0  0  0  0
    3.9556   52.6469   22.3303 H   0  0  0  0  0  0
    3.2179   54.1635   21.8427 H   0  0  0  0  0  0
    3.8884   52.7204   17.3038 H   0  0  0  0  0  0
    4.7178   54.1467   16.6953 H   0  0  0  0  0  0
    3.3865   54.3462   17.8275 H   0  0  0  0  0  0
    2.2541   50.0774   23.6090 H   0  0  0  0  0  0
    2.4625   49.1479   22.1310 H   0  0  0  0  0  0
    3.4946   50.4961   22.4765 H   0  0  0  0  0  0
   -0.8590   50.0601   26.3100 H   0  0  0  0  0  0
   -0.8272   48.3694   25.8898 H   0  0  0  0  0  0
    0.2378   49.4340   25.0815 H   0  0  0  0  0  0
   -2.2136   47.1744   27.2221 H   0  0  0  0  0  0
   -1.8898   45.6395   26.4688 H   0  0  0  0  0  0
  1  2  1  0  0  0
  1 39  1  0  0  0
  1 40  1  0  0  0
  1 41  1  0  0  0
  2  3  1  0  0  0
  2 42  1  0  0  0
  2 43  1  0  0  0
  3  4  1  0  0  0
  4  5  2  0  0  0
  4  6  1  0  0  0
  6  8  1  0  0  0
  6  7  1  0  0  0
  6 36  1  0  0  0
  7 13  1  0  0  0
  7  8  1  0  0  0
  7  9  1  0  0  0
  9 10  1  0  0  0
  9 44  1  0  0  0
  9 45  1  0  0  0
 10 11  1  0  0  0
 10 46  1  0  0  0
 10 47  1  0  0  0
 11 12  1  0  0  0
 11 18  1  0  0  0
 11 13  1  0  0  0
 13 14  1  0  0  0
 13 35  1  0  0  0
 14 15  1  0  0  0
 14 48  1  0  0  0
 14 49  1  0  0  0
 15 16  1  0  0  0
 15 50  1  0  0  0
 15 51  1  0  0  0
 16 17  1  0  0  0
 16 24  1  0  0  0
 16 18  1  0  0  0
 18 19  1  0  0  0
 18 20  1  0  0  0
 20 21  1  0  0  0
 20 52  1  0  0  0
 20 53  1  0  0  0
 21 22  1  0  0  0
 21 54  1  0  0  0
 21 55  1  0  0  0
 22 23  1  0  0  0
 22 29  1  0  0  0
 22 24  1  0  0  0
 24 25  1  0  0  0
 24 34  1  0  0  0
 25 26  1  0  0  0
 25 56  1  0  0  0
 25 57  1  0  0  0
 26 27  1  0  0  0
 26 58  1  0  0  0
 26 59  1  0  0  0
 27 28  1  0  0  0
 27 29  1  0  0  0
 27 30  1  0  0  0
 29 60  1  0  0  0
 29 61  1  0  0  0
 30 31  1  0  0  0
 31 32  2  0  0  0
 31 33  1  0  0  0
 33 62  1  0  0  0
 33 63  1  0  0  0
 33 64  1  0  0  0
 34 65  1  0  0  0
 34 66  1  0  0  0
 34 67  1  0  0  0
 35 68  1  0  0  0
 35 69  1  0  0  0
 35 70  1  0  0  0
 36 37  2  0  0  0
 36 38  1  0  0  0
 38 71  1  0  0  0
 38 72  1  0  0  0
M  END
> <i_i_glide_confnum>
5

> <i_i_glide_lignum>
83

> <i_i_glide_posenum>
199

> <i_i_glide_rotatable_bonds>
6

> <i_m_Source_File_Index>
1566

> <b_m_subgroup_collapsed>
0

> <r_i_docking_score>
-0.887421

> <r_i_glide_ecoul>
-6.44515

> <r_i_glide_eff_state_penalty>
0

> <r_i_glide_einternal>
6.73505

> <r_i_glide_emodel>
-30.4265

> <r_i_glide_energy>
-39.412

> <r_i_glide_erotb>
0.283537

> <r_i_glide_esite>
-0.23959

> <r_i_glide_evdw>
-32.9668

> <r_i_glide_gscore>
-0.887421

> <r_i_glide_hbond>
-0.223599

> <r_i_glide_ligand_efficiency>
-0.0268916

> <r_i_glide_ligand_efficiency_ln>
-0.197358

> <r_i_glide_ligand_efficiency_sa>
-0.0862556

> <r_i_glide_lipo>
-0.655565

> <r_i_glide_metal>
0

> <r_i_glide_rewards>
2.56291

> <s_i_glide_gridfile>
wee1_glide-grid

> <s_m_Source_File>
wee1_decoys_glide_SP.sdf

> <s_m_Source_Path>
/Users/zhangxujun/Desktop

> <s_m_entry_id>
1841

> <s_m_entry_name>
wee1_decoys_glide_SP.1566

> <s_m_subgroup_title>
wee1_decoys_glide_SP

> <s_m_subgroupid>
wee1_decoys_glide_SP


$$$$
