@<TRIPOS>MOLECULE
ZINC49066665_5263
68   72    1
SMALL
USER_CHARGES


@<TRIPOS>ATOM
      1 C1         -3.3719   52.6129   25.0191 C.3       1 UNK         0.0000 
      2 C2         -1.8838   52.1952   24.9705 C.3       1 UNK         0.0000 
      3 H3         -1.3665   52.8761   25.6518 H         1 UNK         0.0000 
      4 C4         -1.2803   52.4917   23.5820 C.3       1 UNK         0.0000 
      5 N5          0.1687   52.2211   23.6470 N.am      1 UNK         0.0000 
      6 C6          0.5111   50.8070   23.8603 C.3       1 UNK         0.0000 
      7 C7         -0.0771   50.3678   25.2306 C.3       1 UNK         0.0000 
      8 H8          0.4956   50.9503   25.9568 H         1 UNK         0.0000 
      9 C9         -1.5941   50.7370   25.4688 C.3       1 UNK         0.0000 
     10 C10        -2.6207   49.7111   24.8903 C.ar      1 UNK         0.0000 
     11 C11        -3.7028   49.2544   25.6718 C.ar      1 UNK         0.0000 
     12 C12        -4.6333   48.3551   25.1589 C.ar      1 UNK         0.0000 
     13 C13        -4.4982   47.8946   23.8520 C.ar      1 UNK         0.0000 
     14 C14        -3.4437   48.3342   23.0560 C.ar      1 UNK         0.0000 
     15 C15        -2.5203   49.2406   23.5695 C.ar      1 UNK         0.0000 
     16 O16        -1.7351   50.8077   26.8803 O.3       1 UNK         0.0000 
     17 C17         0.2681   48.8967   25.5200 C.3       1 UNK         0.0000 
     18 C18         1.0619   53.2483   23.7350 C.2       1 UNK         0.0000 
     19 O19         0.7046   54.4174   23.6818 O.2       1 UNK         0.0000 
     20 C20         2.5834   52.9777   23.7765 C.3       1 UNK         0.0000 
     21 H21         2.7041   52.1105   24.4153 H         1 UNK         0.0000 
     22 C22         3.1053   52.7418   22.3445 C.3       1 UNK         0.0000 
     23 N23         4.2407   53.6655   22.1813 N.pl3     1 UNK         0.0000 
     24 C24         4.6968   54.0971   23.5126 C.3       1 UNK         0.0000 
     25 C25         3.4391   54.1146   24.3909 C.3       1 UNK         0.0000 
     26 H26         2.9644   55.0834   24.2194 H         1 UNK         0.0000 
     27 C27         3.6534   54.0892   25.9232 C.ar      1 UNK         0.0000 
     28 C28         2.5932   53.6955   26.7564 C.ar      1 UNK         0.0000 
     29 C29         2.7285   53.6870   28.1428 C.ar      1 UNK         0.0000 
     30 C30         3.9261   54.0841   28.7278 C.ar      1 UNK         0.0000 
     31 C31         4.9902   54.4863   27.9244 C.ar      1 UNK         0.0000 
     32 C32         4.8581   54.4976   26.5337 C.ar      1 UNK         0.0000 
     33 F33         5.9114   54.9310   25.8028 F         1 UNK         0.0000 
     34 F34         4.0438   54.0914   30.0744 F         1 UNK         0.0000 
     35 C35         4.9086   53.9118   20.9406 C.ar      1 UNK         0.0000 
     36 C36         5.9515   54.8437   20.8137 C.ar      1 UNK         0.0000 
     37 C37         6.5889   55.0056   19.5790 C.ar      1 UNK         0.0000 
     38 C38         6.1870   54.2347   18.4856 C.ar      1 UNK         0.0000 
     39 C39         5.1423   53.3224   18.6412 C.ar      1 UNK         0.0000 
     40 N40         4.5445   53.2097   19.8428 N.pl3     1 UNK         0.0000 
     41 H41        -3.9768   52.0471   24.3094 H         1 UNK         0.0000 
     42 H42        -3.7918   52.4530   26.0125 H         1 UNK         0.0000 
     43 H43        -3.4936   53.6703   24.7821 H         1 UNK         0.0000 
     44 H44        -1.4991   53.5110   23.2649 H         1 UNK         0.0000 
     45 H45        -1.7311   51.8621   22.8141 H         1 UNK         0.0000 
     46 H46         0.0810   50.2410   23.0402 H         1 UNK         0.0000 
     47 H47         1.5696   50.5799   23.7465 H         1 UNK         0.0000 
     48 H48        -3.8436   49.5969   26.6884 H         1 UNK         0.0000 
     49 H49        -5.4594   48.0198   25.7729 H         1 UNK         0.0000 
     50 H50        -5.2226   47.1992   23.4541 H         1 UNK         0.0000 
     51 H51        -3.3472   47.9801   22.0380 H         1 UNK         0.0000 
     52 H52        -1.7386   49.5699   22.9113 H         1 UNK         0.0000 
     53 H53        -1.6189   49.9166   27.2523 H         1 UNK         0.0000 
     54 H54        -0.1319   48.2245   24.7618 H         1 UNK         0.0000 
     55 H55         1.3449   48.7467   25.5537 H         1 UNK         0.0000 
     56 H56        -0.1218   48.5684   26.4825 H         1 UNK         0.0000 
     57 H57         2.3688   53.0077   21.5813 H         1 UNK         0.0000 
     58 H58         3.4339   51.7174   22.1658 H         1 UNK         0.0000 
     59 H59         5.1576   55.0809   23.4764 H         1 UNK         0.0000 
     60 H60         5.4423   53.3775   23.8531 H         1 UNK         0.0000 
     61 H61         1.6400   53.3985   26.3471 H         1 UNK         0.0000 
     62 H62         1.9008   53.3835   28.7663 H         1 UNK         0.0000 
     63 H63         5.9162   54.8092   28.3801 H         1 UNK         0.0000 
     64 H64         6.2838   55.4332   21.6537 H         1 UNK         0.0000 
     65 H65         7.3992   55.7131   19.4729 H         1 UNK         0.0000 
     66 H66         6.6845   54.3365   17.5316 H         1 UNK         0.0000 
     67 H67         4.7806   52.6595   17.8636 H         1 UNK         0.0000 
     68 H68         3.8005   52.5338   19.9363 H         1 UNK         0.0000 
@<TRIPOS>BOND
     1    1    2 1    
     2    1   41 1    
     3    1   42 1    
     4    1   43 1    
     5    2    3 1    
     6    2    9 1    
     7    2    4 1    
     8    4    5 1    
     9    4   44 1    
    10    4   45 1    
    11    5    6 1    
    12    5   18 am   BACKBONE|DICT|INTERRES
    13    6    7 1    
    14    6   46 1    
    15    6   47 1    
    16    7    8 1    
    17    7    9 1    
    18    7   17 1    
    19    9   10 1    
    20    9   16 1    
    21   10   15 ar   
    22   10   11 ar   
    23   11   12 ar   
    24   11   48 1    
    25   12   13 ar   
    26   12   49 1    
    27   13   14 ar   
    28   13   50 1    
    29   14   15 ar   
    30   14   51 1    
    31   15   52 1    
    32   16   53 1    
    33   17   54 1    
    34   17   55 1    
    35   17   56 1    
    36   18   19 2    
    37   18   20 1    
    38   20   21 1    
    39   20   25 1    
    40   20   22 1    
    41   22   23 1    
    42   22   57 1    
    43   22   58 1    
    44   23   24 1    
    45   23   35 1    
    46   24   25 1    
    47   24   59 1    
    48   24   60 1    
    49   25   26 1    
    50   25   27 1    
    51   27   32 ar   
    52   27   28 ar   
    53   28   29 ar   
    54   28   61 1    
    55   29   30 ar   
    56   29   62 1    
    57   30   31 ar   
    58   30   34 1    
    59   31   32 ar   
    60   31   63 1    
    61   32   33 1    
    62   35   40 ar   
    63   35   36 ar   
    64   36   37 ar   
    65   36   64 1    
    66   37   38 ar   
    67   37   65 1    
    68   38   39 ar   
    69   38   66 1    
    70   39   40 ar   
    71   39   67 1    
    72   40   68 1    
@<TRIPOS>SUBSTRUCTURE
     1 UNK         1 GROUP             0       ****    0 ROOT    
