ZINC16116479_2097
                    3D
 Schrodinger Suite 2024-2.
 48 50  0  0  1  0            999 V2000
    1.5318   49.1900   22.1246 C   0  0  0  0  0  0
    0.9433   50.0163   23.2982 C   0  0  2  0  0  0
    1.7091   50.6940   23.6756 H   0  0  0  0  0  0
    0.4842   49.1037   24.4456 C   0  0  0  0  0  0
   -0.9968   49.2589   24.4675 C   0  0  0  0  0  0
   -1.9240   48.6116   25.2813 C   0  0  0  0  0  0
   -3.2753   48.9500   25.1959 C   0  0  0  0  0  0
   -3.6877   49.9575   24.3190 C   0  0  0  0  0  0
   -2.7513   50.6175   23.5225 C   0  0  0  0  0  0
   -1.3971   50.2477   23.5740 C   0  0  0  0  0  0
   -0.2673   50.7784   22.9064 N   0  0  0  0  0  0
   -0.2909   51.7276   21.9233 C   0  0  0  0  0  0
   -1.3448   52.0968   21.3991 O   0  0  0  0  0  0
    0.9999   52.4009   21.4065 C   0  0  0  0  0  0
    1.8460   52.8231   22.4845 O   0  0  0  0  0  0
    3.1043   53.2935   22.2321 C   0  0  0  0  0  0
    3.6009   53.3558   21.1085 O   0  0  0  0  0  0
    3.8718   53.6959   23.4083 C   0  0  0  0  0  0
    3.4037   53.7016   24.6771 C   0  0  0  0  0  0
    4.1458   54.0366   25.9217 C   0  0  0  0  0  0
    3.4167   54.0237   27.1186 C   0  0  0  0  0  0
    4.0396   54.2487   28.3443 C   0  0  0  0  0  0
    5.4084   54.4962   28.3949 C   0  0  0  0  0  0
    6.1505   54.5120   27.2182 C   0  0  0  0  0  0
    5.5315   54.2929   25.9881 C   0  0  0  0  0  0
    6.3124   54.3163   24.8855 F   0  0  0  0  0  0
    3.0188   54.1964   29.9479 Br  0  0  0  0  0  0
   -4.4460   48.0906   26.2303 S   0  0  0  0  0  0
   -5.7893   48.5652   25.8814 O   0  0  0  0  0  0
   -4.1001   46.6657   26.1677 O   0  0  0  0  0  0
   -4.0957   48.6597   27.8382 N   0  0  0  0  0  0
    2.2990   48.4990   22.4810 H   0  0  0  0  0  0
    0.7698   48.5843   21.6320 H   0  0  0  0  0  0
    2.0314   49.8061   21.3803 H   0  0  0  0  0  0
    0.7095   48.0495   24.2826 H   0  0  0  0  0  0
    0.9103   49.4342   25.3923 H   0  0  0  0  0  0
   -1.6010   47.8622   25.9940 H   0  0  0  0  0  0
   -4.7293   50.2387   24.2587 H   0  0  0  0  0  0
   -3.1073   51.4030   22.8754 H   0  0  0  0  0  0
    0.7064   53.2959   20.8529 H   0  0  0  0  0  0
    1.5090   51.7603   20.6861 H   0  0  0  0  0  0
    4.8826   53.9884   23.1782 H   0  0  0  0  0  0
    2.3699   53.4208   24.8325 H   0  0  0  0  0  0
    2.3563   53.8168   27.1096 H   0  0  0  0  0  0
    5.8985   54.6826   29.3363 H   0  0  0  0  0  0
    7.2122   54.7029   27.2674 H   0  0  0  0  0  0
   -3.1057   48.4955   28.1056 H   0  0  0  0  0  0
   -4.3517   49.6365   27.9809 H   0  0  0  0  0  0
  1  2  1  0  0  0
  1 32  1  0  0  0
  1 33  1  0  0  0
  1 34  1  0  0  0
  2  3  1  0  0  0
  2 11  1  0  0  0
  2  4  1  0  0  0
  4  5  1  0  0  0
  4 35  1  0  0  0
  4 36  1  0  0  0
  5 10  2  0  0  0
  5  6  1  0  0  0
  6  7  2  0  0  0
  6 37  1  0  0  0
  7  8  1  0  0  0
  7 28  1  0  0  0
  8  9  2  0  0  0
  8 38  1  0  0  0
  9 10  1  0  0  0
  9 39  1  0  0  0
 10 11  1  0  0  0
 11 12  1  0  0  0
 12 13  2  0  0  0
 12 14  1  0  0  0
 14 15  1  0  0  0
 14 40  1  0  0  0
 14 41  1  0  0  0
 15 16  1  0  0  0
 16 17  2  0  0  0
 16 18  1  0  0  0
 18 19  2  0  0  0
 18 42  1  0  0  0
 19 20  1  0  0  0
 19 43  1  0  0  0
 20 25  2  0  0  0
 20 21  1  0  0  0
 21 22  2  0  0  0
 21 44  1  0  0  0
 22 23  1  0  0  0
 22 27  1  0  0  0
 23 24  2  0  0  0
 23 45  1  0  0  0
 24 25  1  0  0  0
 24 46  1  0  0  0
 25 26  1  0  0  0
 28 29  2  0  0  0
 28 30  2  0  0  0
 28 31  1  0  0  0
 31 47  1  0  0  0
 31 48  1  0  0  0
M  END
> <i_i_glide_confnum>
37

> <i_i_glide_lignum>
2098

> <i_i_glide_posenum>
44

> <i_i_glide_rotatable_bonds>
7

> <i_m_Source_File_Index>
5981

> <b_m_subgroup_collapsed>
0

> <r_i_docking_score>
-5.55121

> <r_i_glide_ecoul>
-9.65689

> <r_i_glide_eff_state_penalty>
0

> <r_i_glide_einternal>
4.63867

> <r_i_glide_emodel>
-60.0205

> <r_i_glide_energy>
-44.6943

> <r_i_glide_erotb>
0.412352

> <r_i_glide_esite>
-0.189076

> <r_i_glide_evdw>
-35.0374

> <r_i_glide_gscore>
-5.55121

> <r_i_glide_hbond>
-0.16

> <r_i_glide_ligand_efficiency>
-0.18504

> <r_i_glide_ligand_efficiency_ln>
-1.2613

> <r_i_glide_ligand_efficiency_sa>
-0.574964

> <r_i_glide_lipo>
-2.06491

> <r_i_glide_metal>
0

> <r_i_glide_rewards>
-0.349179

> <s_i_glide_gridfile>
wee1_glide-grid

> <s_m_Source_File>
wee1_decoys_glide_SP.sdf

> <s_m_Source_Path>
/Users/zhangxujun/Desktop

> <s_m_entry_id>
6256

> <s_m_entry_name>
wee1_decoys_glide_SP.5981

> <s_m_subgroup_title>
wee1_decoys_glide_SP

> <s_m_subgroupid>
wee1_decoys_glide_SP


$$$$
