@<TRIPOS>MOLECULE
ZINC55339666_2568
48   50    1
SMALL
USER_CHARGES


@<TRIPOS>ATOM
      1 C1          0.8738   55.5322   30.4795 C.3       1 UNK         0.0000 
      2 C2          1.6666   54.2859   30.0575 C.3       1 UNK         0.0000 
      3 H3          1.8193   53.6774   30.9509 H         1 UNK         0.0000 
      4 C4          0.8686   53.4005   29.0912 C.ar      1 UNK         0.0000 
      5 C5          1.1256   53.4149   27.7174 C.ar      1 UNK         0.0000 
      6 C6          0.5062   52.4987   26.8737 C.ar      1 UNK         0.0000 
      7 C7         -0.4196   51.5850   27.3903 C.ar      1 UNK         0.0000 
      8 C8         -0.7158   51.6038   28.7554 C.ar      1 UNK         0.0000 
      9 C9         -0.0689   52.4988   29.6023 C.ar      1 UNK         0.0000 
     10 N10        -1.0216   50.5816   26.6075 N.am      1 UNK         0.0000 
     11 C11        -1.2318   50.5871   25.2688 C.2       1 UNK         0.0000 
     12 O12        -1.1040   51.5875   24.5552 O.2       1 UNK         0.0000 
     13 C13        -1.6660   49.2759   24.6508 C.ar      1 UNK         0.0000 
     14 C14        -1.4052   48.0494   25.2819 C.ar      1 UNK         0.0000 
     15 C15        -1.7930   46.8535   24.6914 C.ar      1 UNK         0.0000 
     16 C16        -2.4311   46.8643   23.4561 C.ar      1 UNK         0.0000 
     17 C17        -2.6909   48.0702   22.8081 C.ar      1 UNK         0.0000 
     18 C18        -2.3107   49.2716   23.4036 C.ar      1 UNK         0.0000 
     19 F19        -2.7955   45.6965   22.8821 F         1 UNK         0.0000 
     20 N20         3.0090   54.6788   29.6048 N.am      1 UNK         0.0000 
     21 C21         4.0143   53.8478   29.2817 C.2       1 UNK         0.0000 
     22 O22         3.9947   52.6330   29.4808 O.2       1 UNK         0.0000 
     23 N23         5.0033   54.4970   28.6517 N.am      1 UNK         0.0000 
     24 C24         5.9740   53.8948   27.7401 C.3       1 UNK         0.0000 
     25 C25         5.5671   54.0968   26.2940 C.2       1 UNK         0.0000 
     26 C26         4.3408   53.8574   25.6745 C.2       1 UNK         0.0000 
     27 C27         4.3249   54.0969   24.2988 C.2       1 UNK         0.0000 
     28 C28         5.5562   54.4965   23.8222 C.2       1 UNK         0.0000 
     29 S29         6.7044   54.6583   25.1016 S.3       1 UNK         0.0000 
     30 H30        -0.0989   55.2595   30.8862 H         1 UNK         0.0000 
     31 H31         1.3966   56.1005   31.2504 H         1 UNK         0.0000 
     32 H32         0.7061   56.2027   29.6372 H         1 UNK         0.0000 
     33 H33         1.8217   54.1248   27.3019 H         1 UNK         0.0000 
     34 H34         0.7763   52.5024   25.8281 H         1 UNK         0.0000 
     35 H35        -1.4187   50.8973   29.1757 H         1 UNK         0.0000 
     36 H36        -0.2819   52.4661   30.6626 H         1 UNK         0.0000 
     37 H37        -1.2962   49.7501   27.1256 H         1 UNK         0.0000 
     38 H38        -0.8942   48.0004   26.2343 H         1 UNK         0.0000 
     39 H39        -1.5869   45.9231   25.1958 H         1 UNK         0.0000 
     40 H40        -3.1837   48.0711   21.8469 H         1 UNK         0.0000 
     41 H41        -2.5179   50.1986   22.8863 H         1 UNK         0.0000 
     42 H42         3.2027   55.6679   29.6209 H         1 UNK         0.0000 
     43 H43         5.0863   55.4922   28.7845 H         1 UNK         0.0000 
     44 H44         6.9346   54.3706   27.9374 H         1 UNK         0.0000 
     45 H45         6.1256   52.8366   27.9585 H         1 UNK         0.0000 
     46 H46         3.4912   53.4731   26.2118 H         1 UNK         0.0000 
     47 H47         3.4555   53.9448   23.6740 H         1 UNK         0.0000 
     48 H48         5.8309   54.7301   22.8031 H         1 UNK         0.0000 
@<TRIPOS>BOND
     1    1    2 1    
     2    1   30 1    
     3    1   31 1    
     4    1   32 1    
     5    2    3 1    
     6    2    4 1    
     7    2   20 1    
     8    4    9 ar   
     9    4    5 ar   
    10    5    6 ar   
    11    5   33 1    
    12    6    7 ar   
    13    6   34 1    
    14    7    8 ar   
    15    7   10 1    
    16    8    9 ar   
    17    8   35 1    
    18    9   36 1    
    19   10   11 am   BACKBONE|DICT|INTERRES
    20   10   37 1    
    21   11   12 2    
    22   11   13 1    
    23   13   18 ar   
    24   13   14 ar   
    25   14   15 ar   
    26   14   38 1    
    27   15   16 ar   
    28   15   39 1    
    29   16   17 ar   
    30   16   19 1    
    31   17   18 ar   
    32   17   40 1    
    33   18   41 1    
    34   20   21 am   BACKBONE|DICT|INTERRES
    35   20   42 1    
    36   21   22 2    
    37   21   23 am   BACKBONE|DICT|INTERRES
    38   23   24 1    
    39   23   43 1    
    40   24   25 1    
    41   24   44 1    
    42   24   45 1    
    43   25   29 1    
    44   25   26 2    
    45   26   27 1    
    46   26   46 1    
    47   27   28 2    
    48   27   47 1    
    49   28   29 1    
    50   28   48 1    
@<TRIPOS>SUBSTRUCTURE
     1 UNK         1 GROUP             0       ****    0 ROOT    
