@<TRIPOS>MOLECULE
ZINC12155728_1217
71   75    1
SMALL
USER_CHARGES


@<TRIPOS>ATOM
      1 C1          0.3028   53.6492   32.1522 C.3       1 UNK         0.0000 
      2 O2          0.8593   54.1039   30.9244 O.3       1 UNK         0.0000 
      3 C3          0.7248   53.3174   29.8017 C.ar      1 UNK         0.0000 
      4 C4         -0.0926   52.1815   29.7081 C.ar      1 UNK         0.0000 
      5 C5         -0.1657   51.4681   28.5149 C.ar      1 UNK         0.0000 
      6 C6          0.6030   51.8391   27.4012 C.ar      1 UNK         0.0000 
      7 C7          1.4398   52.9632   27.5042 C.ar      1 UNK         0.0000 
      8 C8          1.4712   53.7049   28.6940 C.ar      1 UNK         0.0000 
      9 N9          2.2127   53.2946   26.3788 N.am      1 UNK         0.0000 
     10 C10         3.3656   53.9932   26.3136 C.2       1 UNK         0.0000 
     11 O11         3.9490   54.5108   27.2669 O.2       1 UNK         0.0000 
     12 C12         3.9044   54.0588   24.9793 C.2       1 UNK         0.0000 
     13 C13         3.3089   53.8359   23.7340 C.2       1 UNK         0.0000 
     14 C14         4.3119   54.1029   22.7571 C.ar      1 UNK         0.0000 
     15 C15         4.3802   54.1002   21.3571 C.ar      1 UNK         0.0000 
     16 C16         5.5584   54.5349   20.7222 C.ar      1 UNK         0.0000 
     17 C17         6.6578   54.9375   21.5011 C.ar      1 UNK         0.0000 
     18 C18         6.6417   54.8985   22.8936 C.ar      1 UNK         0.0000 
     19 C19         5.4488   54.4965   23.4954 C.ar      1 UNK         0.0000 
     20 O20         5.1994   54.4727   24.8351 O.3       1 UNK         0.0000 
     21 C21         5.6383   54.5898   19.1782 C.3       1 UNK         0.0000 
     22 C22         5.3837   53.1730   18.5681 C.3       1 UNK         0.0000 
     23 C23         4.8553   53.1069   17.1228 C.3       1 UNK         0.0000 
     24 C24         4.1293   55.5067   17.2078 C.3       1 UNK         0.0000 
     25 C25         4.5972   55.6301   18.6623 C.3       1 UNK         0.0000 
     26 C26         3.0022   53.8881   15.5845 C.3       1 UNK         0.0000 
     27 C27         1.6550   54.6579   15.4825 C.3       1 UNK         0.0000 
     28 H28         1.3553   54.9907   16.4792 H         1 UNK         0.0000 
     29 C29         1.7638   55.9070   14.5737 C.3       1 UNK         0.0000 
     30 C30         0.4777   56.7617   14.6028 C.3       1 UNK         0.0000 
     31 C31        -0.7500   55.8713   14.4518 C.2       1 UNK         0.0000 
     32 C32        -0.7269   54.5309   14.5935 C.2       1 UNK         0.0000 
     33 C33         0.5168   53.7307   14.9715 C.3       1 UNK         0.0000 
     34 O34         6.8793   55.0117   18.6384 O.3       1 UNK         0.0000 
     35 O35         0.5870   51.1451   26.2017 O.3       1 UNK         0.0000 
     36 C36        -0.0983   49.8958   26.1282 C.3       1 UNK         0.0000 
     37 H37         0.5277   54.3561   32.9499 H         1 UNK         0.0000 
     38 H38         0.7030   52.6779   32.4459 H         1 UNK         0.0000 
     39 H39        -0.7801   53.5845   32.0818 H         1 UNK         0.0000 
     40 H40        -0.6883   51.8462   30.5464 H         1 UNK         0.0000 
     41 H41        -0.8210   50.6110   28.4807 H         1 UNK         0.0000 
     42 H42         2.0811   54.5902   28.7848 H         1 UNK         0.0000 
     43 H43         1.9043   52.8452   25.5296 H         1 UNK         0.0000 
     44 H44         2.2879   53.5335   23.5539 H         1 UNK         0.0000 
     45 H45         3.5117   53.8125   20.7829 H         1 UNK         0.0000 
     46 H46         7.5659   55.2724   21.0189 H         1 UNK         0.0000 
     47 H47         7.5032   55.1984   23.4760 H         1 UNK         0.0000 
     48 H48         6.2936   52.5732   18.6410 H         1 UNK         0.0000 
     49 H49         4.6992   52.5997   19.1910 H         1 UNK         0.0000 
     50 H50         5.6032   53.3938   16.3813 H         1 UNK         0.0000 
     51 H51         4.5014   52.0981   16.9031 H         1 UNK         0.0000 
     52 H52         4.9096   55.7285   16.4786 H         1 UNK         0.0000 
     53 H53         3.2837   56.1755   17.0526 H         1 UNK         0.0000 
     54 H54         3.7027   55.5888   19.2792 H         1 UNK         0.0000 
     55 H55         4.9666   56.6401   18.8474 H         1 UNK         0.0000 
     56 H56         3.7463   54.1964   14.8458 H         1 UNK         0.0000 
     57 H57         2.8518   52.8110   15.4769 H         1 UNK         0.0000 
     58 H58         2.6080   56.5287   14.8755 H         1 UNK         0.0000 
     59 H59         2.0098   55.5997   13.5558 H         1 UNK         0.0000 
     60 H60         0.5132   57.5042   13.8057 H         1 UNK         0.0000 
     61 H61         0.4085   57.3276   15.5332 H         1 UNK         0.0000 
     62 H62        -1.6947   56.3350   14.2068 H         1 UNK         0.0000 
     63 H63        -1.6537   53.9958   14.4449 H         1 UNK         0.0000 
     64 H64         0.8372   53.1426   14.1114 H         1 UNK         0.0000 
     65 H65         0.2530   53.0142   15.7509 H         1 UNK         0.0000 
     66 H66         6.8543   54.8949   17.6877 H         1 UNK         0.0000 
     67 H67         0.0416   49.4658   25.1385 H         1 UNK         0.0000 
     68 H68         0.3011   49.1842   26.8520 H         1 UNK         0.0000 
     69 H69        -1.1706   50.0080   26.2921 H         1 UNK         0.0000 
     70 N70         3.6493   54.0586   16.9850 N.4       1 UNK         0.0000 
     71 H71         2.9458   53.8157   17.6712 H         1 UNK         0.0000 
@<TRIPOS>BOND
     1    1    2 1    
     2    1   37 1    
     3    1   38 1    
     4    1   39 1    
     5    2    3 1    
     6    3    8 ar   
     7    3    4 ar   
     8    4    5 ar   
     9    4   40 1    
    10    5    6 ar   
    11    5   41 1    
    12    6    7 ar   
    13    6   35 1    
    14    7    8 ar   
    15    7    9 1    
    16    8   42 1    
    17    9   10 am   BACKBONE|DICT|INTERRES
    18    9   43 1    
    19   10   11 2    
    20   10   12 1    
    21   12   20 1    
    22   12   13 2    
    23   13   14 1    
    24   13   44 1    
    25   14   19 ar   
    26   14   15 ar   
    27   15   16 ar   
    28   15   45 1    
    29   16   17 ar   
    30   16   21 1    
    31   17   18 ar   
    32   17   46 1    
    33   18   19 ar   
    34   18   47 1    
    35   19   20 1    
    36   21   25 1    
    37   21   22 1    
    38   21   34 1    
    39   22   23 1    
    40   22   48 1    
    41   22   49 1    
    42   23   50 1    
    43   23   51 1    
    44   23   70 1    
    45   24   25 1    
    46   24   52 1    
    47   24   53 1    
    48   24   70 1    
    49   25   54 1    
    50   25   55 1    
    51   26   27 1    
    52   26   56 1    
    53   26   57 1    
    54   26   70 1    
    55   27   28 1    
    56   27   33 1    
    57   27   29 1    
    58   29   30 1    
    59   29   58 1    
    60   29   59 1    
    61   30   31 1    
    62   30   60 1    
    63   30   61 1    
    64   31   32 2    
    65   31   62 1    
    66   32   33 1    
    67   32   63 1    
    68   33   64 1    
    69   33   65 1    
    70   34   66 1    
    71   35   36 1    
    72   36   67 1    
    73   36   68 1    
    74   36   69 1    
    75   70   71 1    
@<TRIPOS>SUBSTRUCTURE
     1 UNK         1 GROUP             0       ****    0 ROOT    
