@<TRIPOS>MOLECULE
ZINC20665324_938
54   56    1
SMALL
USER_CHARGES


@<TRIPOS>ATOM
      1 C1          0.9526   49.0598   19.6381 C.ar      1 UNK         0.0000 
      2 C2          1.9002   49.6007   20.5070 C.ar      1 UNK         0.0000 
      3 C3          1.9491   50.9820   20.7191 C.ar      1 UNK         0.0000 
      4 C4          1.0601   51.8204   20.0362 C.ar      1 UNK         0.0000 
      5 C5          0.1037   51.2765   19.1785 C.ar      1 UNK         0.0000 
      6 C6          0.0516   49.8965   18.9782 C.ar      1 UNK         0.0000 
      7 Br7        -1.1383   52.4150   18.2924 Br        1 UNK         0.0000 
      8 C8          2.9729   51.5663   21.6757 C.3       1 UNK         0.0000 
      9 N9          2.3325   52.3599   22.7634 N.pl3     1 UNK         0.0000 
     10 C10         1.6783   51.6295   23.8841 C.3       1 UNK         0.0000 
     11 C11         0.2162   52.0503   24.1984 C.3       1 UNK         0.0000 
     12 C12        -0.2159   51.6113   25.6155 C.3       1 UNK         0.0000 
     13 C13        -0.3074   50.0764   25.7354 C.3       1 UNK         0.0000 
     14 C14        -1.2880   49.5243   24.6650 C.3       1 UNK         0.0000 
     15 C15        -0.9850   50.0032   23.2147 C.3       1 UNK         0.0000 
     16 C16        -0.8336   51.5432   23.1810 C.3       1 UNK         0.0000 
     17 C17        -1.3137   47.9868   24.7769 C.2       1 UNK         0.0000 
     18 O18        -0.5681   47.2975   24.0816 O.2       1 UNK         0.0000 
     19 N19        -2.1632   47.4758   25.6817 N.am      1 UNK         0.0000 
     20 O20        -2.0957   46.1050   25.9682 O.3       1 UNK         0.0000 
     21 S21         2.8148   54.0571   22.9846 S.o2      1 UNK         0.0000 
     22 O22         3.5045   54.4967   21.7666 O.2       1 UNK         0.0000 
     23 O23         1.6526   54.7773   23.5113 O.2       1 UNK         0.0000 
     24 C24         4.0398   54.0864   24.2921 C.ar      1 UNK         0.0000 
     25 C25         5.4006   54.0968   23.9735 C.ar      1 UNK         0.0000 
     26 C26         6.3488   54.1197   24.9928 C.ar      1 UNK         0.0000 
     27 C27         5.9328   54.1140   26.3235 C.ar      1 UNK         0.0000 
     28 C28         4.5767   54.1066   26.6437 C.ar      1 UNK         0.0000 
     29 C29         3.6266   54.0968   25.6265 C.ar      1 UNK         0.0000 
     30 Cl30        7.1045   54.1014   27.5879 Cl        1 UNK         0.0000 
     31 H31         0.9175   47.9927   19.4765 H         1 UNK         0.0000 
     32 H32         2.5911   48.9431   21.0156 H         1 UNK         0.0000 
     33 H33         1.1026   52.8917   20.1837 H         1 UNK         0.0000 
     34 H34        -0.6838   49.4755   18.3091 H         1 UNK         0.0000 
     35 H35         3.6335   52.2039   21.0887 H         1 UNK         0.0000 
     36 H36         3.6161   50.7968   22.0960 H         1 UNK         0.0000 
     37 H37         2.3045   51.7579   24.7617 H         1 UNK         0.0000 
     38 H38         1.7173   50.5631   23.6639 H         1 UNK         0.0000 
     39 H39         0.1323   53.1332   24.2132 H         1 UNK         0.0000 
     40 H40        -1.1795   52.0568   25.8707 H         1 UNK         0.0000 
     41 H41         0.4965   51.9815   26.3546 H         1 UNK         0.0000 
     42 H42        -0.6536   49.8610   26.7484 H         1 UNK         0.0000 
     43 H43         0.7015   49.6867   25.5853 H         1 UNK         0.0000 
     44 H44        -2.2877   49.8646   24.9443 H         1 UNK         0.0000 
     45 H45        -0.0445   49.5907   22.8471 H         1 UNK         0.0000 
     46 H46        -1.8020   49.7470   22.5383 H         1 UNK         0.0000 
     47 H47        -1.8003   52.0071   23.3841 H         1 UNK         0.0000 
     48 H48        -0.5560   51.8528   22.1751 H         1 UNK         0.0000 
     49 H49        -2.6558   48.0006   26.3944 H         1 UNK         0.0000 
     50 H50        -1.5807   46.0946   26.7842 H         1 UNK         0.0000 
     51 H51         5.7259   54.0904   22.9429 H         1 UNK         0.0000 
     52 H52         7.4006   54.1264   24.7463 H         1 UNK         0.0000 
     53 H53         4.2627   54.1039   27.6770 H         1 UNK         0.0000 
     54 H54         2.5748   54.0900   25.8757 H         1 UNK         0.0000 
@<TRIPOS>BOND
     1    1    6 ar   
     2    1    2 ar   
     3    1   31 1    
     4    2    3 ar   
     5    2   32 1    
     6    3    4 ar   
     7    3    8 1    
     8    4    5 ar   
     9    4   33 1    
    10    5    6 ar   
    11    5    7 1    
    12    6   34 1    
    13    8    9 1    
    14    8   35 1    
    15    8   36 1    
    16    9   10 1    
    17    9   21 1    
    18   10   11 1    
    19   10   37 1    
    20   10   38 1    
    21   11   16 1    
    22   11   12 1    
    23   11   39 1    
    24   12   13 1    
    25   12   40 1    
    26   12   41 1    
    27   13   14 1    
    28   13   42 1    
    29   13   43 1    
    30   14   15 1    
    31   14   17 1    
    32   14   44 1    
    33   15   16 1    
    34   15   45 1    
    35   15   46 1    
    36   16   47 1    
    37   16   48 1    
    38   17   18 2    
    39   17   19 am   BACKBONE|DICT|INTERRES
    40   19   20 1    
    41   19   49 1    
    42   20   50 1    
    43   21   22 2    
    44   21   23 2    
    45   21   24 1    
    46   24   29 ar   
    47   24   25 ar   
    48   25   26 ar   
    49   25   51 1    
    50   26   27 ar   
    51   26   52 1    
    52   27   28 ar   
    53   27   30 1    
    54   28   29 ar   
    55   28   53 1    
    56   29   54 1    
@<TRIPOS>SUBSTRUCTURE
     1 UNK         1 GROUP             0       ****    0 ROOT    
