@<TRIPOS>MOLECULE
ZINC39665419_380
72   76    1
SMALL
USER_CHARGES


@<TRIPOS>ATOM
      1 C1          0.3053   48.5119   24.6476 C.3       1 UNK         0.0000 
      2 C2         -1.0057   49.2518   24.7436 C.2       1 UNK         0.0000 
      3 C3         -1.3717   50.5844   24.8316 C.2       1 UNK         0.0000 
      4 C4         -2.7597   50.5536   25.0675 C.2       1 UNK         0.0000 
      5 N5         -3.2141   49.3156   25.0294 N.2       1 UNK         0.0000 
      6 O6         -2.1161   48.4840   24.8283 O.3       1 UNK         0.0000 
      7 C7         -3.7141   51.6826   25.3252 C.ar      1 UNK         0.0000 
      8 C8         -3.5912   52.8995   24.6436 C.ar      1 UNK         0.0000 
      9 C9         -4.4964   53.9323   24.8804 C.ar      1 UNK         0.0000 
     10 C10        -5.5293   53.7474   25.7954 C.ar      1 UNK         0.0000 
     11 C11        -5.6617   52.5436   26.4814 C.ar      1 UNK         0.0000 
     12 C12        -4.7531   51.5152   26.2488 C.ar      1 UNK         0.0000 
     13 C13        -0.4814   51.7109   24.8476 C.2       1 UNK         0.0000 
     14 O14        -0.4375   52.4305   25.8458 O.2       1 UNK         0.0000 
     15 N15         0.3162   51.8894   23.7631 N.am      1 UNK         0.0000 
     16 C16         1.3867   52.8774   23.7822 C.3       1 UNK         0.0000 
     17 C17         1.6833   53.1619   22.2855 C.3       1 UNK         0.0000 
     18 H18         1.1057   54.0575   22.0745 H         1 UNK         0.0000 
     19 C19         1.2194   51.8805   21.5147 C.3       1 UNK         0.0000 
     20 C20         0.0844   51.3412   22.4239 C.3       1 UNK         0.0000 
     21 C21         2.2905   50.7415   21.4001 C.3       1 UNK         0.0000 
     22 C22         3.3633   50.9585   20.2964 C.3       1 UNK         0.0000 
     23 N23         2.6990   51.2178   18.9358 N.4       1 UNK         0.0000 
     24 C24         1.6957   52.3855   18.9859 C.3       1 UNK         0.0000 
     25 C25         0.6496   52.0995   20.0828 C.3       1 UNK         0.0000 
     26 C26         3.1685   53.5626   22.1090 C.2       1 UNK         0.0000 
     27 O27         3.5462   54.0963   21.0717 O.2       1 UNK         0.0000 
     28 N28         4.0366   53.2966   23.0870 N.am      1 UNK         0.0000 
     29 C29         5.4863   53.4532   23.0316 C.3       1 UNK         0.0000 
     30 C30         5.7484   54.8966   23.3104 C.3       1 UNK         0.0000 
     31 H31         5.1962   55.2967   22.4724 H         1 UNK         0.0000 
     32 C32         7.1101   55.5246   23.0931 C.3       1 UNK         0.0000 
     33 O33         5.1057   55.2968   24.5272 O.3       1 UNK         0.0000 
     34 C34         5.3610   54.7403   25.7572 C.ar      1 UNK         0.0000 
     35 C35         6.5626   54.1284   26.1218 C.ar      1 UNK         0.0000 
     36 C36         6.7039   53.6017   27.4021 C.ar      1 UNK         0.0000 
     37 C37         5.6443   53.6730   28.3007 C.ar      1 UNK         0.0000 
     38 C38         4.4481   54.2839   27.9467 C.ar      1 UNK         0.0000 
     39 C39         4.3155   54.8238   26.6740 C.ar      1 UNK         0.0000 
     40 H40         1.1008   49.1213   24.2215 H         1 UNK         0.0000 
     41 H41         0.6435   48.2021   25.6361 H         1 UNK         0.0000 
     42 H42         0.2205   47.6095   24.0489 H         1 UNK         0.0000 
     43 H43        -2.8012   53.0476   23.9234 H         1 UNK         0.0000 
     44 H44        -4.3991   54.8679   24.3487 H         1 UNK         0.0000 
     45 H45        -6.2424   54.5381   25.9744 H         1 UNK         0.0000 
     46 H46        -6.4647   52.4023   27.1895 H         1 UNK         0.0000 
     47 H47        -4.8604   50.5860   26.7897 H         1 UNK         0.0000 
     48 H48         2.2001   52.3415   24.2719 H         1 UNK         0.0000 
     49 H49         1.1119   53.8011   24.2984 H         1 UNK         0.0000 
     50 H50        -0.8468   51.8103   22.0984 H         1 UNK         0.0000 
     51 H51        -0.0936   50.2682   22.3440 H         1 UNK         0.0000 
     52 H52         2.7539   50.5480   22.3687 H         1 UNK         0.0000 
     53 H53         1.7914   49.8015   21.1541 H         1 UNK         0.0000 
     54 H54         4.0553   51.7799   20.4495 H         1 UNK         0.0000 
     55 H55         3.9821   50.0963   20.1260 H         1 UNK         0.0000 
     56 H56         3.4307   51.3812   18.2494 H         1 UNK         0.0000 
     57 H57         2.2692   53.2949   19.1541 H         1 UNK         0.0000 
     58 H58         1.2473   52.4437   17.9929 H         1 UNK         0.0000 
     59 H59         0.0993   51.2086   19.7739 H         1 UNK         0.0000 
     60 H60        -0.0939   52.8943   20.1011 H         1 UNK         0.0000 
     61 H61         3.6738   52.9589   23.9646 H         1 UNK         0.0000 
     62 H62         5.9049   53.1231   22.0803 H         1 UNK         0.0000 
     63 H63         5.9638   52.8967   23.8191 H         1 UNK         0.0000 
     64 H64         7.7646   54.8973   22.4852 H         1 UNK         0.0000 
     65 H65         7.0186   56.4889   22.5816 H         1 UNK         0.0000 
     66 H66         7.5654   55.7430   24.0536 H         1 UNK         0.0000 
     67 H67         7.3798   54.0490   25.4234 H         1 UNK         0.0000 
     68 H68         7.6193   53.1085   27.6908 H         1 UNK         0.0000 
     69 H69         5.7453   53.2348   29.2787 H         1 UNK         0.0000 
     70 H70         3.6291   54.3363   28.6490 H         1 UNK         0.0000 
     71 H71         3.3882   55.2945   26.3893 H         1 UNK         0.0000 
     72 H72         2.2337   50.3737   18.6267 H         1 UNK         0.0000 
@<TRIPOS>BOND
     1    1    2 1    
     2    1   40 1    
     3    1   41 1    
     4    1   42 1    
     5    2    6 1    
     6    2    3 2    
     7    3    4 1    
     8    3   13 1    
     9    4    5 2    
    10    4    7 1    
    11    5    6 1    
    12    7   12 ar   
    13    7    8 ar   
    14    8    9 ar   
    15    8   43 1    
    16    9   10 ar   
    17    9   44 1    
    18   10   11 ar   
    19   10   45 1    
    20   11   12 ar   
    21   11   46 1    
    22   12   47 1    
    23   13   14 2    
    24   13   15 am   BACKBONE|DICT|INTERRES
    25   15   20 1    
    26   15   16 1    
    27   16   17 1    
    28   16   48 1    
    29   16   49 1    
    30   17   18 1    
    31   17   19 1    
    32   17   26 1    
    33   19   25 1    
    34   19   20 1    
    35   19   21 1    
    36   20   50 1    
    37   20   51 1    
    38   21   22 1    
    39   21   52 1    
    40   21   53 1    
    41   22   23 1    
    42   22   54 1    
    43   22   55 1    
    44   23   24 1    
    45   23   56 1    
    46   23   72 1    
    47   24   25 1    
    48   24   57 1    
    49   24   58 1    
    50   25   59 1    
    51   25   60 1    
    52   26   27 2    
    53   26   28 am   BACKBONE|DICT|INTERRES
    54   28   29 1    
    55   28   61 1    
    56   29   30 1    
    57   29   62 1    
    58   29   63 1    
    59   30   31 1    
    60   30   32 1    
    61   30   33 1    
    62   32   64 1    
    63   32   65 1    
    64   32   66 1    
    65   33   34 1    
    66   34   39 ar   
    67   34   35 ar   
    68   35   36 ar   
    69   35   67 1    
    70   36   37 ar   
    71   36   68 1    
    72   37   38 ar   
    73   37   69 1    
    74   38   39 ar   
    75   38   70 1    
    76   39   71 1    
@<TRIPOS>SUBSTRUCTURE
     1 UNK         1 GROUP             0       ****    0 ROOT    
