@<TRIPOS>MOLECULE
ZINC36286336_5559
74   79    1
SMALL
USER_CHARGES


@<TRIPOS>ATOM
      1 C1          1.6546   50.5525   20.1356 C.ar      1 UNK         0.0000 
      2 C2          1.8486   51.6782   20.9401 C.ar      1 UNK         0.0000 
      3 C3          1.2478   51.7401   22.2089 C.ar      1 UNK         0.0000 
      4 N4          0.4766   50.7105   22.6568 N.ar      1 UNK         0.0000 
      5 C5          0.2842   49.6267   21.8651 C.ar      1 UNK         0.0000 
      6 C6          0.8441   49.5048   20.5902 C.ar      1 UNK         0.0000 
      7 C7          0.5580   48.2968   19.7017 C.3       1 UNK         0.0000 
      8 F8          1.6308   47.5070   19.6714 F         1 UNK         0.0000 
      9 F9         -0.4786   47.5810   20.1493 F         1 UNK         0.0000 
     10 F10         0.2802   48.6939   18.4590 F         1 UNK         0.0000 
     11 N11         1.3201   52.8710   23.0328 N.pl3     1 UNK         0.0000 
     12 C12         2.0700   54.0916   22.7290 C.3       1 UNK         0.0000 
     13 C13         3.3709   54.2888   23.5236 C.3       1 UNK         0.0000 
     14 N14         3.1223   54.2248   25.0552 N.4       1 UNK         0.0000 
     15 C15         2.3576   52.8970   25.2771 C.3       1 UNK         0.0000 
     16 C16         1.0496   52.8582   24.4737 C.3       1 UNK         0.0000 
     17 C17         4.4452   54.4691   25.9087 C.3       1 UNK         0.0000 
     18 C18         5.2627   55.6965   25.4614 C.3       1 UNK         0.0000 
     19 C19         6.6766   55.5955   26.0051 C.3       1 UNK         0.0000 
     20 C20         6.9361   54.1069   25.8993 C.3       1 UNK         0.0000 
     21 C21         5.5630   53.4450   25.7759 C.3       1 UNK         0.0000 
     22 C22         4.1502   54.4967   27.4654 C.2       1 UNK         0.0000 
     23 O23         5.0687   54.4980   28.2903 O.2       1 UNK         0.0000 
     24 N24         2.8921   54.4392   27.8925 N.am      1 UNK         0.0000 
     25 C25         2.4629   54.1522   29.2574 C.3       1 UNK         0.0000 
     26 C26         1.0252   54.6663   29.4213 C.3       1 UNK         0.0000 
     27 H27         0.9768   55.7143   29.1179 H         1 UNK         0.0000 
     28 C28         0.5565   54.5557   30.8845 C.3       1 UNK         0.0000 
     29 C29         0.6504   53.0815   31.3508 C.3       1 UNK         0.0000 
     30 C30         2.0718   52.4835   31.1610 C.3       1 UNK         0.0000 
     31 C31         2.5149   52.6337   29.6868 C.3       1 UNK         0.0000 
     32 H32         3.5317   52.2546   29.5724 H         1 UNK         0.0000 
     33 C33         1.5359   51.7414   28.8737 C.3       1 UNK         0.0000 
     34 C34         0.0961   52.3316   28.9745 C.3       1 UNK         0.0000 
     35 C35         0.1086   53.8088   28.5118 C.3       1 UNK         0.0000 
     36 C36        -0.3386   52.2938   30.4710 C.3       1 UNK         0.0000 
     37 C37        -0.8820   51.5916   28.0236 C.2       1 UNK         0.0000 
     38 O38        -0.5487   51.3282   26.8720 O.2       1 UNK         0.0000 
     39 N39        -2.1082   51.2960   28.4491 N.am      1 UNK         0.0000 
     40 H40         2.1209   50.5010   19.1598 H         1 UNK         0.0000 
     41 H41         2.4573   52.4762   20.5510 H         1 UNK         0.0000 
     42 H42        -0.3458   48.8537   22.2786 H         1 UNK         0.0000 
     43 H43         1.3716   54.8977   22.9457 H         1 UNK         0.0000 
     44 H44         2.3067   54.1625   21.6769 H         1 UNK         0.0000 
     45 H45         3.6913   55.2964   23.3020 H         1 UNK         0.0000 
     46 H46         4.1336   53.5655   23.2401 H         1 UNK         0.0000 
     47 H47         3.0178   52.0969   24.9741 H         1 UNK         0.0000 
     48 H48         2.1073   52.8051   26.3125 H         1 UNK         0.0000 
     49 H49         0.4966   51.9636   24.7540 H         1 UNK         0.0000 
     50 H50         0.3956   53.6968   24.7162 H         1 UNK         0.0000 
     51 H51         5.4074   55.6970   24.3866 H         1 UNK         0.0000 
     52 H52         4.7476   56.6206   25.6817 H         1 UNK         0.0000 
     53 H53         7.3815   56.1915   25.4258 H         1 UNK         0.0000 
     54 H54         6.7053   55.9235   27.0443 H         1 UNK         0.0000 
     55 H55         7.5045   53.8872   24.9957 H         1 UNK         0.0000 
     56 H56         7.4930   53.7334   26.7623 H         1 UNK         0.0000 
     57 H57         5.4812   52.6093   26.4817 H         1 UNK         0.0000 
     58 H58         5.5139   53.0171   24.7792 H         1 UNK         0.0000 
     59 H59         2.1630   54.3939   27.2014 H         1 UNK         0.0000 
     60 H60         3.1008   54.7441   29.9197 H         1 UNK         0.0000 
     61 H61         1.1040   55.2277   31.5383 H         1 UNK         0.0000 
     62 H62        -0.4737   54.8992   30.9647 H         1 UNK         0.0000 
     63 H63         0.3490   53.0002   32.3985 H         1 UNK         0.0000 
     64 H64         2.0457   51.4360   31.4582 H         1 UNK         0.0000 
     65 H65         2.8209   52.8964   31.8212 H         1 UNK         0.0000 
     66 H66         1.5386   50.7330   29.2777 H         1 UNK         0.0000 
     67 H67         1.8838   51.5916   27.8606 H         1 UNK         0.0000 
     68 H68         0.4432   53.8554   27.4802 H         1 UNK         0.0000 
     69 H69        -0.8919   54.2263   28.5119 H         1 UNK         0.0000 
     70 H70        -1.2955   52.7645   30.5771 H         1 UNK         0.0000 
     71 H71        -0.4957   51.2969   30.8539 H         1 UNK         0.0000 
     72 H72        -2.3038   51.2757   29.4370 H         1 UNK         0.0000 
     73 H73        -2.6961   50.7660   27.8243 H         1 UNK         0.0000 
     74 H74         2.4870   54.9773   25.2775 H         1 UNK         0.0000 
@<TRIPOS>BOND
     1    1    6 ar   
     2    1    2 ar   
     3    1   40 1    
     4    2    3 ar   
     5    2   41 1    
     6    3    4 ar   
     7    3   11 1    
     8    4    5 ar   
     9    5    6 ar   
    10    5   42 1    
    11    6    7 1    
    12    7    8 1    
    13    7    9 1    
    14    7   10 1    
    15   11   16 1    
    16   11   12 1    
    17   12   13 1    
    18   12   43 1    
    19   12   44 1    
    20   13   14 1    
    21   13   45 1    
    22   13   46 1    
    23   14   15 1    
    24   14   17 1    
    25   14   74 1    
    26   15   16 1    
    27   15   47 1    
    28   15   48 1    
    29   16   49 1    
    30   16   50 1    
    31   17   21 1    
    32   17   18 1    
    33   17   22 1    
    34   18   19 1    
    35   18   51 1    
    36   18   52 1    
    37   19   20 1    
    38   19   53 1    
    39   19   54 1    
    40   20   21 1    
    41   20   55 1    
    42   20   56 1    
    43   21   57 1    
    44   21   58 1    
    45   22   23 2    
    46   22   24 am   BACKBONE|DICT|INTERRES
    47   24   25 1    
    48   24   59 1    
    49   25   31 1    
    50   25   26 1    
    51   25   60 1    
    52   26   27 1    
    53   26   35 1    
    54   26   28 1    
    55   28   29 1    
    56   28   61 1    
    57   28   62 1    
    58   29   36 1    
    59   29   30 1    
    60   29   63 1    
    61   30   31 1    
    62   30   64 1    
    63   30   65 1    
    64   31   32 1    
    65   31   33 1    
    66   33   34 1    
    67   33   66 1    
    68   33   67 1    
    69   34   35 1    
    70   34   36 1    
    71   34   37 1    
    72   35   68 1    
    73   35   69 1    
    74   36   70 1    
    75   36   71 1    
    76   37   38 2    
    77   37   39 am   BACKBONE|DICT|INTERRES
    78   39   72 1    
    79   39   73 1    
@<TRIPOS>SUBSTRUCTURE
     1 UNK         1 GROUP             0       ****    0 ROOT    
