ZINC35056988_536
                    3D
 Schrodinger Suite 2024-2.
 59 62  0  0  1  0            999 V2000
   -4.7454   51.3172   25.5528 C   0  0  0  0  0  0
   -4.0527   50.2518   24.6820 C   0  0  1  0  0  0
   -4.0776   49.3068   25.2223 H   0  0  0  0  0  0
   -4.8071   50.0773   23.3341 C   0  0  0  0  0  0
   -5.9201   49.5033   23.3837 O   0  0  0  0  0  0
   -4.2800   50.4962   22.2759 O   0  5  0  0  0  0
   -2.6968   50.6873   24.4914 O   0  0  0  0  0  0
   -1.7509   49.7732   23.9158 C   0  0  2  0  0  0
   -2.2535   49.1435   23.1807 H   0  0  0  0  0  0
   -1.0416   48.8706   24.9646 C   0  0  1  0  0  0
   -0.3531   48.2245   24.4118 H   0  0  0  0  0  0
   -0.0993   49.6952   25.8883 C   0  0  1  0  0  0
    0.5323   49.0251   26.4790 H   0  0  0  0  0  0
    0.7888   50.4576   25.1168 O   0  0  0  0  0  0
    0.1706   51.3486   24.1972 C   0  0  2  0  0  0
   -0.4796   52.0697   24.6974 H   0  0  0  0  0  0
   -0.6623   50.5656   23.1869 C   0  0  2  0  0  0
   -0.0210   49.8324   22.6953 H   0  0  0  0  0  0
   -1.1929   51.4925   22.2335 O   0  0  0  0  0  0
   -0.1688   52.1587   21.5271 C   0  0  1  0  0  0
   -0.6611   52.8885   20.8883 H   0  0  0  0  0  0
    0.6620   52.8966   22.4057 O   0  0  0  0  0  0
    1.2602   52.1044   23.4347 C   0  0  0  0  0  0
    0.6289   51.2211   20.5891 C   0  0  0  0  0  0
    1.9500   51.5372   20.2678 C   0  0  0  0  0  0
    2.7038   50.6573   19.5086 C   0  0  0  0  0  0
    2.1354   49.4721   19.0528 C   0  0  0  0  0  0
    0.8044   49.1714   19.3191 C   0  0  0  0  0  0
    0.0455   50.0542   20.0808 C   0  0  0  0  0  0
   -0.8406   50.5009   26.7694 O   0  0  0  0  0  0
   -0.2093   51.1644   27.8171 C   0  0  0  0  0  0
    1.1826   51.2974   27.9693 C   0  0  0  0  0  0
    1.7267   51.9782   29.0556 C   0  0  0  0  0  0
    0.8838   52.4962   30.0305 C   0  0  0  0  0  0
   -0.4921   52.3374   29.9201 C   0  0  0  0  0  0
   -1.0348   51.6967   28.8080 C   0  0  0  0  0  0
   -1.8982   47.9380   25.6817 N   0  0  0  0  0  0
   -2.4101   46.7824   25.2419 C   0  0  0  0  0  0
   -2.2218   46.3239   24.1153 O   0  0  0  0  0  0
   -3.2522   46.0095   26.2494 C   0  0  0  0  0  0
   -5.7836   51.0554   25.7643 H   0  0  0  0  0  0
   -4.2336   51.4232   26.5102 H   0  0  0  0  0  0
   -4.7377   52.2968   25.0712 H   0  0  0  0  0  0
    1.8069   52.7594   24.1132 H   0  0  0  0  0  0
    2.0025   51.4282   23.0089 H   0  0  0  0  0  0
    2.4016   52.4495   20.6265 H   0  0  0  0  0  0
    3.7263   50.9021   19.2819 H   0  0  0  0  0  0
    2.7402   48.7858   18.4812 H   0  0  0  0  0  0
    0.3670   48.2569   18.9485 H   0  0  0  0  0  0
   -0.9840   49.8143   20.3059 H   0  0  0  0  0  0
    1.8793   50.8622   27.2818 H   0  0  0  0  0  0
    2.7973   52.0780   29.1481 H   0  0  0  0  0  0
    1.2978   52.9948   30.8937 H   0  0  0  0  0  0
   -1.1216   52.6928   30.7162 H   0  0  0  0  0  0
   -2.1039   51.5633   28.7313 H   0  0  0  0  0  0
   -1.9536   48.1073   26.6879 H   0  0  0  0  0  0
   -2.6726   45.1953   26.6875 H   0  0  0  0  0  0
   -3.5823   46.6596   27.0631 H   0  0  0  0  0  0
   -4.1419   45.5991   25.7714 H   0  0  0  0  0  0
  1  2  1  0  0  0
  1 41  1  0  0  0
  1 42  1  0  0  0
  1 43  1  0  0  0
  2  3  1  0  0  0
  2  4  1  0  0  0
  2  7  1  0  0  0
  4  5  2  0  0  0
  4  6  1  0  0  0
  7  8  1  0  0  0
  8  9  1  0  0  0
  8 17  1  0  0  0
  8 10  1  0  0  0
 10 11  1  0  0  0
 10 12  1  0  0  0
 10 37  1  0  0  0
 12 13  1  0  0  0
 12 14  1  0  0  0
 12 30  1  0  0  0
 14 15  1  0  0  0
 15 16  1  0  0  0
 15 23  1  0  0  0
 15 17  1  0  0  0
 17 18  1  0  0  0
 17 19  1  0  0  0
 19 20  1  0  0  0
 20 21  1  0  0  0
 20 22  1  0  0  0
 20 24  1  0  0  0
 22 23  1  0  0  0
 23 44  1  0  0  0
 23 45  1  0  0  0
 24 29  2  0  0  0
 24 25  1  0  0  0
 25 26  2  0  0  0
 25 46  1  0  0  0
 26 27  1  0  0  0
 26 47  1  0  0  0
 27 28  2  0  0  0
 27 48  1  0  0  0
 28 29  1  0  0  0
 28 49  1  0  0  0
 29 50  1  0  0  0
 30 31  1  0  0  0
 31 36  2  0  0  0
 31 32  1  0  0  0
 32 33  2  0  0  0
 32 51  1  0  0  0
 33 34  1  0  0  0
 33 52  1  0  0  0
 34 35  2  0  0  0
 34 53  1  0  0  0
 35 36  1  0  0  0
 35 54  1  0  0  0
 36 55  1  0  0  0
 37 38  1  0  0  0
 37 56  1  0  0  0
 38 39  2  0  0  0
 38 40  1  0  0  0
 40 57  1  0  0  0
 40 58  1  0  0  0
 40 59  1  0  0  0
M  CHG  1   6  -1
M  END
> <i_i_glide_confnum>
1

> <i_i_glide_lignum>
537

> <i_i_glide_posenum>
139

> <i_i_glide_rotatable_bonds>
8

> <i_m_Source_File_Index>
5936

> <b_m_subgroup_collapsed>
0

> <r_i_docking_score>
-2.80533

> <r_i_glide_ecoul>
-6.45844

> <r_i_glide_eff_state_penalty>
0

> <r_i_glide_einternal>
0.565447

> <r_i_glide_emodel>
-37.6002

> <r_i_glide_energy>
-30.5655

> <r_i_glide_erotb>
0.578724

> <r_i_glide_esite>
-0.267153

> <r_i_glide_evdw>
-24.107

> <r_i_glide_gscore>
-2.80533

> <r_i_glide_hbond>
-0.16

> <r_i_glide_ligand_efficiency>
-0.0850099

> <r_i_glide_ligand_efficiency_ln>
-0.62389

> <r_i_glide_ligand_efficiency_sa>
-0.272672

> <r_i_glide_lipo>
-0.490553

> <r_i_glide_metal>
0

> <r_i_glide_rewards>
-0.292228

> <s_i_glide_gridfile>
wee1_glide-grid

> <s_m_Source_File>
wee1_decoys_glide_SP.sdf

> <s_m_Source_Path>
/Users/zhangxujun/Desktop

> <s_m_entry_id>
6211

> <s_m_entry_name>
wee1_decoys_glide_SP.5936

> <s_m_subgroup_title>
wee1_decoys_glide_SP

> <s_m_subgroupid>
wee1_decoys_glide_SP


$$$$
