@<TRIPOS>MOLECULE
ZINC35338802_2770
49   52    1
SMALL
USER_CHARGES


@<TRIPOS>ATOM
      1 C1          8.6596   55.8005   19.2755 C.ar      1 UNK         0.0000 
      2 C2          8.3020   55.6968   20.6177 C.ar      1 UNK         0.0000 
      3 C3          7.0011   55.3350   20.9781 C.ar      1 UNK         0.0000 
      4 C4          6.0432   55.1074   19.9759 C.ar      1 UNK         0.0000 
      5 C5          6.3977   55.2308   18.6281 C.ar      1 UNK         0.0000 
      6 C6          7.7103   55.5669   18.2831 C.ar      1 UNK         0.0000 
      7 S7          5.1861   54.9897   17.3279 S.o2      1 UNK         0.0000 
      8 O8          5.9449   54.2510   16.3129 O.2       1 UNK         0.0000 
      9 O9          4.0935   54.2535   17.9772 O.2       1 UNK         0.0000 
     10 N10         4.9398   56.7075   17.0243 N.2       1 UNK         0.0000 
     11 C11         3.7841   57.0756   16.6539 C.2       1 UNK         0.0000 
     12 N12         2.6502   56.3055   16.4497 N.pl3     1 UNK         0.0000 
     13 C13         1.4276   57.0658   16.2927 C.3       1 UNK         0.0000 
     14 C14         1.9988   58.3099   15.6376 C.3       1 UNK         0.0000 
     15 C15         3.3480   58.4964   16.3335 C.3       1 UNK         0.0000 
     16 N16         6.7048   55.2839   22.3467 N.am      1 UNK         0.0000 
     17 C17         5.8063   54.4967   22.9734 C.2       1 UNK         0.0000 
     18 O18         5.2031   53.5711   22.4312 O.2       1 UNK         0.0000 
     19 C19         5.5520   54.8609   24.4558 C.3       1 UNK         0.0000 
     20 H20         5.5144   55.9498   24.4856 H         1 UNK         0.0000 
     21 C21         4.2111   54.2983   24.9874 C.3       1 UNK         0.0000 
     22 C22         4.1864   54.3129   26.5110 C.ar      1 UNK         0.0000 
     23 C23         3.0033   54.0963   27.2272 C.ar      1 UNK         0.0000 
     24 C24         3.0046   54.0569   28.6223 C.ar      1 UNK         0.0000 
     25 C25         4.1992   54.2218   29.3187 C.ar      1 UNK         0.0000 
     26 C26         5.3835   54.4478   28.6276 C.ar      1 UNK         0.0000 
     27 C27         5.3799   54.4968   27.2378 C.ar      1 UNK         0.0000 
     28 O28         6.5870   54.8233   26.6497 O.3       1 UNK         0.0000 
     29 C29         6.7358   54.3789   25.3048 C.3       1 UNK         0.0000 
     30 Cl30        1.5321   53.8028   29.4848 Cl        1 UNK         0.0000 
     31 H31         9.6714   56.0664   19.0028 H         1 UNK         0.0000 
     32 H32         9.0513   55.8865   21.3735 H         1 UNK         0.0000 
     33 H33         5.0246   54.8583   20.2366 H         1 UNK         0.0000 
     34 H34         7.9909   55.6580   17.2427 H         1 UNK         0.0000 
     35 H35         0.6998   56.5321   15.6785 H         1 UNK         0.0000 
     36 H36         1.0201   57.2821   17.2817 H         1 UNK         0.0000 
     37 H37         1.3334   59.1664   15.7445 H         1 UNK         0.0000 
     38 H38         2.1385   58.1495   14.5668 H         1 UNK         0.0000 
     39 H39         3.2405   59.0714   17.2531 H         1 UNK         0.0000 
     40 H40         4.0673   59.0114   15.6975 H         1 UNK         0.0000 
     41 H41         7.2979   55.8520   22.9334 H         1 UNK         0.0000 
     42 H42         4.0107   53.2895   24.6363 H         1 UNK         0.0000 
     43 H43         3.3881   54.9292   24.6474 H         1 UNK         0.0000 
     44 H44         2.0725   53.9476   26.6957 H         1 UNK         0.0000 
     45 H45         4.2124   54.1860   30.3971 H         1 UNK         0.0000 
     46 H46         6.3042   54.5920   29.1718 H         1 UNK         0.0000 
     47 H47         7.6821   54.7729   24.9362 H         1 UNK         0.0000 
     48 H48         6.7896   53.2960   25.3141 H         1 UNK         0.0000 
     49 H49         2.4981   55.3491   16.7465 H         1 UNK         0.0000 
@<TRIPOS>BOND
     1    1    6 ar   
     2    1    2 ar   
     3    1   31 1    
     4    2    3 ar   
     5    2   32 1    
     6    3    4 ar   
     7    3   16 1    
     8    4    5 ar   
     9    4   33 1    
    10    5    6 ar   
    11    5    7 1    
    12    6   34 1    
    13    7    8 2    
    14    7    9 2    
    15    7   10 1    
    16   10   11 2    
    17   11   15 1    
    18   11   12 1    
    19   12   13 1    
    20   12   49 1    
    21   13   14 1    
    22   13   35 1    
    23   13   36 1    
    24   14   15 1    
    25   14   37 1    
    26   14   38 1    
    27   15   39 1    
    28   15   40 1    
    29   16   17 am   BACKBONE|DICT|INTERRES
    30   16   41 1    
    31   17   18 2    
    32   17   19 1    
    33   19   20 1    
    34   19   29 1    
    35   19   21 1    
    36   21   22 1    
    37   21   42 1    
    38   21   43 1    
    39   22   27 ar   
    40   22   23 ar   
    41   23   24 ar   
    42   23   44 1    
    43   24   25 ar   
    44   24   30 1    
    45   25   26 ar   
    46   25   45 1    
    47   26   27 ar   
    48   26   46 1    
    49   27   28 1    
    50   28   29 1    
    51   29   47 1    
    52   29   48 1    
@<TRIPOS>SUBSTRUCTURE
     1 UNK         1 GROUP             0       ****    0 ROOT    
