@<TRIPOS>MOLECULE
ZINC13204480_1987
57   59    1
SMALL
USER_CHARGES


@<TRIPOS>ATOM
      1 C1          0.9226   51.7951   24.2651 C.3       1 UNK         0.0000 
      2 C2         -0.3758   50.9625   24.2073 C.3       1 UNK         0.0000 
      3 H3         -0.5484   50.7254   23.1566 H         1 UNK         0.0000 
      4 C4         -1.5895   51.7810   24.7023 C.3       1 UNK         0.0000 
      5 C5         -2.8998   50.9948   24.5328 C.3       1 UNK         0.0000 
      6 C6         -2.8180   49.6386   25.2575 C.3       1 UNK         0.0000 
      7 C7         -1.5927   48.7782   24.8467 C.3       1 UNK         0.0000 
      8 H8         -1.5280   47.9637   25.5746 H         1 UNK         0.0000 
      9 C9         -0.2643   49.5963   24.9589 C.3       1 UNK         0.0000 
     10 H10         0.5182   49.0262   24.4529 H         1 UNK         0.0000 
     11 C11         0.1652   49.7228   26.4384 C.3       1 UNK         0.0000 
     12 N12        -1.7486   48.1952   23.5063 N.am      1 UNK         0.0000 
     13 C13        -2.0906   46.9215   23.2399 C.2       1 UNK         0.0000 
     14 O14        -2.3528   46.0970   24.1179 O.2       1 UNK         0.0000 
     15 N15        -2.0941   46.6833   21.9105 N.am      1 UNK         0.0000 
     16 C16        -2.2990   45.5034   21.2817 C.2       1 UNK         0.0000 
     17 O17        -2.4924   44.4216   21.8439 O.2       1 UNK         0.0000 
     18 C18        -2.2629   45.5811   19.7466 C.3       1 UNK         0.0000 
     19 S19        -2.8400   44.0792   18.8697 S.3       1 UNK         0.0000 
     20 C20        -1.2999   43.2427   18.6270 C.ar      1 UNK         0.0000 
     21 N21        -0.2868   43.3155   19.4579 N.2       1 UNK         0.0000 
     22 N22         0.7461   42.5671   18.9245 N.2       1 UNK         0.0000 
     23 C23         0.3391   42.0840   17.7740 C.ar      1 UNK         0.0000 
     24 N24        -0.9915   42.4198   17.5554 N.pl3     1 UNK         0.0000 
     25 C25        -1.8789   41.9977   16.4551 C.3       1 UNK         0.0000 
     26 C26        -2.9324   40.9544   16.8749 C.2       1 UNK         0.0000 
     27 O27        -3.2955   40.9013   18.0693 O.co2     1 UNK         0.0000 
     28 C28         1.2386   41.2638   16.8984 C.ar      1 UNK         0.0000 
     29 C29         2.0853   40.3084   17.4809 C.ar      1 UNK         0.0000 
     30 C30         2.9562   39.5619   16.6896 C.ar      1 UNK         0.0000 
     31 C31         2.9931   39.7680   15.3131 C.ar      1 UNK         0.0000 
     32 C32         2.1676   40.7257   14.7232 C.ar      1 UNK         0.0000 
     33 C33         1.3000   41.4789   15.5160 C.ar      1 UNK         0.0000 
     34 Cl34        4.0727   38.8414   14.3331 Cl        1 UNK         0.0000 
     35 H35         1.1295   52.1640   25.2713 H         1 UNK         0.0000 
     36 H36         1.7840   51.2104   23.9394 H         1 UNK         0.0000 
     37 H37         0.8610   52.6652   23.6103 H         1 UNK         0.0000 
     38 H38        -1.4483   52.0869   25.7405 H         1 UNK         0.0000 
     39 H39        -1.6515   52.7164   24.1470 H         1 UNK         0.0000 
     40 H40        -3.7361   51.5743   24.9253 H         1 UNK         0.0000 
     41 H41        -3.1093   50.8398   23.4735 H         1 UNK         0.0000 
     42 H42        -2.7877   49.8037   26.3356 H         1 UNK         0.0000 
     43 H43        -3.7338   49.0717   25.0865 H         1 UNK         0.0000 
     44 H44        -0.5806   50.2386   27.0423 H         1 UNK         0.0000 
     45 H45         1.1044   50.2566   26.5520 H         1 UNK         0.0000 
     46 H46         0.3073   48.7351   26.8814 H         1 UNK         0.0000 
     47 H47        -1.8747   48.8727   22.7709 H         1 UNK         0.0000 
     48 H48        -1.9015   47.4724   21.3157 H         1 UNK         0.0000 
     49 H49        -2.9232   46.3919   19.4357 H         1 UNK         0.0000 
     50 H50        -1.2620   45.8522   19.4109 H         1 UNK         0.0000 
     51 H51        -2.3909   42.8765   16.0696 H         1 UNK         0.0000 
     52 H52        -1.2982   41.5799   15.6424 H         1 UNK         0.0000 
     53 H53         2.0751   40.1448   18.5509 H         1 UNK         0.0000 
     54 H54         3.6079   38.8274   17.1447 H         1 UNK         0.0000 
     55 H55         2.2087   40.8915   13.6564 H         1 UNK         0.0000 
     56 H56         0.6946   42.2433   15.0479 H         1 UNK         0.0000 
     57 O57        -3.4033   40.2065   15.9903 O.co2     1 UNK         0.0000 
@<TRIPOS>BOND
     1    1    2 1    
     2    1   35 1    
     3    1   36 1    
     4    1   37 1    
     5    2    3 1    
     6    2    9 1    
     7    2    4 1    
     8    4    5 1    
     9    4   38 1    
    10    4   39 1    
    11    5    6 1    
    12    5   40 1    
    13    5   41 1    
    14    6    7 1    
    15    6   42 1    
    16    6   43 1    
    17    7    8 1    
    18    7    9 1    
    19    7   12 1    
    20    9   10 1    
    21    9   11 1    
    22   11   44 1    
    23   11   45 1    
    24   11   46 1    
    25   12   13 am   BACKBONE|DICT|INTERRES
    26   12   47 1    
    27   13   14 2    
    28   13   15 am   BACKBONE|DICT|INTERRES
    29   15   16 am   BACKBONE|DICT|INTERRES
    30   15   48 1    
    31   16   17 2    
    32   16   18 1    
    33   18   19 1    
    34   18   49 1    
    35   18   50 1    
    36   19   20 1    
    37   20   24 ar   
    38   20   21 ar   
    39   21   22 ar   
    40   22   23 ar   
    41   23   24 ar   
    42   23   28 1    
    43   24   25 1    
    44   25   26 1    
    45   25   51 1    
    46   25   52 1    
    47   26   27 2    
    48   26   57 1    
    49   28   33 ar   
    50   28   29 ar   
    51   29   30 ar   
    52   29   53 1    
    53   30   31 ar   
    54   30   54 1    
    55   31   32 ar   
    56   31   34 1    
    57   32   33 ar   
    58   32   55 1    
    59   33   56 1    
@<TRIPOS>SUBSTRUCTURE
     1 UNK         1 GROUP             0       ****    0 ROOT    
