@<TRIPOS>MOLECULE
ZINC39886749_2639
46   49    1
SMALL
USER_CHARGES


@<TRIPOS>ATOM
      1 C1         -1.4632   50.5817   21.0912 C.3       1 UNK         0.0000 
      2 C2         -1.2239   50.8026   22.6054 C.3       1 UNK         0.0000 
      3 C3         -2.5109   51.4439   23.1891 C.3       1 UNK         0.0000 
      4 C4         -1.0327   49.4316   23.2979 C.3       1 UNK         0.0000 
      5 C5          0.0456   51.6687   22.8094 C.ar      1 UNK         0.0000 
      6 C6          0.0104   52.8970   23.4817 C.ar      1 UNK         0.0000 
      7 C7          1.1607   53.6708   23.6129 C.ar      1 UNK         0.0000 
      8 C8          2.3959   53.2163   23.1401 C.ar      1 UNK         0.0000 
      9 C9          2.4316   51.9815   22.4772 C.ar      1 UNK         0.0000 
     10 C10         1.2754   51.2260   22.3063 C.ar      1 UNK         0.0000 
     11 C11         3.6661   54.0617   23.4373 C.3       1 UNK         0.0000 
     12 H12         3.3919   55.0689   23.1233 H         1 UNK         0.0000 
     13 C13         3.9920   54.1084   24.9338 C.2       1 UNK         0.0000 
     14 C14         5.1661   54.5906   25.4999 C.2       1 UNK         0.0000 
     15 N15         5.2675   54.5924   26.8161 N.2       1 UNK         0.0000 
     16 C16         4.1776   54.1425   27.3826 C.2       1 UNK         0.0000 
     17 S17         3.9049   54.0354   29.1154 S.3       1 UNK         0.0000 
     18 S18         2.9395   53.6855   26.2661 S.3       1 UNK         0.0000 
     19 S19         6.4839   55.2955   24.5952 S.3       1 UNK         0.0000 
     20 C20         6.2807   54.3814   23.0157 C.3       1 UNK         0.0000 
     21 H21         7.0947   53.6539   23.0595 H         1 UNK         0.0000 
     22 C22         4.9852   53.6594   22.6659 C.3       1 UNK         0.0000 
     23 H23         5.1902   52.6003   22.8261 H         1 UNK         0.0000 
     24 C24         4.9111   53.8940   21.1519 C.2       1 UNK         0.0000 
     25 O25         4.2169   53.2013   20.4024 O.2       1 UNK         0.0000 
     26 N26         5.7449   54.9269   20.7930 N.am      1 UNK         0.0000 
     27 C27         6.5831   55.2668   21.8171 C.2       1 UNK         0.0000 
     28 O28         7.4952   56.0931   21.7974 O.2       1 UNK         0.0000 
     29 C29         5.8399   55.5034   19.5428 C.2       1 UNK         0.0000 
     30 O30         6.2829   56.6357   19.3365 O.2       1 UNK         0.0000 
     31 N31         5.4230   54.8055   18.4782 N.am      1 UNK         0.0000 
     32 H32        -2.3725   50.0055   20.9077 H         1 UNK         0.0000 
     33 H33        -0.6473   50.0335   20.6174 H         1 UNK         0.0000 
     34 H34        -1.5663   51.5320   20.5613 H         1 UNK         0.0000 
     35 H35        -2.4412   51.5822   24.2691 H         1 UNK         0.0000 
     36 H36        -2.7218   52.4155   22.7387 H         1 UNK         0.0000 
     37 H37        -3.3865   50.8171   23.0115 H         1 UNK         0.0000 
     38 H38        -0.8482   49.5516   24.3662 H         1 UNK         0.0000 
     39 H39        -1.9130   48.7962   23.1874 H         1 UNK         0.0000 
     40 H40        -0.1895   48.8795   22.8844 H         1 UNK         0.0000 
     41 H41        -0.9026   53.2882   23.9020 H         1 UNK         0.0000 
     42 H42         1.1058   54.6154   24.1346 H         1 UNK         0.0000 
     43 H43         3.3519   51.5753   22.0864 H         1 UNK         0.0000 
     44 H44         1.3497   50.2806   21.7904 H         1 UNK         0.0000 
     45 H45         4.9812   53.9010   18.6018 H         1 UNK         0.0000 
     46 H46         5.4973   55.2195   17.5609 H         1 UNK         0.0000 
@<TRIPOS>BOND
     1    1    2 1    
     2    1   32 1    
     3    1   33 1    
     4    1   34 1    
     5    2    3 1    
     6    2    4 1    
     7    2    5 1    
     8    3   35 1    
     9    3   36 1    
    10    3   37 1    
    11    4   38 1    
    12    4   39 1    
    13    4   40 1    
    14    5   10 ar   
    15    5    6 ar   
    16    6    7 ar   
    17    6   41 1    
    18    7    8 ar   
    19    7   42 1    
    20    8    9 ar   
    21    8   11 1    
    22    9   10 ar   
    23    9   43 1    
    24   10   44 1    
    25   11   12 1    
    26   11   22 1    
    27   11   13 1    
    28   13   18 1    
    29   13   14 2    
    30   14   15 1    
    31   14   19 1    
    32   15   16 2    
    33   16   17 1    
    34   16   18 1    
    35   19   20 1    
    36   20   21 1    
    37   20   27 1    
    38   20   22 1    
    39   22   23 1    
    40   22   24 1    
    41   24   25 2    
    42   24   26 am   BACKBONE|DICT|INTERRES
    43   26   27 am   BACKBONE|DICT|INTERRES
    44   26   29 am   BACKBONE|DICT|INTERRES
    45   27   28 2    
    46   29   30 2    
    47   29   31 am   BACKBONE|DICT|INTERRES
    48   31   45 1    
    49   31   46 1    
@<TRIPOS>SUBSTRUCTURE
     1 UNK         1 GROUP             0       ****    0 ROOT    
