@<TRIPOS>MOLECULE
ZINC10800983_822
64   68    1
SMALL
USER_CHARGES


@<TRIPOS>ATOM
      1 C1          0.8096   52.2019   31.9770 C.3       1 UNK         0.0000 
      2 O2          2.1721   52.0957   31.5687 O.3       1 UNK         0.0000 
      3 C3          2.5476   52.5819   30.3357 C.ar      1 UNK         0.0000 
      4 C4          1.6712   53.1350   29.3897 C.ar      1 UNK         0.0000 
      5 C5          2.1585   53.5862   28.1675 C.ar      1 UNK         0.0000 
      6 C6          3.5220   53.5036   27.8782 C.ar      1 UNK         0.0000 
      7 C7          4.3984   52.9554   28.8230 C.ar      1 UNK         0.0000 
      8 C8          3.9042   52.4992   30.0402 C.ar      1 UNK         0.0000 
      9 N9          3.9211   53.9183   26.5966 N.am      1 UNK         0.0000 
     10 C10         5.1565   54.2441   26.1517 C.2       1 UNK         0.0000 
     11 O11         6.1297   54.4319   26.8884 O.2       1 UNK         0.0000 
     12 C12         5.3023   54.3835   24.6478 C.ar      1 UNK         0.0000 
     13 C13         4.2450   54.0820   23.7665 C.ar      1 UNK         0.0000 
     14 C14         4.4140   54.1820   22.3907 C.ar      1 UNK         0.0000 
     15 C15         5.6264   54.6397   21.8766 C.ar      1 UNK         0.0000 
     16 C16         6.6990   54.9069   22.7347 C.ar      1 UNK         0.0000 
     17 C17         6.5309   54.7828   24.1100 C.ar      1 UNK         0.0000 
     18 N18         5.7237   54.8163   20.4922 N.am      1 UNK         0.0000 
     19 C19         6.3046   55.8680   19.8777 C.2       1 UNK         0.0000 
     20 O20         6.7044   56.8778   20.4713 O.2       1 UNK         0.0000 
     21 C21         6.3764   55.7925   18.3455 C.3       1 UNK         0.0000 
     22 O22         7.5627   56.4504   17.8862 O.3       1 UNK         0.0000 
     23 C23         8.7359   55.7820   17.7029 C.2       1 UNK         0.0000 
     24 O24         8.8873   54.5656   17.8549 O.2       1 UNK         0.0000 
     25 C25         9.9043   56.7230   17.3115 C.3       1 UNK         0.0000 
     26 C26        10.1021   57.7988   18.4300 C.3       1 UNK         0.0000 
     27 C27        11.2581   58.7601   18.0518 C.3       1 UNK         0.0000 
     28 C28        10.9202   59.4645   16.7106 C.3       1 UNK         0.0000 
     29 C29        10.7465   58.4062   15.5878 C.3       1 UNK         0.0000 
     30 C30         9.5891   57.4427   15.9612 C.3       1 UNK         0.0000 
     31 C31        12.0631   57.5988   15.4367 C.3       1 UNK         0.0000 
     32 C32        12.4003   56.8891   16.7735 C.3       1 UNK         0.0000 
     33 C33        12.5713   57.9514   17.8916 C.3       1 UNK         0.0000 
     34 C34        11.2425   55.9275   17.1434 C.3       1 UNK         0.0000 
     35 H35         0.7038   51.7243   32.9516 H         1 UNK         0.0000 
     36 H36         0.5062   53.2473   32.0831 H         1 UNK         0.0000 
     37 H37         0.1302   51.7019   31.2838 H         1 UNK         0.0000 
     38 H38         0.6144   53.2156   29.5835 H         1 UNK         0.0000 
     39 H39         1.4632   53.9933   27.4449 H         1 UNK         0.0000 
     40 H40         5.4549   52.8452   28.6196 H         1 UNK         0.0000 
     41 H41         4.5885   52.0856   30.7630 H         1 UNK         0.0000 
     42 H42         3.1854   53.9221   25.9088 H         1 UNK         0.0000 
     43 H43         3.2822   53.7466   24.1224 H         1 UNK         0.0000 
     44 H44         3.5864   53.9554   21.7334 H         1 UNK         0.0000 
     45 H45         7.6536   55.2315   22.3471 H         1 UNK         0.0000 
     46 H46         7.3736   55.0039   24.7483 H         1 UNK         0.0000 
     47 H47         5.2167   54.1580   19.9164 H         1 UNK         0.0000 
     48 H48         5.4910   56.2496   17.9008 H         1 UNK         0.0000 
     49 H49         6.3582   54.7443   18.0298 H         1 UNK         0.0000 
     50 H50        10.3051   57.3173   19.3895 H         1 UNK         0.0000 
     51 H51         9.1911   58.3805   18.5826 H         1 UNK         0.0000 
     52 H52        11.3826   59.5046   18.8384 H         1 UNK         0.0000 
     53 H53        11.7094   60.1683   16.4432 H         1 UNK         0.0000 
     54 H54        10.0103   60.0574   16.8119 H         1 UNK         0.0000 
     55 H55        10.5124   58.9048   14.6458 H         1 UNK         0.0000 
     56 H56         8.6575   58.0084   16.0253 H         1 UNK         0.0000 
     57 H57         9.4433   56.7133   15.1620 H         1 UNK         0.0000 
     58 H58        12.8798   58.2611   15.1433 H         1 UNK         0.0000 
     59 H59        11.9665   56.8661   14.6339 H         1 UNK         0.0000 
     60 H60        13.3250   56.3204   16.6656 H         1 UNK         0.0000 
     61 H61        12.8398   57.4723   18.8350 H         1 UNK         0.0000 
     62 H62        13.3985   58.6215   17.6494 H         1 UNK         0.0000 
     63 H63        11.1411   55.1647   16.3692 H         1 UNK         0.0000 
     64 H64        11.4877   55.3853   18.0580 H         1 UNK         0.0000 
@<TRIPOS>BOND
     1    1    2 1    
     2    1   35 1    
     3    1   36 1    
     4    1   37 1    
     5    2    3 1    
     6    3    8 ar   
     7    3    4 ar   
     8    4    5 ar   
     9    4   38 1    
    10    5    6 ar   
    11    5   39 1    
    12    6    7 ar   
    13    6    9 1    
    14    7    8 ar   
    15    7   40 1    
    16    8   41 1    
    17    9   10 am   BACKBONE|DICT|INTERRES
    18    9   42 1    
    19   10   11 2    
    20   10   12 1    
    21   12   17 ar   
    22   12   13 ar   
    23   13   14 ar   
    24   13   43 1    
    25   14   15 ar   
    26   14   44 1    
    27   15   16 ar   
    28   15   18 1    
    29   16   17 ar   
    30   16   45 1    
    31   17   46 1    
    32   18   19 am   BACKBONE|DICT|INTERRES
    33   18   47 1    
    34   19   20 2    
    35   19   21 1    
    36   21   22 1    
    37   21   48 1    
    38   21   49 1    
    39   22   23 1    
    40   23   24 2    
    41   23   25 1    
    42   25   30 1    
    43   25   34 1    
    44   25   26 1    
    45   26   27 1    
    46   26   50 1    
    47   26   51 1    
    48   27   33 1    
    49   27   28 1    
    50   27   52 1    
    51   28   29 1    
    52   28   53 1    
    53   28   54 1    
    54   29   30 1    
    55   29   31 1    
    56   29   55 1    
    57   30   56 1    
    58   30   57 1    
    59   31   32 1    
    60   31   58 1    
    61   31   59 1    
    62   32   33 1    
    63   32   34 1    
    64   32   60 1    
    65   33   61 1    
    66   33   62 1    
    67   34   63 1    
    68   34   64 1    
@<TRIPOS>SUBSTRUCTURE
     1 UNK         1 GROUP             0       ****    0 ROOT    
