@<TRIPOS>MOLECULE
ZINC36862334_1887
39   41    1
SMALL
USER_CHARGES


@<TRIPOS>ATOM
      1 C1          1.5867   54.0959   23.8123 C.3       1 UNK         0.0000 
      2 C2          3.0006   54.1097   24.3851 C.ar      1 UNK         0.0000 
      3 C3          4.0353   54.3245   23.4730 C.ar      1 UNK         0.0000 
      4 C4          5.3443   54.4962   23.9041 C.ar      1 UNK         0.0000 
      5 C5          5.6469   54.4291   25.2588 C.ar      1 UNK         0.0000 
      6 C6          4.6399   54.1817   26.1962 C.ar      1 UNK         0.0000 
      7 C7          3.3052   54.0046   25.7669 C.ar      1 UNK         0.0000 
      8 N8          2.3461   53.7779   26.7772 N.am      1 UNK         0.0000 
      9 C9          1.4049   52.8144   26.8154 C.2       1 UNK         0.0000 
     10 O10         1.1063   52.0963   25.8632 O.2       1 UNK         0.0000 
     11 C11         0.7655   52.6598   28.1080 C.ar      1 UNK         0.0000 
     12 C12         1.1311   53.2146   29.3459 C.ar      1 UNK         0.0000 
     13 C13         0.2970   52.7255   30.3506 C.ar      1 UNK         0.0000 
     14 C14        -0.5604   51.8597   29.7138 C.ar      1 UNK         0.0000 
     15 N15        -0.3165   51.8259   28.3643 N.pl3     1 UNK         0.0000 
     16 C16        -1.0765   51.0104   27.4178 C.3       1 UNK         0.0000 
     17 C17        -2.5896   50.9605   27.5299 C.3       1 UNK         0.0000 
     18 C18        -1.9493   51.7044   26.3893 C.3       1 UNK         0.0000 
     19 N19         0.3047   53.0089   31.6813 N.pl3     1 UNK         0.0000 
     20 C20         5.0360   54.0990   27.6687 C.3       1 UNK         0.0000 
     21 Br21        6.7044   54.8967   22.6368 Br        1 UNK         0.0000 
     22 H22         0.8621   54.4964   24.5167 H         1 UNK         0.0000 
     23 H23         1.5141   54.7294   22.9269 H         1 UNK         0.0000 
     24 H24         1.2923   53.0858   23.5285 H         1 UNK         0.0000 
     25 H25         3.8147   54.4128   22.4175 H         1 UNK         0.0000 
     26 H26         6.6690   54.5715   25.5741 H         1 UNK         0.0000 
     27 H27         2.5189   54.2572   27.6446 H         1 UNK         0.0000 
     28 H28         1.9418   53.9031   29.5196 H         1 UNK         0.0000 
     29 H29        -1.3457   51.2446   30.1327 H         1 UNK         0.0000 
     30 H30        -0.5530   50.0964   27.1333 H         1 UNK         0.0000 
     31 H31        -3.0711   49.9982   27.3459 H         1 UNK         0.0000 
     32 H32        -3.0834   51.5196   28.3254 H         1 UNK         0.0000 
     33 H33        -1.9743   52.7955   26.3798 H         1 UNK         0.0000 
     34 H34        -1.9860   51.2816   25.3853 H         1 UNK         0.0000 
     35 H35        -0.3346   52.5014   32.3038 H         1 UNK         0.0000 
     36 H36         0.6902   53.8662   32.0504 H         1 UNK         0.0000 
     37 H37         4.5227   54.8699   28.2443 H         1 UNK         0.0000 
     38 H38         4.7532   53.1284   28.0801 H         1 UNK         0.0000 
     39 H39         6.1090   54.2236   27.8215 H         1 UNK         0.0000 
@<TRIPOS>BOND
     1    1    2 1    
     2    1   22 1    
     3    1   23 1    
     4    1   24 1    
     5    2    7 ar   
     6    2    3 ar   
     7    3    4 ar   
     8    3   25 1    
     9    4    5 ar   
    10    4   21 1    
    11    5    6 ar   
    12    5   26 1    
    13    6    7 ar   
    14    6   20 1    
    15    7    8 1    
    16    8    9 am   BACKBONE|DICT|INTERRES
    17    8   27 1    
    18    9   10 2    
    19    9   11 1    
    20   11   15 ar   
    21   11   12 ar   
    22   12   13 ar   
    23   12   28 1    
    24   13   14 ar   
    25   13   19 1    
    26   14   15 ar   
    27   14   29 1    
    28   15   16 1    
    29   16   18 1    
    30   16   17 1    
    31   16   30 1    
    32   17   18 1    
    33   17   31 1    
    34   17   32 1    
    35   18   33 1    
    36   18   34 1    
    37   19   35 1    
    38   19   36 1    
    39   20   37 1    
    40   20   38 1    
    41   20   39 1    
@<TRIPOS>SUBSTRUCTURE
     1 UNK         1 GROUP             0       ****    0 ROOT    
