@<TRIPOS>MOLECULE
ZINC38745962_3232
57   62    1
SMALL
USER_CHARGES


@<TRIPOS>ATOM
      1 C1          6.8913   49.3625   11.9780 C.3       1 UNK         0.0000 
      2 O2          7.9043   50.3501   12.1414 O.3       1 UNK         0.0000 
      3 C3          7.8240   51.2204   13.2118 C.ar      1 UNK         0.0000 
      4 C4          8.9172   52.0592   13.4262 C.ar      1 UNK         0.0000 
      5 C5          8.9342   52.9410   14.5058 C.ar      1 UNK         0.0000 
      6 C6          7.8549   52.9922   15.3957 C.ar      1 UNK         0.0000 
      7 C7          6.7531   52.1601   15.1711 C.ar      1 UNK         0.0000 
      8 C8          6.7279   51.2967   14.0817 C.ar      1 UNK         0.0000 
      9 C9          7.8701   53.8835   16.5770 C.2       1 UNK         0.0000 
     10 C10         7.2440   53.6711   17.7363 C.2       1 UNK         0.0000 
     11 C11         7.4464   54.9503   18.4958 C.3       1 UNK         0.0000 
     12 H12         8.0570   54.7821   19.3853 H         1 UNK         0.0000 
     13 N13         8.2340   55.7441   17.5898 N.2       1 UNK         0.0000 
     14 N14         8.4489   55.1035   16.5101 N.2       1 UNK         0.0000 
     15 C15         6.1157   55.6735   18.8795 C.3       1 UNK         0.0000 
     16 H16         6.3493   56.6396   19.3280 H         1 UNK         0.0000 
     17 N17         5.3810   54.8971   19.8868 N.3       1 UNK         0.0000 
     18 N18         4.3860   54.2263   19.1931 N.pl3     1 UNK         0.0000 
     19 C19         3.5559   53.1455   19.4093 C.ar      1 UNK         0.0000 
     20 N20         2.8988   52.8971   18.2911 N.2       1 UNK         0.0000 
     21 N21         3.1857   53.9057   17.3725 N.2       1 UNK         0.0000 
     22 C22         4.0941   54.6524   17.9378 C.ar      1 UNK         0.0000 
     23 S23         5.0313   56.0181   17.4402 S.3       1 UNK         0.0000 
     24 C24         3.5519   52.2561   20.6759 C.3       1 UNK         0.0000 
     25 C25         3.7629   53.1158   21.9593 C.ar      1 UNK         0.0000 
     26 C26         2.6686   53.6970   22.6211 C.ar      1 UNK         0.0000 
     27 C27         2.8355   54.3671   23.8287 C.ar      1 UNK         0.0000 
     28 C28         4.1078   54.4967   24.3758 C.ar      1 UNK         0.0000 
     29 C29         5.2175   53.9936   23.7071 C.ar      1 UNK         0.0000 
     30 C30         5.0408   53.2967   22.5157 C.ar      1 UNK         0.0000 
     31 C31         2.2539   51.4085   20.8555 C.ar      1 UNK         0.0000 
     32 C32         1.0061   51.8339   20.3654 C.ar      1 UNK         0.0000 
     33 C33        -0.1406   51.0712   20.5703 C.ar      1 UNK         0.0000 
     34 C34        -0.0581   49.8774   21.2805 C.ar      1 UNK         0.0000 
     35 C35         1.1612   49.4453   21.7916 C.ar      1 UNK         0.0000 
     36 C36         2.3044   50.2078   21.5797 C.ar      1 UNK         0.0000 
     37 O37         4.6629   51.3807   20.4817 O.3       1 UNK         0.0000 
     38 H38         7.1356   48.7321   11.1238 H         1 UNK         0.0000 
     39 H39         6.8195   48.7145   12.8539 H         1 UNK         0.0000 
     40 H40         5.9174   49.8150   11.7847 H         1 UNK         0.0000 
     41 H41         9.7656   52.0101   12.7590 H         1 UNK         0.0000 
     42 H42         9.7991   53.5697   14.6610 H         1 UNK         0.0000 
     43 H43         5.9040   52.1770   15.8411 H         1 UNK         0.0000 
     44 H44         5.8584   50.6707   13.9515 H         1 UNK         0.0000 
     45 H45         6.6654   52.8169   18.0625 H         1 UNK         0.0000 
     46 H46         5.9962   54.1829   20.2461 H         1 UNK         0.0000 
     47 H47         1.6706   53.6148   22.2188 H         1 UNK         0.0000 
     48 H48         1.9791   54.7840   24.3370 H         1 UNK         0.0000 
     49 H49         4.2371   55.0149   25.3146 H         1 UNK         0.0000 
     50 H50         6.2054   54.1067   24.1294 H         1 UNK         0.0000 
     51 H51         5.9044   52.8592   22.0451 H         1 UNK         0.0000 
     52 H52         0.9052   52.7746   19.8444 H         1 UNK         0.0000 
     53 H53        -1.0914   51.4088   20.1862 H         1 UNK         0.0000 
     54 H54        -0.9478   49.2878   21.4454 H         1 UNK         0.0000 
     55 H55         1.2251   48.5279   22.3581 H         1 UNK         0.0000 
     56 H56         3.2356   49.8654   21.9976 H         1 UNK         0.0000 
     57 H57         4.6666   51.0604   19.5583 H         1 UNK         0.0000 
@<TRIPOS>BOND
     1    1    2 1    
     2    1   38 1    
     3    1   39 1    
     4    1   40 1    
     5    2    3 1    
     6    3    8 ar   
     7    3    4 ar   
     8    4    5 ar   
     9    4   41 1    
    10    5    6 ar   
    11    5   42 1    
    12    6    7 ar   
    13    6    9 1    
    14    7    8 ar   
    15    7   43 1    
    16    8   44 1    
    17    9   14 1    
    18    9   10 2    
    19   10   11 1    
    20   10   45 1    
    21   11   12 1    
    22   11   13 1    
    23   11   15 1    
    24   13   14 2    
    25   15   16 1    
    26   15   23 1    
    27   15   17 1    
    28   17   18 1    
    29   17   46 1    
    30   18   22 ar   
    31   18   19 ar   
    32   19   20 ar   
    33   19   24 1    
    34   20   21 ar   
    35   21   22 ar   
    36   22   23 1    
    37   24   25 1    
    38   24   31 1    
    39   24   37 1    
    40   25   30 ar   
    41   25   26 ar   
    42   26   27 ar   
    43   26   47 1    
    44   27   28 ar   
    45   27   48 1    
    46   28   29 ar   
    47   28   49 1    
    48   29   30 ar   
    49   29   50 1    
    50   30   51 1    
    51   31   36 ar   
    52   31   32 ar   
    53   32   33 ar   
    54   32   52 1    
    55   33   34 ar   
    56   33   53 1    
    57   34   35 ar   
    58   34   54 1    
    59   35   36 ar   
    60   35   55 1    
    61   36   56 1    
    62   37   57 1    
@<TRIPOS>SUBSTRUCTURE
     1 UNK         1 GROUP             0       ****    0 ROOT    
