@<TRIPOS>MOLECULE
ZINC39548331_2321
57   61    1
SMALL
USER_CHARGES


@<TRIPOS>ATOM
      1 C1          2.4736   48.8419   19.1483 C.3       1 UNK         0.0000 
      2 C2          1.4651   49.8744   19.7161 C.3       1 UNK         0.0000 
      3 C3          1.8786   50.2212   21.1413 C.2       1 UNK         0.0000 
      4 O4          2.9661   50.6855   21.4911 O.2       1 UNK         0.0000 
      5 N5          0.8448   49.8405   21.9275 N.am      1 UNK         0.0000 
      6 C6         -0.1958   49.2963   21.2551 C.2       1 UNK         0.0000 
      7 O7         -1.3343   49.0817   21.6649 O.2       1 UNK         0.0000 
      8 N8          0.2175   49.2043   19.9871 N.am      1 UNK         0.0000 
      9 C9          0.8714   49.9473   23.4001 C.3       1 UNK         0.0000 
     10 C10         0.6643   51.3999   23.8735 C.2       1 UNK         0.0000 
     11 O11         0.2175   52.2768   23.1323 O.2       1 UNK         0.0000 
     12 N12         1.0342   51.6230   25.1427 N.am      1 UNK         0.0000 
     13 C13         1.1382   52.9193   25.8224 C.3       1 UNK         0.0000 
     14 H14         0.4816   53.6025   25.2813 H         1 UNK         0.0000 
     15 C15         0.6743   52.8734   27.3036 C.ar      1 UNK         0.0000 
     16 C16        -0.0157   51.7643   27.8233 C.ar      1 UNK         0.0000 
     17 C17        -0.4026   51.7286   29.1605 C.ar      1 UNK         0.0000 
     18 C18        -0.0956   52.7980   29.9969 C.ar      1 UNK         0.0000 
     19 C19         0.5611   53.9181   29.5011 C.ar      1 UNK         0.0000 
     20 C20         0.9282   53.9583   28.1592 C.ar      1 UNK         0.0000 
     21 C21         2.5456   53.4874   25.6196 C.2       1 UNK         0.0000 
     22 C22         3.5597   53.9194   26.4745 C.2       1 UNK         0.0000 
     23 C23         4.6391   54.3495   25.6518 C.ar      1 UNK         0.0000 
     24 C24         5.9109   54.8981   25.8609 C.ar      1 UNK         0.0000 
     25 C25         6.7060   55.1581   24.7445 C.ar      1 UNK         0.0000 
     26 C26         6.2896   54.8502   23.4493 C.ar      1 UNK         0.0000 
     27 C27         5.0240   54.3111   23.2108 C.ar      1 UNK         0.0000 
     28 C28         4.2122   54.0963   24.3298 C.ar      1 UNK         0.0000 
     29 O29         2.9388   53.6135   24.3149 O.3       1 UNK         0.0000 
     30 C30         1.3151   51.1491   18.8474 C.ar      1 UNK         0.0000 
     31 C31         0.0645   51.7555   18.6395 C.ar      1 UNK         0.0000 
     32 C32        -0.0474   52.9025   17.8569 C.ar      1 UNK         0.0000 
     33 C33         1.0894   53.4610   17.2826 C.ar      1 UNK         0.0000 
     34 C34         2.3369   52.8800   17.4830 C.ar      1 UNK         0.0000 
     35 C35         2.4493   51.7314   18.2612 C.ar      1 UNK         0.0000 
     36 F36         0.9769   54.5739   16.5253 F         1 UNK         0.0000 
     37 H37         3.4962   49.2150   19.1807 H         1 UNK         0.0000 
     38 H38         2.4682   47.8994   19.6992 H         1 UNK         0.0000 
     39 H39         2.2592   48.6084   18.1037 H         1 UNK         0.0000 
     40 H40        -0.1600   48.5301   19.3394 H         1 UNK         0.0000 
     41 H41         1.8329   49.5866   23.7655 H         1 UNK         0.0000 
     42 H42         0.1048   49.3156   23.8539 H         1 UNK         0.0000 
     43 H43         1.5044   50.8630   25.6093 H         1 UNK         0.0000 
     44 H44        -0.2703   50.9159   27.2025 H         1 UNK         0.0000 
     45 H45        -0.9568   50.8950   29.5541 H         1 UNK         0.0000 
     46 H46        -0.3947   52.7599   31.0379 H         1 UNK         0.0000 
     47 H47         0.7672   54.7565   30.1515 H         1 UNK         0.0000 
     48 H48         1.4134   54.8475   27.7852 H         1 UNK         0.0000 
     49 H49         3.5293   53.9133   27.5530 H         1 UNK         0.0000 
     50 H50         6.2647   55.1108   26.8590 H         1 UNK         0.0000 
     51 H51         7.6861   55.5882   24.8814 H         1 UNK         0.0000 
     52 H52         6.9557   55.0458   22.6219 H         1 UNK         0.0000 
     53 H53         4.6773   54.0848   22.2137 H         1 UNK         0.0000 
     54 H54        -0.8326   51.3484   19.0832 H         1 UNK         0.0000 
     55 H55        -1.0105   53.3629   17.6986 H         1 UNK         0.0000 
     56 H56         3.2161   53.3177   17.0358 H         1 UNK         0.0000 
     57 H57         3.4317   51.3024   18.4037 H         1 UNK         0.0000 
@<TRIPOS>BOND
     1    1    2 1    
     2    1   37 1    
     3    1   38 1    
     4    1   39 1    
     5    2    8 1    
     6    2    3 1    
     7    2   30 1    
     8    3    4 2    
     9    3    5 am   BACKBONE|DICT|INTERRES
    10    5    6 am   BACKBONE|DICT|INTERRES
    11    5    9 1    
    12    6    7 2    
    13    6    8 am   BACKBONE|DICT|INTERRES
    14    8   40 1    
    15    9   10 1    
    16    9   41 1    
    17    9   42 1    
    18   10   11 2    
    19   10   12 am   BACKBONE|DICT|INTERRES
    20   12   13 1    
    21   12   43 1    
    22   13   14 1    
    23   13   15 1    
    24   13   21 1    
    25   15   20 ar   
    26   15   16 ar   
    27   16   17 ar   
    28   16   44 1    
    29   17   18 ar   
    30   17   45 1    
    31   18   19 ar   
    32   18   46 1    
    33   19   20 ar   
    34   19   47 1    
    35   20   48 1    
    36   21   29 1    
    37   21   22 2    
    38   22   23 1    
    39   22   49 1    
    40   23   28 ar   
    41   23   24 ar   
    42   24   25 ar   
    43   24   50 1    
    44   25   26 ar   
    45   25   51 1    
    46   26   27 ar   
    47   26   52 1    
    48   27   28 ar   
    49   27   53 1    
    50   28   29 1    
    51   30   35 ar   
    52   30   31 ar   
    53   31   32 ar   
    54   31   54 1    
    55   32   33 ar   
    56   32   55 1    
    57   33   34 ar   
    58   33   36 1    
    59   34   35 ar   
    60   34   56 1    
    61   35   57 1    
@<TRIPOS>SUBSTRUCTURE
     1 UNK         1 GROUP             0       ****    0 ROOT    
