@<TRIPOS>MOLECULE
ZINC64774523_2028
56   58    1
SMALL
USER_CHARGES


@<TRIPOS>ATOM
      1 C1          6.7043   54.7974   25.4456 C.3       1 UNK         0.0000 
      2 C2          5.9689   54.6357   24.1302 C.ar      1 UNK         0.0000 
      3 C3          6.5607   55.0315   22.9354 C.ar      1 UNK         0.0000 
      4 C4          5.8894   54.8967   21.7191 C.ar      1 UNK         0.0000 
      5 C5          4.6103   54.2846   21.6877 C.ar      1 UNK         0.0000 
      6 C6          3.9949   53.9021   22.9073 C.ar      1 UNK         0.0000 
      7 C7          4.6875   54.0967   24.1111 C.ar      1 UNK         0.0000 
      8 C8          2.6351   53.3215   23.0301 C.ar      1 UNK         0.0000 
      9 C9          2.2682   52.0159   22.3507 C.ar      1 UNK         0.0000 
     10 O10         3.1143   51.4258   21.6813 O.2       1 UNK         0.0000 
     11 N11         1.0214   51.5622   22.5578 N.2       1 UNK         0.0000 
     12 C12         0.2325   52.1846   23.3577 C.ar      1 UNK         0.0000 
     13 N13         0.5053   53.2972   23.9857 N.ar      1 UNK         0.0000 
     14 N14         1.7291   53.8985   23.7809 N.ar      1 UNK         0.0000 
     15 S15        -1.3549   51.4075   23.6604 S.3       1 UNK         0.0000 
     16 C16        -1.1112   50.9200   25.4114 C.3       1 UNK         0.0000 
     17 H17        -0.2536   51.4577   25.8182 H         1 UNK         0.0000 
     18 C18        -0.7810   49.4117   25.4810 C.3       1 UNK         0.0000 
     19 C19        -2.2962   51.3854   26.2895 C.2       1 UNK         0.0000 
     20 O20        -2.6290   52.5720   26.2415 O.2       1 UNK         0.0000 
     21 N21        -2.8956   50.4966   27.1146 N.am      1 UNK         0.0000 
     22 C22        -3.9996   50.7728   27.9413 C.ar      1 UNK         0.0000 
     23 C23        -3.8434   50.4966   29.3030 C.ar      1 UNK         0.0000 
     24 C24        -4.8767   50.7544   30.2031 C.ar      1 UNK         0.0000 
     25 C25        -6.0770   51.2909   29.7480 C.ar      1 UNK         0.0000 
     26 C26        -6.2594   51.5346   28.3883 C.ar      1 UNK         0.0000 
     27 C27        -5.2365   51.2707   27.4697 C.ar      1 UNK         0.0000 
     28 C28        -5.5316   51.4854   25.9896 C.3       1 UNK         0.0000 
     29 F29        -7.0641   51.5782   30.6255 F         1 UNK         0.0000 
     30 N30         3.9143   54.0967   20.4731 N.am      1 UNK         0.0000 
     31 C31         4.3761   53.3860   19.4264 C.2       1 UNK         0.0000 
     32 O32         5.5029   52.8968   19.3715 O.2       1 UNK         0.0000 
     33 C33         3.4162   53.1919   18.2605 C.3       1 UNK         0.0000 
     34 C34         6.5573   55.5083   20.4897 C.3       1 UNK         0.0000 
     35 H35         7.7757   54.8968   25.2814 H         1 UNK         0.0000 
     36 H36         6.3374   55.6699   25.9869 H         1 UNK         0.0000 
     37 H37         6.5572   53.9176   26.0739 H         1 UNK         0.0000 
     38 H38         7.5310   55.4990   22.9550 H         1 UNK         0.0000 
     39 H39         4.2369   53.8055   25.0508 H         1 UNK         0.0000 
     40 H40        -0.4968   49.0969   26.4817 H         1 UNK         0.0000 
     41 H41        -1.6213   48.7958   25.1585 H         1 UNK         0.0000 
     42 H42         0.0657   49.1713   24.8361 H         1 UNK         0.0000 
     43 H43        -2.4069   49.6257   27.3189 H         1 UNK         0.0000 
     44 H44        -2.9089   50.0967   29.6748 H         1 UNK         0.0000 
     45 H45        -4.7337   50.5518   31.2552 H         1 UNK         0.0000 
     46 H46        -7.2073   51.9249   28.0490 H         1 UNK         0.0000 
     47 H47        -5.2689   52.4980   25.6843 H         1 UNK         0.0000 
     48 H48        -4.9862   50.7761   25.3675 H         1 UNK         0.0000 
     49 H49        -6.5877   51.3229   25.7745 H         1 UNK         0.0000 
     50 H50         2.9393   54.3756   20.4577 H         1 UNK         0.0000 
     51 H51         2.6233   53.9404   18.2625 H         1 UNK         0.0000 
     52 H52         3.9546   53.2601   17.3145 H         1 UNK         0.0000 
     53 H53         2.9628   52.2010   18.3219 H         1 UNK         0.0000 
     54 H54         5.8219   55.8792   19.7755 H         1 UNK         0.0000 
     55 H55         7.1648   56.3709   20.7646 H         1 UNK         0.0000 
     56 H56         7.2040   54.7855   19.9931 H         1 UNK         0.0000 
@<TRIPOS>BOND
     1    1    2 1    
     2    1   35 1    
     3    1   36 1    
     4    1   37 1    
     5    2    7 ar   
     6    2    3 ar   
     7    3    4 ar   
     8    3   38 1    
     9    4    5 ar   
    10    4   34 1    
    11    5    6 ar   
    12    5   30 1    
    13    6    7 ar   
    14    6    8 1    
    15    7   39 1    
    16    8   14 ar   
    17    8    9 ar   
    18    9   10 2    
    19    9   11 ar   
    20   11   12 ar   
    21   12   15 1    
    22   12   13 ar   
    23   13   14 ar   
    24   15   16 1    
    25   16   17 1    
    26   16   18 1    
    27   16   19 1    
    28   18   40 1    
    29   18   41 1    
    30   18   42 1    
    31   19   20 2    
    32   19   21 am   BACKBONE|DICT|INTERRES
    33   21   22 1    
    34   21   43 1    
    35   22   27 ar   
    36   22   23 ar   
    37   23   24 ar   
    38   23   44 1    
    39   24   25 ar   
    40   24   45 1    
    41   25   26 ar   
    42   25   29 1    
    43   26   27 ar   
    44   26   46 1    
    45   27   28 1    
    46   28   47 1    
    47   28   48 1    
    48   28   49 1    
    49   30   31 am   BACKBONE|DICT|INTERRES
    50   30   50 1    
    51   31   32 2    
    52   31   33 1    
    53   33   51 1    
    54   33   52 1    
    55   33   53 1    
    56   34   54 1    
    57   34   55 1    
    58   34   56 1    
@<TRIPOS>SUBSTRUCTURE
     1 UNK         1 GROUP             0       ****    0 ROOT    
