ZINC49504293_3286
                    3D
 Schrodinger Suite 2024-2.
 63 67  0  0  1  0            999 V2000
    1.1046   55.5986   30.4817 C   0  0  0  0  0  0
    1.9083   55.3398   29.3708 C   0  0  0  0  0  0
    1.8016   54.0226   28.9101 C   0  0  0  0  0  0
    0.5869   53.1472   29.8048 S   0  0  0  0  0  0
    0.3582   54.4933   30.8720 C   0  0  0  0  0  0
    2.3730   53.4579   27.7016 C   0  0  0  0  0  0
    1.6511   52.7382   27.0084 O   0  0  0  0  0  0
    3.6416   53.8480   27.3393 N   0  0  0  0  0  0
    4.5820   54.2219   28.4290 C   0  0  0  0  0  0
    5.9588   53.6372   28.0704 C   0  0  0  0  0  0
    6.4770   54.2617   26.7696 C   0  0  0  0  0  0
    5.4344   54.1634   25.6611 C   0  0  0  0  0  0
    4.0591   53.9860   25.9668 C   0  0  0  0  0  0
    3.1449   53.9946   24.8926 C   0  0  0  0  0  0
    3.5621   54.0969   23.5729 C   0  0  0  0  0  0
    4.9119   54.2369   23.2770 C   0  0  0  0  0  0
    5.8413   54.2679   24.3243 C   0  0  0  0  0  0
    5.2435   54.3676   21.9207 N   0  0  0  0  0  0
    6.2703   55.0679   21.3764 C   0  0  0  0  0  0
    7.1050   55.6975   22.0295 O   0  0  0  0  0  0
    6.2982   55.0798   19.8835 C   0  0  0  0  0  0
    6.8142   56.0152   19.2688 O   0  0  0  0  0  0
    5.7543   53.9997   19.2718 N   0  0  0  0  0  0
    5.5994   53.8420   17.8240 C   0  0  0  0  0  0
    4.2454   54.3683   17.3023 C   0  0  2  0  0  0
    3.4326   53.8917   17.8516 H   0  0  0  0  0  0
    4.0457   54.2181   15.7963 C   0  0  0  0  0  0
    3.9387   55.5435   15.3259 O   0  0  0  0  0  0
    3.8925   56.4621   16.3716 C   0  0  0  0  0  0
    4.1716   55.7587   17.5366 O   0  0  0  0  0  0
    2.4900   57.0711   16.4531 C   0  0  0  0  0  0
    2.1585   57.8208   15.1439 C   0  0  0  0  0  0
    3.2233   58.8904   14.8271 C   0  0  0  0  0  0
    4.6580   58.3218   14.8487 C   0  0  0  0  0  0
    4.9519   57.5431   16.1525 C   0  0  0  0  0  0
    1.0795   56.5556   30.9862 H   0  0  0  0  0  0
    2.5378   56.0901   28.9132 H   0  0  0  0  0  0
   -0.3241   54.4118   31.7065 H   0  0  0  0  0  0
    4.7021   55.2972   28.4248 H   0  0  0  0  0  0
    4.2818   53.8825   29.4221 H   0  0  0  0  0  0
    6.6665   53.8455   28.8759 H   0  0  0  0  0  0
    5.9031   52.5499   27.9897 H   0  0  0  0  0  0
    7.4173   53.7888   26.4782 H   0  0  0  0  0  0
    6.7022   55.3145   26.9421 H   0  0  0  0  0  0
    2.0794   53.9257   25.0459 H   0  0  0  0  0  0
    2.8222   54.0983   22.7849 H   0  0  0  0  0  0
    6.8940   54.3839   24.1122 H   0  0  0  0  0  0
    4.5527   54.0089   21.2818 H   0  0  0  0  0  0
    5.4084   53.2332   19.8267 H   0  0  0  0  0  0
    5.6898   52.7793   17.5929 H   0  0  0  0  0  0
    6.4208   54.3298   17.2920 H   0  0  0  0  0  0
    4.9040   53.7247   15.3384 H   0  0  0  0  0  0
    3.1400   53.6491   15.5857 H   0  0  0  0  0  0
    2.4854   57.7977   17.2641 H   0  0  0  0  0  0
    1.7619   56.2949   16.6862 H   0  0  0  0  0  0
    1.1779   58.2913   15.2244 H   0  0  0  0  0  0
    2.0878   57.1135   14.3165 H   0  0  0  0  0  0
    3.1492   59.6847   15.5727 H   0  0  0  0  0  0
    3.0184   59.3574   13.8633 H   0  0  0  0  0  0
    5.3765   59.1360   14.7367 H   0  0  0  0  0  0
    4.8056   57.6679   13.9875 H   0  0  0  0  0  0
    5.9427   57.0890   16.1391 H   0  0  0  0  0  0
    4.9193   58.2395   16.9939 H   0  0  0  0  0  0
  1  5  2  0  0  0
  1  2  1  0  0  0
  1 36  1  0  0  0
  2  3  2  0  0  0
  2 37  1  0  0  0
  3  4  1  0  0  0
  3  6  1  0  0  0
  4  5  1  0  0  0
  5 38  1  0  0  0
  6  7  2  0  0  0
  6  8  1  0  0  0
  8 13  1  0  0  0
  8  9  1  0  0  0
  9 10  1  0  0  0
  9 39  1  0  0  0
  9 40  1  0  0  0
 10 11  1  0  0  0
 10 41  1  0  0  0
 10 42  1  0  0  0
 11 12  1  0  0  0
 11 43  1  0  0  0
 11 44  1  0  0  0
 12 17  2  0  0  0
 12 13  1  0  0  0
 13 14  2  0  0  0
 14 15  1  0  0  0
 14 45  1  0  0  0
 15 16  2  0  0  0
 15 46  1  0  0  0
 16 17  1  0  0  0
 16 18  1  0  0  0
 17 47  1  0  0  0
 18 19  1  0  0  0
 18 48  1  0  0  0
 19 20  2  0  0  0
 19 21  1  0  0  0
 21 22  2  0  0  0
 21 23  1  0  0  0
 23 24  1  0  0  0
 23 49  1  0  0  0
 24 25  1  0  0  0
 24 50  1  0  0  0
 24 51  1  0  0  0
 25 26  1  0  0  0
 25 30  1  0  0  0
 25 27  1  0  0  0
 27 28  1  0  0  0
 27 52  1  0  0  0
 27 53  1  0  0  0
 28 29  1  0  0  0
 29 35  1  0  0  0
 29 30  1  0  0  0
 29 31  1  0  0  0
 31 32  1  0  0  0
 31 54  1  0  0  0
 31 55  1  0  0  0
 32 33  1  0  0  0
 32 56  1  0  0  0
 32 57  1  0  0  0
 33 34  1  0  0  0
 33 58  1  0  0  0
 33 59  1  0  0  0
 34 35  1  0  0  0
 34 60  1  0  0  0
 34 61  1  0  0  0
 35 62  1  0  0  0
 35 63  1  0  0  0
M  END
> <i_i_glide_confnum>
92

> <i_i_glide_lignum>
3287

> <i_i_glide_posenum>
282

> <i_i_glide_rotatable_bonds>
8

> <i_m_Source_File_Index>
5103

> <b_m_subgroup_collapsed>
0

> <r_i_docking_score>
-6.63856

> <r_i_glide_ecoul>
-1.93426

> <r_i_glide_eff_state_penalty>
0

> <r_i_glide_einternal>
2.52377

> <r_i_glide_emodel>
-68.4287

> <r_i_glide_energy>
-50.4396

> <r_i_glide_erotb>
0.607707

> <r_i_glide_esite>
-0.0170318

> <r_i_glide_evdw>
-48.5053

> <r_i_glide_gscore>
-6.63856

> <r_i_glide_hbond>
0

> <r_i_glide_ligand_efficiency>
-0.195252

> <r_i_glide_ligand_efficiency_ln>
-1.46664

> <r_i_glide_ligand_efficiency_sa>
-0.63254

> <r_i_glide_lipo>
-3.58473

> <r_i_glide_metal>
0

> <r_i_glide_rewards>
-0.929097

> <s_i_glide_gridfile>
wee1_glide-grid

> <s_m_Source_File>
wee1_decoys_glide_SP.sdf

> <s_m_Source_Path>
/Users/zhangxujun/Desktop

> <s_m_entry_id>
5378

> <s_m_entry_name>
wee1_decoys_glide_SP.5103

> <s_m_subgroup_title>
wee1_decoys_glide_SP

> <s_m_subgroupid>
wee1_decoys_glide_SP


$$$$
