ZINC39490907_5757
                    3D
 Schrodinger Suite 2024-2.
 77 79  0  0  1  0            999 V2000
   -4.7064   48.0997   28.8866 C   0  0  0  0  0  0
   -4.3768   48.2064   27.3856 C   0  0  0  0  0  0
   -5.0444   47.0775   26.5758 C   0  0  0  0  0  0
   -4.8984   49.9315   26.7465 S   0  0  0  0  0  0
   -6.3143   49.8631   26.3681 O   0  0  0  0  0  0
   -4.4949   50.9178   27.7570 O   0  0  0  0  0  0
   -3.8846   50.3131   25.1471 C   0  0  2  0  0  0
   -4.3266   49.4526   23.9598 C   0  0  0  0  0  0
   -3.2298   48.4844   23.8853 N   0  0  0  0  0  0
   -2.1313   48.8020   24.7107 C   0  0  0  0  0  0
   -1.0903   48.1545   24.8204 O   0  0  0  0  0  0
   -2.4629   49.9685   25.3134 N   0  0  0  0  0  0
   -1.5618   50.6173   26.2876 C   0  0  0  0  0  0
   -0.3991   51.5562   25.8005 C   0  0  0  0  0  0
    0.5404   50.7806   24.8248 C   0  0  0  0  0  0
    1.6752   51.6651   24.2592 C   0  0  0  0  0  0
    1.1406   52.8012   23.5111 N   0  0  0  0  0  0
    0.1672   53.5777   24.2807 C   0  0  0  0  0  0
   -0.9495   52.6671   24.8557 C   0  0  0  0  0  0
    2.4594   53.8197   22.8798 S   0  0  0  0  0  0
    2.8164   53.0197   21.2930 C   0  0  0  0  0  0
    0.3937   52.1727   27.0260 C   0  0  0  0  0  0
   -0.4933   52.9752   28.0135 C   0  0  0  0  0  0
    0.3511   53.7247   29.0665 C   0  0  0  0  0  0
    1.2618   52.7523   29.8478 C   0  0  0  0  0  0
    2.0518   51.8150   28.9107 C   0  0  0  0  0  0
    1.1063   51.1242   27.9076 C   0  0  0  0  0  0
   -3.2199   47.1657   22.7143 S   0  0  0  0  0  0
   -2.8752   45.9327   23.4300 O   0  0  0  0  0  0
   -4.4694   47.2398   21.9496 O   0  0  0  0  0  0
   -1.7713   47.5968   21.5557 C   0  0  0  0  0  0
   -1.5397   46.4380   20.5725 C   0  0  0  0  0  0
   -2.0455   48.9341   20.8427 C   0  0  0  0  0  0
   -4.1574   51.8117   24.8702 C   0  0  0  0  0  0
   -4.3981   47.1346   29.2909 H   0  0  0  0  0  0
   -5.7744   48.2261   29.0733 H   0  0  0  0  0  0
   -4.1723   48.8613   29.4583 H   0  0  0  0  0  0
   -3.2956   48.1529   27.2786 H   0  0  0  0  0  0
   -4.7652   46.0990   26.9693 H   0  0  0  0  0  0
   -6.1332   47.1493   26.6065 H   0  0  0  0  0  0
   -4.7461   47.0904   25.5295 H   0  0  0  0  0  0
   -5.2918   48.9698   24.1195 H   0  0  0  0  0  0
   -4.3794   50.0251   23.0313 H   0  0  0  0  0  0
   -2.1900   51.1635   26.9860 H   0  0  0  0  0  0
   -1.1170   49.8196   26.8815 H   0  0  0  0  0  0
    0.9772   49.9158   25.3234 H   0  0  0  0  0  0
    0.0006   50.3546   23.9786 H   0  0  0  0  0  0
    2.3069   52.0754   25.0480 H   0  0  0  0  0  0
    2.3064   51.0659   23.6050 H   0  0  0  0  0  0
    0.7221   54.0915   25.0611 H   0  0  0  0  0  0
   -0.2726   54.3676   23.6818 H   0  0  0  0  0  0
   -1.5054   52.2394   24.0219 H   0  0  0  0  0  0
   -1.6708   53.2923   25.3798 H   0  0  0  0  0  0
    3.5128   53.6278   20.7139 H   0  0  0  0  0  0
    3.2590   52.0346   21.4492 H   0  0  0  0  0  0
    1.9001   52.8968   20.7135 H   0  0  0  0  0  0
    1.1615   52.8468   26.6567 H   0  0  0  0  0  0
   -1.0883   53.6960   27.4651 H   0  0  0  0  0  0
   -1.2327   52.3327   28.4930 H   0  0  0  0  0  0
    0.9624   54.4825   28.5729 H   0  0  0  0  0  0
   -0.2992   54.2552   29.7619 H   0  0  0  0  0  0
    1.9473   53.3101   30.4874 H   0  0  0  0  0  0
    0.6453   52.1499   30.5174 H   0  0  0  0  0  0
    2.8067   52.3855   28.3701 H   0  0  0  0  0  0
    2.6000   51.0744   29.4870 H   0  0  0  0  0  0
    0.3654   50.4978   28.4012 H   0  0  0  0  0  0
    1.6883   50.4341   27.3054 H   0  0  0  0  0  0
   -0.8953   47.7032   22.1945 H   0  0  0  0  0  0
   -0.6977   46.6442   19.9105 H   0  0  0  0  0  0
   -1.3163   45.5127   21.1054 H   0  0  0  0  0  0
   -2.4191   46.2596   19.9522 H   0  0  0  0  0  0
   -1.2232   49.2014   20.1782 H   0  0  0  0  0  0
   -2.9562   48.8885   20.2440 H   0  0  0  0  0  0
   -2.1614   49.7487   21.5578 H   0  0  0  0  0  0
   -3.7019   52.1492   23.9398 H   0  0  0  0  0  0
   -5.2283   51.9998   24.7752 H   0  0  0  0  0  0
   -3.7954   52.4504   25.6767 H   0  0  0  0  0  0
  1  2  1  0  0  0
  1 35  1  0  0  0
  1 36  1  0  0  0
  1 37  1  0  0  0
  2  3  1  0  0  0
  2  4  1  0  0  0
  2 38  1  0  0  0
  3 39  1  0  0  0
  3 40  1  0  0  0
  3 41  1  0  0  0
  4  5  2  0  0  0
  4  6  2  0  0  0
  4  7  1  0  0  0
  7 12  1  0  0  0
  7  8  1  0  0  0
  7 34  1  0  0  0
  8  9  1  0  0  0
  8 42  1  0  0  0
  8 43  1  0  0  0
  9 10  1  0  0  0
  9 28  1  0  0  0
 10 11  2  0  0  0
 10 12  1  0  0  0
 12 13  1  0  0  0
 13 14  1  0  0  0
 13 44  1  0  0  0
 13 45  1  0  0  0
 14 19  1  0  0  0
 14 15  1  0  0  0
 14 22  1  0  0  0
 15 16  1  0  0  0
 15 46  1  0  0  0
 15 47  1  0  0  0
 16 17  1  0  0  0
 16 48  1  0  0  0
 16 49  1  0  0  0
 17 18  1  0  0  0
 17 20  1  0  0  0
 18 19  1  0  0  0
 18 50  1  0  0  0
 18 51  1  0  0  0
 19 52  1  0  0  0
 19 53  1  0  0  0
 20 21  1  0  0  0
 21 54  1  0  0  0
 21 55  1  0  0  0
 21 56  1  0  0  0
 22 27  1  0  0  0
 22 23  1  0  0  0
 22 57  1  0  0  0
 23 24  1  0  0  0
 23 58  1  0  0  0
 23 59  1  0  0  0
 24 25  1  0  0  0
 24 60  1  0  0  0
 24 61  1  0  0  0
 25 26  1  0  0  0
 25 62  1  0  0  0
 25 63  1  0  0  0
 26 27  1  0  0  0
 26 64  1  0  0  0
 26 65  1  0  0  0
 27 66  1  0  0  0
 27 67  1  0  0  0
 28 29  2  0  0  0
 28 30  2  0  0  0
 28 31  1  0  0  0
 31 32  1  0  0  0
 31 33  1  0  0  0
 31 68  1  0  0  0
 32 69  1  0  0  0
 32 70  1  0  0  0
 32 71  1  0  0  0
 33 72  1  0  0  0
 33 73  1  0  0  0
 33 74  1  0  0  0
 34 75  1  0  0  0
 34 76  1  0  0  0
 34 77  1  0  0  0
M  END
> <i_i_glide_confnum>
89

> <i_i_glide_lignum>
5758

> <i_i_glide_posenum>
381

> <i_i_glide_rotatable_bonds>
8

> <i_m_Source_File_Index>
4300

> <b_m_subgroup_collapsed>
0

> <r_i_docking_score>
-2.55946

> <r_i_glide_ecoul>
-2.03226

> <r_i_glide_eff_state_penalty>
0

> <r_i_glide_einternal>
2.87721

> <r_i_glide_emodel>
-30.6018

> <r_i_glide_energy>
-27.6756

> <r_i_glide_erotb>
0.35713

> <r_i_glide_esite>
-0.207478

> <r_i_glide_evdw>
-25.6433

> <r_i_glide_gscore>
-2.55946

> <r_i_glide_hbond>
0

> <r_i_glide_ligand_efficiency>
-0.0752783

> <r_i_glide_ligand_efficiency_ln>
-0.565457

> <r_i_glide_ligand_efficiency_sa>
-0.243872

> <r_i_glide_lipo>
-1.12211

> <r_i_glide_metal>
0

> <r_i_glide_rewards>
0

> <s_i_glide_gridfile>
wee1_glide-grid

> <s_m_Source_File>
wee1_decoys_glide_SP.sdf

> <s_m_Source_Path>
/Users/zhangxujun/Desktop

> <s_m_entry_id>
4575

> <s_m_entry_name>
wee1_decoys_glide_SP.4300

> <s_m_subgroup_title>
wee1_decoys_glide_SP

> <s_m_subgroupid>
wee1_decoys_glide_SP


$$$$
