@<TRIPOS>MOLECULE
ZINC59768902_857
66   68    1
SMALL
USER_CHARGES


@<TRIPOS>ATOM
      1 C1          1.6592   56.6513   29.4593 C.3       1 UNK         0.0000 
      2 C2          1.3615   55.3958   28.6254 C.3       1 UNK         0.0000 
      3 N3          1.7784   54.1510   29.3108 N.pl3     1 UNK         0.0000 
      4 C4          1.0867   53.7681   30.5689 C.3       1 UNK         0.0000 
      5 C5         -0.2631   53.0976   30.3018 C.3       1 UNK         0.0000 
      6 S6          2.3719   52.8493   28.2703 S.o2      1 UNK         0.0000 
      7 O7          2.5434   51.6544   29.1047 O.2       1 UNK         0.0000 
      8 O8          1.5513   52.8209   27.0535 O.2       1 UNK         0.0000 
      9 C9          4.0113   53.3817   27.8153 C.ar      1 UNK         0.0000 
     10 C10         5.0115   53.2875   28.7774 C.ar      1 UNK         0.0000 
     11 C11         6.3068   53.6969   28.4817 C.ar      1 UNK         0.0000 
     12 C12         6.6085   54.1936   27.2243 C.ar      1 UNK         0.0000 
     13 C13         5.6187   54.2906   26.2406 C.ar      1 UNK         0.0000 
     14 C14         4.3051   53.8930   26.5469 C.ar      1 UNK         0.0000 
     15 C15         6.0011   54.8304   24.8933 C.2       1 UNK         0.0000 
     16 O16         6.8709   55.6966   24.8257 O.2       1 UNK         0.0000 
     17 N17         5.3700   54.2718   23.8399 N.am      1 UNK         0.0000 
     18 C18         5.5653   54.4966   22.4617 C.ar      1 UNK         0.0000 
     19 C19         6.7043   55.1395   21.9440 C.ar      1 UNK         0.0000 
     20 C20         6.8687   55.2967   20.5710 C.ar      1 UNK         0.0000 
     21 C21         5.9116   54.7942   19.6797 C.ar      1 UNK         0.0000 
     22 C22         4.7551   54.1976   20.1946 C.ar      1 UNK         0.0000 
     23 C23         4.5740   54.0425   21.5722 C.ar      1 UNK         0.0000 
     24 C24         3.2848   53.3927   22.0648 C.3       1 UNK         0.0000 
     25 C25         6.1263   54.8471   18.1894 C.2       1 UNK         0.0000 
     26 O26         5.1815   54.9826   17.4118 O.2       1 UNK         0.0000 
     27 N27         7.3989   54.6781   17.7916 N.am      1 UNK         0.0000 
     28 C28         7.8439   54.5107   16.4070 C.3       1 UNK         0.0000 
     29 C29         9.3616   54.7928   16.2921 C.3       1 UNK         0.0000 
     30 C30        10.2171   53.7719   17.0792 C.3       1 UNK         0.0000 
     31 C31         9.9117   52.3236   16.6414 C.3       1 UNK         0.0000 
     32 C32         8.4013   52.0064   16.6527 C.3       1 UNK         0.0000 
     33 C33         7.5943   53.0735   15.8787 C.3       1 UNK         0.0000 
     34 H34         1.4851   57.5559   28.8812 H         1 UNK         0.0000 
     35 H35         2.7042   56.6783   29.7651 H         1 UNK         0.0000 
     36 H36         1.0368   56.7149   30.3517 H         1 UNK         0.0000 
     37 H37         0.3174   55.2977   28.3190 H         1 UNK         0.0000 
     38 H38         1.9334   55.4673   27.7004 H         1 UNK         0.0000 
     39 H39         1.7163   53.0605   31.1100 H         1 UNK         0.0000 
     40 H40         0.9595   54.6459   31.2018 H         1 UNK         0.0000 
     41 H41        -0.7786   52.8942   31.2417 H         1 UNK         0.0000 
     42 H42        -0.8955   53.7402   29.6940 H         1 UNK         0.0000 
     43 H43        -0.1487   52.1453   29.7819 H         1 UNK         0.0000 
     44 H44         4.7725   52.8899   29.7516 H         1 UNK         0.0000 
     45 H45         7.0869   53.6454   29.2270 H         1 UNK         0.0000 
     46 H46         7.6249   54.4966   27.0250 H         1 UNK         0.0000 
     47 H47         3.5147   53.9707   25.8130 H         1 UNK         0.0000 
     48 H48         4.6448   53.6066   24.0556 H         1 UNK         0.0000 
     49 H49         7.5018   55.4956   22.5771 H         1 UNK         0.0000 
     50 H50         7.7693   55.7732   20.2092 H         1 UNK         0.0000 
     51 H51         3.9977   53.8257   19.5163 H         1 UNK         0.0000 
     52 H52         2.5451   53.2921   21.2688 H         1 UNK         0.0000 
     53 H53         3.4877   52.4067   22.4812 H         1 UNK         0.0000 
     54 H54         2.8251   54.0011   22.8443 H         1 UNK         0.0000 
     55 H55         8.0600   54.3849   18.4933 H         1 UNK         0.0000 
     56 H56         7.3126   55.2374   15.7869 H         1 UNK         0.0000 
     57 H57         9.6565   54.7805   15.2416 H         1 UNK         0.0000 
     58 H58         9.5784   55.8023   16.6453 H         1 UNK         0.0000 
     59 H59        11.2775   53.9848   16.9374 H         1 UNK         0.0000 
     60 H60        10.0334   53.8769   18.1493 H         1 UNK         0.0000 
     61 H61        10.3006   52.1665   15.6341 H         1 UNK         0.0000 
     62 H62        10.4445   51.6191   17.2806 H         1 UNK         0.0000 
     63 H63         8.2310   51.0214   16.2170 H         1 UNK         0.0000 
     64 H64         8.0412   51.9449   17.6811 H         1 UNK         0.0000 
     65 H65         6.5308   52.8359   15.9326 H         1 UNK         0.0000 
     66 H66         7.8496   53.0246   14.8192 H         1 UNK         0.0000 
@<TRIPOS>BOND
     1    1    2 1    
     2    1   34 1    
     3    1   35 1    
     4    1   36 1    
     5    2    3 1    
     6    2   37 1    
     7    2   38 1    
     8    3    4 1    
     9    3    6 1    
    10    4    5 1    
    11    4   39 1    
    12    4   40 1    
    13    5   41 1    
    14    5   42 1    
    15    5   43 1    
    16    6    7 2    
    17    6    8 2    
    18    6    9 1    
    19    9   14 ar   
    20    9   10 ar   
    21   10   11 ar   
    22   10   44 1    
    23   11   12 ar   
    24   11   45 1    
    25   12   13 ar   
    26   12   46 1    
    27   13   14 ar   
    28   13   15 1    
    29   14   47 1    
    30   15   16 2    
    31   15   17 am   BACKBONE|DICT|INTERRES
    32   17   18 1    
    33   17   48 1    
    34   18   23 ar   
    35   18   19 ar   
    36   19   20 ar   
    37   19   49 1    
    38   20   21 ar   
    39   20   50 1    
    40   21   22 ar   
    41   21   25 1    
    42   22   23 ar   
    43   22   51 1    
    44   23   24 1    
    45   24   52 1    
    46   24   53 1    
    47   24   54 1    
    48   25   26 2    
    49   25   27 am   BACKBONE|DICT|INTERRES
    50   27   28 1    
    51   27   55 1    
    52   28   33 1    
    53   28   29 1    
    54   28   56 1    
    55   29   30 1    
    56   29   57 1    
    57   29   58 1    
    58   30   31 1    
    59   30   59 1    
    60   30   60 1    
    61   31   32 1    
    62   31   61 1    
    63   31   62 1    
    64   32   33 1    
    65   32   63 1    
    66   32   64 1    
    67   33   65 1    
    68   33   66 1    
@<TRIPOS>SUBSTRUCTURE
     1 UNK         1 GROUP             0       ****    0 ROOT    
