@<TRIPOS>MOLECULE
ZINC16734677_4024
57   61    1
SMALL
USER_CHARGES


@<TRIPOS>ATOM
      1 C1          7.4294   56.5580   17.4147 C.3       1 UNK         0.0000 
      2 C2          7.1990   56.1125   18.8465 C.ar      1 UNK         0.0000 
      3 C3          8.2754   55.9784   19.7209 C.ar      1 UNK         0.0000 
      4 C4          8.0529   55.5846   21.0379 C.ar      1 UNK         0.0000 
      5 C5          6.7622   55.2963   21.4977 C.ar      1 UNK         0.0000 
      6 C6          5.6960   55.4609   20.6135 C.ar      1 UNK         0.0000 
      7 C7          5.9051   55.8601   19.2968 C.ar      1 UNK         0.0000 
      8 C8          6.5350   54.8862   22.9671 C.3       1 UNK         0.0000 
      9 N9          5.7223   53.6945   23.2433 N.pl3     1 UNK         0.0000 
     10 C10         4.4541   53.3981   22.7898 C.ar      1 UNK         0.0000 
     11 C11         3.3096   53.5325   23.5251 C.ar      1 UNK         0.0000 
     12 C12         2.0358   53.2891   22.8322 C.ar      1 UNK         0.0000 
     13 O13         0.9648   53.7006   23.2818 O.2       1 UNK         0.0000 
     14 N14         2.1442   52.6326   21.6318 N.pl3     1 UNK         0.0000 
     15 C15         0.9857   52.2080   20.9765 C.ar      1 UNK         0.0000 
     16 C16         0.9384   51.6319   19.7509 C.ar      1 UNK         0.0000 
     17 C17         2.2297   51.4460   19.0939 C.ar      1 UNK         0.0000 
     18 C18         3.3685   51.8428   19.7035 C.ar      1 UNK         0.0000 
     19 C19         3.3759   52.4554   21.0039 C.ar      1 UNK         0.0000 
     20 N20         4.4709   52.8303   21.5538 N.2       1 UNK         0.0000 
     21 C21        -0.3537   51.1419   19.1269 C.3       1 UNK         0.0000 
     22 C22         3.3088   53.9577   24.9373 C.2       1 UNK         0.0000 
     23 C23         2.4614   53.5709   25.9340 C.2       1 UNK         0.0000 
     24 C24         2.6125   54.0969   27.2728 C.2       1 UNK         0.0000 
     25 O25         3.4913   54.8867   27.6342 O.2       1 UNK         0.0000 
     26 N26         1.6382   53.6159   28.0867 N.am      1 UNK         0.0000 
     27 C27         0.7890   52.6564   27.6105 C.2       1 UNK         0.0000 
     28 S28        -0.4087   51.7675   28.3534 S.2       1 UNK         0.0000 
     29 S29         1.1049   52.4206   25.9268 S.3       1 UNK         0.0000 
     30 C30         1.6081   54.0221   29.5040 C.3       1 UNK         0.0000 
     31 C31         2.3797   53.0622   30.3778 C.2       1 UNK         0.0000 
     32 C32         3.7109   52.6809   30.4574 C.2       1 UNK         0.0000 
     33 C33         3.8128   51.8009   31.5335 C.2       1 UNK         0.0000 
     34 C34         2.5397   51.6968   32.0649 C.2       1 UNK         0.0000 
     35 O35         1.6702   52.4588   31.3620 O.3       1 UNK         0.0000 
     36 H36         6.6328   57.2285   17.0898 H         1 UNK         0.0000 
     37 H37         8.3649   57.1097   17.3112 H         1 UNK         0.0000 
     38 H38         7.4479   55.6971   16.7457 H         1 UNK         0.0000 
     39 H39         9.2848   56.1770   19.3879 H         1 UNK         0.0000 
     40 H40         8.9099   55.4896   21.6817 H         1 UNK         0.0000 
     41 H41         4.6868   55.2966   20.9460 H         1 UNK         0.0000 
     42 H42         5.0608   55.9753   18.6327 H         1 UNK         0.0000 
     43 H43         6.0972   55.7017   23.5283 H         1 UNK         0.0000 
     44 H44         7.5044   54.7060   23.4283 H         1 UNK         0.0000 
     45 H45         5.8710   53.4250   24.2035 H         1 UNK         0.0000 
     46 H46         0.0706   52.3476   21.5407 H         1 UNK         0.0000 
     47 H47         2.2822   50.9850   18.1156 H         1 UNK         0.0000 
     48 H48         4.3044   51.6968   19.1979 H         1 UNK         0.0000 
     49 H49        -0.5855   51.7168   18.2299 H         1 UNK         0.0000 
     50 H50        -0.2236   50.1109   18.7975 H         1 UNK         0.0000 
     51 H51        -1.1923   51.1627   19.8235 H         1 UNK         0.0000 
     52 H52         4.0902   54.6596   25.2026 H         1 UNK         0.0000 
     53 H53         0.5721   54.1044   29.8379 H         1 UNK         0.0000 
     54 H54         2.0036   55.0320   29.6272 H         1 UNK         0.0000 
     55 H55         4.5087   53.0083   29.8055 H         1 UNK         0.0000 
     56 H56         4.7038   51.3062   31.8867 H         1 UNK         0.0000 
     57 H57         2.1132   51.1352   32.8815 H         1 UNK         0.0000 
@<TRIPOS>BOND
     1    1    2 1    
     2    1   36 1    
     3    1   37 1    
     4    1   38 1    
     5    2    7 ar   
     6    2    3 ar   
     7    3    4 ar   
     8    3   39 1    
     9    4    5 ar   
    10    4   40 1    
    11    5    6 ar   
    12    5    8 1    
    13    6    7 ar   
    14    6   41 1    
    15    7   42 1    
    16    8    9 1    
    17    8   43 1    
    18    8   44 1    
    19    9   10 1    
    20    9   45 1    
    21   10   20 ar   
    22   10   11 ar   
    23   11   12 ar   
    24   11   22 1    
    25   12   13 2    
    26   12   14 ar   
    27   14   19 ar   
    28   14   15 ar   
    29   15   16 ar   
    30   15   46 1    
    31   16   17 ar   
    32   16   21 1    
    33   17   18 ar   
    34   17   47 1    
    35   18   19 ar   
    36   18   48 1    
    37   19   20 ar   
    38   21   49 1    
    39   21   50 1    
    40   21   51 1    
    41   22   23 2    
    42   22   52 1    
    43   23   29 1    
    44   23   24 1    
    45   24   25 2    
    46   24   26 am   BACKBONE|DICT|INTERRES
    47   26   27 am   BACKBONE|DICT|INTERRES
    48   26   30 1    
    49   27   28 2    
    50   27   29 1    
    51   30   31 1    
    52   30   53 1    
    53   30   54 1    
    54   31   35 1    
    55   31   32 2    
    56   32   33 1    
    57   32   55 1    
    58   33   34 2    
    59   33   56 1    
    60   34   35 1    
    61   34   57 1    
@<TRIPOS>SUBSTRUCTURE
     1 UNK         1 GROUP             0       ****    0 ROOT    
