ZINC02116562_5812
                    3D
 Schrodinger Suite 2024-2.
 68 71  0  0  1  0            999 V2000
    6.7295   54.6091   24.8303 C   0  0  0  0  0  0
    6.1890   54.5582   23.4180 C   0  0  0  0  0  0
    6.7904   55.2966   22.4073 C   0  0  0  0  0  0
    6.2474   55.2793   21.1293 C   0  0  0  0  0  0
    5.1219   54.4969   20.8135 C   0  0  0  0  0  0
    4.7206   54.5009   19.3682 C   0  0  0  0  0  0
    5.3140   55.3626   18.4924 C   0  0  0  0  0  0
    6.3852   56.2852   18.9481 C   0  0  0  0  0  0
    6.9317   57.1932   18.3213 O   0  0  0  0  0  0
    6.8843   56.0867   20.2097 O   0  0  0  0  0  0
    5.0663   55.4097   16.9742 C   0  0  0  0  0  0
    3.9061   56.3084   16.5609 C   0  0  0  0  0  0
    4.0719   57.6965   16.5101 C   0  0  0  0  0  0
    3.0194   58.5092   16.0993 C   0  0  0  0  0  0
    1.8026   57.9345   15.7367 C   0  0  0  0  0  0
    1.6287   56.5531   15.7832 C   0  0  0  0  0  0
    2.6825   55.7392   16.1920 C   0  0  0  0  0  0
    3.7414   53.4190   18.9056 C   0  0  0  0  0  0
    4.4492   53.8276   21.8664 C   0  0  0  0  0  0
    5.0353   53.8305   23.1428 C   0  0  0  0  0  0
    3.2318   53.2174   21.5980 O   0  0  0  0  0  0
    2.3882   52.5463   22.5553 C   0  0  2  0  0  0
    2.8584   51.6209   22.8794 H   0  0  0  0  0  0
    1.1351   52.1168   21.7693 C   0  0  0  0  0  0
    1.9990   53.4117   23.7824 C   0  0  0  0  0  0
    1.4346   54.4943   23.6403 O   0  0  0  0  0  0
    2.3071   52.8971   24.9873 N   0  0  0  0  0  0
    1.9970   53.4923   26.2819 C   0  0  0  0  0  0
    3.1361   54.3082   26.9519 C   0  0  2  0  0  0
    4.3826   53.4665   27.3395 C   0  0  0  0  0  0
    4.0788   52.4975   28.5027 C   0  0  0  0  0  0
    3.5465   53.2793   29.7247 C   0  0  1  0  0  0
    2.2690   54.0778   29.3583 C   0  0  0  0  0  0
    2.6309   55.0537   28.2205 C   0  0  0  0  0  0
    3.3059   52.2906   30.8817 C   0  0  0  0  0  0
    4.3043   51.6967   31.3369 O   0  0  0  0  0  0
    2.1380   52.0966   31.2811 O   0  5  0  0  0  0
    7.5158   55.3535   24.9311 H   0  0  0  0  0  0
    5.9318   54.8898   25.5160 H   0  0  0  0  0  0
    7.1012   53.6332   25.1348 H   0  0  0  0  0  0
    7.6663   55.8954   22.6116 H   0  0  0  0  0  0
    5.9559   55.7407   16.4327 H   0  0  0  0  0  0
    4.9267   54.4061   16.5781 H   0  0  0  0  0  0
    5.0088   58.1565   16.7868 H   0  0  0  0  0  0
    3.1409   59.5833   16.0741 H   0  0  0  0  0  0
    0.9849   58.5698   15.4278 H   0  0  0  0  0  0
    0.6814   56.1158   15.5021 H   0  0  0  0  0  0
    2.5438   54.6693   16.2176 H   0  0  0  0  0  0
    3.6472   53.3244   17.8286 H   0  0  0  0  0  0
    4.0642   52.4429   19.2681 H   0  0  0  0  0  0
    2.7401   53.6158   19.2804 H   0  0  0  0  0  0
    4.5963   53.2967   23.9626 H   0  0  0  0  0  0
    0.4239   51.5794   22.3987 H   0  0  0  0  0  0
    0.6179   52.9760   21.3357 H   0  0  0  0  0  0
    1.4055   51.4500   20.9488 H   0  0  0  0  0  0
    2.7668   51.9993   25.0226 H   0  0  0  0  0  0
    1.6953   52.6683   26.9270 H   0  0  0  0  0  0
    1.1047   54.0970   26.2305 H   0  0  0  0  0  0
    3.4705   55.0749   26.2509 H   0  0  0  0  0  0
    5.2034   54.1240   27.6300 H   0  0  0  0  0  0
    4.7370   52.8959   26.4810 H   0  0  0  0  0  0
    4.9998   51.9720   28.7603 H   0  0  0  0  0  0
    3.3379   51.7676   28.1718 H   0  0  0  0  0  0
    4.3111   53.9785   30.0648 H   0  0  0  0  0  0
    1.4639   53.4200   29.0285 H   0  0  0  0  0  0
    1.9009   54.6452   30.2148 H   0  0  0  0  0  0
    3.4148   55.7124   28.5850 H   0  0  0  0  0  0
    1.7633   55.6760   27.9955 H   0  0  0  0  0  0
  1  2  1  0  0  0
  1 38  1  0  0  0
  1 39  1  0  0  0
  1 40  1  0  0  0
  2 20  2  0  0  0
  2  3  1  0  0  0
  3  4  2  0  0  0
  3 41  1  0  0  0
  4 10  1  0  0  0
  4  5  1  0  0  0
  5  6  1  0  0  0
  5 19  2  0  0  0
  6  7  2  0  0  0
  6 18  1  0  0  0
  7  8  1  0  0  0
  7 11  1  0  0  0
  8  9  2  0  0  0
  8 10  1  0  0  0
 11 12  1  0  0  0
 11 42  1  0  0  0
 11 43  1  0  0  0
 12 17  2  0  0  0
 12 13  1  0  0  0
 13 14  2  0  0  0
 13 44  1  0  0  0
 14 15  1  0  0  0
 14 45  1  0  0  0
 15 16  2  0  0  0
 15 46  1  0  0  0
 16 17  1  0  0  0
 16 47  1  0  0  0
 17 48  1  0  0  0
 18 49  1  0  0  0
 18 50  1  0  0  0
 18 51  1  0  0  0
 19 20  1  0  0  0
 19 21  1  0  0  0
 20 52  1  0  0  0
 21 22  1  0  0  0
 22 23  1  0  0  0
 22 24  1  0  0  0
 22 25  1  0  0  0
 24 53  1  0  0  0
 24 54  1  0  0  0
 24 55  1  0  0  0
 25 26  2  0  0  0
 25 27  1  0  0  0
 27 28  1  0  0  0
 27 56  1  0  0  0
 28 29  1  0  0  0
 28 57  1  0  0  0
 28 58  1  0  0  0
 29 34  1  0  0  0
 29 30  1  0  0  0
 29 59  1  0  0  0
 30 31  1  0  0  0
 30 60  1  0  0  0
 30 61  1  0  0  0
 31 32  1  0  0  0
 31 62  1  0  0  0
 31 63  1  0  0  0
 32 33  1  0  0  0
 32 35  1  0  0  0
 32 64  1  0  0  0
 33 34  1  0  0  0
 33 65  1  0  0  0
 33 66  1  0  0  0
 34 67  1  0  0  0
 34 68  1  0  0  0
 35 36  2  0  0  0
 35 37  1  0  0  0
M  CHG  1  37  -1
M  END
> <i_i_glide_confnum>
283

> <i_i_glide_lignum>
5813

> <i_i_glide_posenum>
205

> <i_i_glide_rotatable_bonds>
9

> <i_m_Source_File_Index>
5119

> <b_m_subgroup_collapsed>
0

> <r_i_docking_score>
-5.51121

> <r_i_glide_ecoul>
-3.22613

> <r_i_glide_eff_state_penalty>
0

> <r_i_glide_einternal>
4.58295

> <r_i_glide_emodel>
-64.0097

> <r_i_glide_energy>
-46.1127

> <r_i_glide_erotb>
0.676531

> <r_i_glide_esite>
0

> <r_i_glide_evdw>
-42.8865

> <r_i_glide_gscore>
-5.51121

> <r_i_glide_hbond>
-0.207531

> <r_i_glide_ligand_efficiency>
-0.153089

> <r_i_glide_ligand_efficiency_ln>
-1.2024

> <r_i_glide_ligand_efficiency_sa>
-0.505489

> <r_i_glide_lipo>
-2.84469

> <r_i_glide_metal>
0

> <r_i_glide_rewards>
-0.507273

> <s_i_glide_gridfile>
wee1_glide-grid

> <s_m_Source_File>
wee1_decoys_glide_SP.sdf

> <s_m_Source_Path>
/Users/zhangxujun/Desktop

> <s_m_entry_id>
5394

> <s_m_entry_name>
wee1_decoys_glide_SP.5119

> <s_m_subgroup_title>
wee1_decoys_glide_SP

> <s_m_subgroupid>
wee1_decoys_glide_SP


$$$$
