@<TRIPOS>MOLECULE
ZINC13260378_5886
50   52    1
SMALL
USER_CHARGES


@<TRIPOS>ATOM
      1 C1          6.7043   55.2973   25.1748 C.ar      1 UNK         0.0000 
      2 C2          6.4202   55.1165   26.5251 C.ar      1 UNK         0.0000 
      3 C3          5.2400   54.4875   26.9012 C.ar      1 UNK         0.0000 
      4 C4          4.3479   54.0238   25.9253 C.ar      1 UNK         0.0000 
      5 C5          4.6529   54.2052   24.5719 C.ar      1 UNK         0.0000 
      6 C6          5.8349   54.8339   24.1952 C.ar      1 UNK         0.0000 
      7 C7          3.1110   53.2963   26.2644 C.2       1 UNK         0.0000 
      8 C8          2.4413   53.3356   27.4320 C.2       1 UNK         0.0000 
      9 S9          0.9859   52.3202   27.7356 S.o2      1 UNK         0.0000 
     10 O10         1.4015   51.3129   28.7193 O.2       1 UNK         0.0000 
     11 O11        -0.1002   53.2474   28.0672 O.2       1 UNK         0.0000 
     12 N12         0.5580   51.4775   26.2157 N.pl3     1 UNK         0.0000 
     13 C13         0.2659   50.0205   26.2342 C.3       1 UNK         0.0000 
     14 C14        -1.1368   49.6878   25.6831 C.3       1 UNK         0.0000 
     15 C15        -1.4773   50.3721   24.3381 C.3       1 UNK         0.0000 
     16 C16        -1.2048   51.8986   24.4591 C.3       1 UNK         0.0000 
     17 C17         0.2077   52.2344   24.9821 C.3       1 UNK         0.0000 
     18 C18        -0.7037   49.7366   23.1483 C.2       1 UNK         0.0000 
     19 O19        -0.0956   48.6772   23.2981 O.2       1 UNK         0.0000 
     20 N20        -0.9056   50.3265   21.9534 N.am      1 UNK         0.0000 
     21 C21        -0.4863   49.9862   20.6481 C.ar      1 UNK         0.0000 
     22 C22         0.4945   49.0044   20.4121 C.ar      1 UNK         0.0000 
     23 C23         0.8564   48.6541   19.1153 C.ar      1 UNK         0.0000 
     24 C24         0.2494   49.2784   18.0329 C.ar      1 UNK         0.0000 
     25 C25        -0.6947   50.2779   18.2471 C.ar      1 UNK         0.0000 
     26 C26        -1.0795   50.6628   19.5437 C.ar      1 UNK         0.0000 
     27 C27        -2.0990   51.7726   19.6891 C.2       1 UNK         0.0000 
     28 O28        -2.4947   52.0954   20.8340 O.co2     1 UNK         0.0000 
     29 Br29        0.7059   48.7713   16.2569 Br        1 UNK         0.0000 
     30 H30         7.6100   55.8011   24.8727 H         1 UNK         0.0000 
     31 H31         7.1040   55.4692   27.2836 H         1 UNK         0.0000 
     32 H32         5.0345   54.3501   27.9525 H         1 UNK         0.0000 
     33 H33         3.9810   53.8480   23.8053 H         1 UNK         0.0000 
     34 H34         6.0673   54.9705   23.1492 H         1 UNK         0.0000 
     35 H35         2.7539   52.6440   25.4839 H         1 UNK         0.0000 
     36 H36         2.7369   53.9600   28.2584 H         1 UNK         0.0000 
     37 H37         1.0566   49.4963   25.6961 H         1 UNK         0.0000 
     38 H38         0.3183   49.6755   27.2662 H         1 UNK         0.0000 
     39 H39        -1.3302   48.6154   25.6470 H         1 UNK         0.0000 
     40 H40        -1.8942   49.9817   26.4104 H         1 UNK         0.0000 
     41 H41        -2.5221   50.2369   24.0545 H         1 UNK         0.0000 
     42 H42        -1.9563   52.3202   25.1275 H         1 UNK         0.0000 
     43 H43        -1.4537   52.4301   23.5392 H         1 UNK         0.0000 
     44 H44         0.2833   53.2968   25.2030 H         1 UNK         0.0000 
     45 H45         0.9655   52.0283   24.2266 H         1 UNK         0.0000 
     46 H46        -1.5569   51.1089   21.9321 H         1 UNK         0.0000 
     47 H47         0.9973   48.4965   21.2183 H         1 UNK         0.0000 
     48 H48         1.6069   47.8944   18.9475 H         1 UNK         0.0000 
     49 H49        -1.1329   50.7542   17.3807 H         1 UNK         0.0000 
     50 O50        -2.4962   52.3720   18.6639 O.co2     1 UNK         0.0000 
@<TRIPOS>BOND
     1    1    6 ar   
     2    1    2 ar   
     3    1   30 1    
     4    2    3 ar   
     5    2   31 1    
     6    3    4 ar   
     7    3   32 1    
     8    4    5 ar   
     9    4    7 1    
    10    5    6 ar   
    11    5   33 1    
    12    6   34 1    
    13    7    8 2    
    14    7   35 1    
    15    8    9 1    
    16    8   36 1    
    17    9   10 2    
    18    9   11 2    
    19    9   12 1    
    20   12   17 1    
    21   12   13 1    
    22   13   14 1    
    23   13   37 1    
    24   13   38 1    
    25   14   15 1    
    26   14   39 1    
    27   14   40 1    
    28   15   16 1    
    29   15   18 1    
    30   15   41 1    
    31   16   17 1    
    32   16   42 1    
    33   16   43 1    
    34   17   44 1    
    35   17   45 1    
    36   18   19 2    
    37   18   20 am   BACKBONE|DICT|INTERRES
    38   20   21 1    
    39   20   46 1    
    40   21   26 ar   
    41   21   22 ar   
    42   22   23 ar   
    43   22   47 1    
    44   23   24 ar   
    45   23   48 1    
    46   24   25 ar   
    47   24   29 1    
    48   25   26 ar   
    49   25   49 1    
    50   26   27 1    
    51   27   28 2    
    52   27   50 1    
@<TRIPOS>SUBSTRUCTURE
     1 UNK         1 GROUP             0       ****    0 ROOT    
