@<TRIPOS>MOLECULE
ZINC12495459_2852
51   53    1
SMALL
USER_CHARGES


@<TRIPOS>ATOM
      1 C1         -0.1367   51.7672   28.8790 C.3       1 UNK         0.0000 
      2 C2          0.9848   52.7863   28.9764 C.ar      1 UNK         0.0000 
      3 C3          0.7123   54.0801   29.4249 C.ar      1 UNK         0.0000 
      4 C4          1.7354   55.0267   29.5119 C.ar      1 UNK         0.0000 
      5 C5          3.0400   54.6662   29.1638 C.ar      1 UNK         0.0000 
      6 C6          3.3267   53.3768   28.6965 C.ar      1 UNK         0.0000 
      7 C7          2.2894   52.4439   28.6090 C.ar      1 UNK         0.0000 
      8 N8          4.6215   52.9528   28.3575 N.pl3     1 UNK         0.0000 
      9 S9          5.8543   53.9446   27.5405 S.o2      1 UNK         0.0000 
     10 O10         7.1044   53.1893   27.6331 O.2       1 UNK         0.0000 
     11 O11         5.8022   55.2966   28.0794 O.2       1 UNK         0.0000 
     12 C12         5.4369   54.0658   25.7987 C.ar      1 UNK         0.0000 
     13 C13         4.1102   54.0962   25.3576 C.ar      1 UNK         0.0000 
     14 C14         3.8369   54.0986   23.9878 C.ar      1 UNK         0.0000 
     15 C15         4.8929   54.0964   23.0671 C.ar      1 UNK         0.0000 
     16 C16         6.2131   54.1266   23.5120 C.ar      1 UNK         0.0000 
     17 C17         6.4812   54.1021   24.8747 C.ar      1 UNK         0.0000 
     18 N18         4.6844   54.1517   21.6813 N.pl3     1 UNK         0.0000 
     19 C19         3.9793   53.3304   20.8382 C.2       1 UNK         0.0000 
     20 S20         3.1227   51.9741   21.2853 S.2       1 UNK         0.0000 
     21 N21         3.9891   53.6162   19.5012 N.am      1 UNK         0.0000 
     22 C22         4.6384   54.5770   18.7980 C.2       1 UNK         0.0000 
     23 O23         5.3896   55.4292   19.2825 O.2       1 UNK         0.0000 
     24 C24         4.3914   54.5297   17.3098 C.ar      1 UNK         0.0000 
     25 C25         4.4601   53.2961   16.6399 C.ar      1 UNK         0.0000 
     26 C26         4.2216   53.2099   15.2702 C.ar      1 UNK         0.0000 
     27 C27         3.9054   54.3561   14.5464 C.ar      1 UNK         0.0000 
     28 C28         3.8258   55.5866   15.1955 C.ar      1 UNK         0.0000 
     29 C29         4.0608   55.6845   16.5688 C.ar      1 UNK         0.0000 
     30 Cl30        3.9052   57.2534   17.2899 Cl        1 UNK         0.0000 
     31 Cl31        3.6072   54.2524   12.8497 Cl        1 UNK         0.0000 
     32 C32         1.4349   56.4311   30.0056 C.3       1 UNK         0.0000 
     33 H33        -0.4495   51.4381   29.8706 H         1 UNK         0.0000 
     34 H34        -1.0059   52.2066   28.3899 H         1 UNK         0.0000 
     35 H35         0.1523   50.8967   28.2902 H         1 UNK         0.0000 
     36 H36        -0.2952   54.3460   29.7099 H         1 UNK         0.0000 
     37 H37         3.8188   55.4005   29.2806 H         1 UNK         0.0000 
     38 H38         2.4946   51.4424   28.2593 H         1 UNK         0.0000 
     39 H39         4.7508   51.9616   28.2205 H         1 UNK         0.0000 
     40 H40         3.2925   54.0861   26.0627 H         1 UNK         0.0000 
     41 H41         2.8122   54.1113   23.6449 H         1 UNK         0.0000 
     42 H42         7.0357   54.1548   22.8116 H         1 UNK         0.0000 
     43 H43         7.5044   54.0967   25.2099 H         1 UNK         0.0000 
     44 H44         5.2309   54.8629   21.2139 H         1 UNK         0.0000 
     45 H45         3.4268   52.9943   18.9394 H         1 UNK         0.0000 
     46 H46         4.7056   52.3861   17.1722 H         1 UNK         0.0000 
     47 H47         4.2829   52.2507   14.7758 H         1 UNK         0.0000 
     48 H48         3.5742   56.4728   14.6318 H         1 UNK         0.0000 
     49 H49         0.6560   56.4160   30.7679 H         1 UNK         0.0000 
     50 H50         2.3043   56.8963   30.4675 H         1 UNK         0.0000 
     51 H51         1.1047   57.0597   29.1792 H         1 UNK         0.0000 
@<TRIPOS>BOND
     1    1    2 1    
     2    1   33 1    
     3    1   34 1    
     4    1   35 1    
     5    2    7 ar   
     6    2    3 ar   
     7    3    4 ar   
     8    3   36 1    
     9    4    5 ar   
    10    4   32 1    
    11    5    6 ar   
    12    5   37 1    
    13    6    7 ar   
    14    6    8 1    
    15    7   38 1    
    16    8    9 1    
    17    8   39 1    
    18    9   10 2    
    19    9   11 2    
    20    9   12 1    
    21   12   17 ar   
    22   12   13 ar   
    23   13   14 ar   
    24   13   40 1    
    25   14   15 ar   
    26   14   41 1    
    27   15   16 ar   
    28   15   18 1    
    29   16   17 ar   
    30   16   42 1    
    31   17   43 1    
    32   18   19 1    
    33   18   44 1    
    34   19   20 2    
    35   19   21 am   BACKBONE|DICT|INTERRES
    36   21   22 am   BACKBONE|DICT|INTERRES
    37   21   45 1    
    38   22   23 2    
    39   22   24 1    
    40   24   29 ar   
    41   24   25 ar   
    42   25   26 ar   
    43   25   46 1    
    44   26   27 ar   
    45   26   47 1    
    46   27   28 ar   
    47   27   31 1    
    48   28   29 ar   
    49   28   48 1    
    50   29   30 1    
    51   32   49 1    
    52   32   50 1    
    53   32   51 1    
@<TRIPOS>SUBSTRUCTURE
     1 UNK         1 GROUP             0       ****    0 ROOT    
