ZINC04063481_1368
                    3D
 Schrodinger Suite 2024-2.
 45 47  0  0  1  0            999 V2000
    5.4577   54.8593   25.7957 C   0  0  0  0  0  0
    3.9509   54.6410   25.6008 C   0  0  2  0  0  0
    3.5045   55.6225   25.7422 H   0  0  0  0  0  0
    3.3592   53.6833   26.6619 C   0  0  0  0  0  0
    2.0044   53.0489   26.2936 C   0  0  0  0  0  0
    2.0455   52.4984   24.9908 O   0  0  0  0  0  0
    2.3197   53.5368   23.7691 P   0  0  1  0  0  0
    1.1980   54.4965   23.5897 O   0  0  0  0  0  0
    3.6928   54.2778   24.2505 O   0  0  0  0  0  0
    2.7379   52.4689   22.2832 C   0  0  1  0  0  0
    3.5267   51.7537   22.4816 H   0  0  0  0  0  0
    1.5230   51.6307   21.8881 C   0  0  0  0  0  0
    0.5806   52.0794   20.9569 C   0  0  0  0  0  0
   -0.5311   51.2987   20.6544 C   0  0  0  0  0  0
   -0.7265   50.0613   21.2840 C   0  0  0  0  0  0
    0.2199   49.6198   22.2189 C   0  0  0  0  0  0
    1.3342   50.3973   22.5168 C   0  0  0  0  0  0
   -1.9174   49.2350   20.9695 N   0  3  0  0  0  0
   -2.7835   49.7111   20.2400 O   0  0  0  0  0  0
   -1.9939   48.1079   21.4523 O   0  5  0  0  0  0
    3.2455   53.2966   21.1831 N   0  0  0  0  0  0
    4.5165   53.9011   21.2040 C   0  0  0  0  0  0
    4.8317   54.7609   20.1514 C   0  0  0  0  0  0
    6.0150   55.4931   20.1740 C   0  0  0  0  0  0
    6.8779   55.3695   21.2584 C   0  0  0  0  0  0
    6.5920   54.4967   22.3038 C   0  0  0  0  0  0
    5.4447   53.7138   22.2380 C   0  0  0  0  0  0
    8.0322   56.0949   21.2815 O   0  0  0  0  0  0
    5.6907   55.1578   26.8183 H   0  0  0  0  0  0
    5.8260   55.6406   25.1301 H   0  0  0  0  0  0
    6.0156   53.9482   25.5765 H   0  0  0  0  0  0
    4.0757   52.8835   26.8402 H   0  0  0  0  0  0
    3.2655   54.2050   27.6151 H   0  0  0  0  0  0
    1.7535   52.2568   27.0005 H   0  0  0  0  0  0
    1.2001   53.7813   26.3583 H   0  0  0  0  0  0
    0.7038   53.0328   20.4670 H   0  0  0  0  0  0
   -1.2407   51.6636   19.9258 H   0  0  0  0  0  0
    0.0947   48.6747   22.7285 H   0  0  0  0  0  0
    2.0452   50.0408   23.2496 H   0  0  0  0  0  0
    2.5481   53.7990   20.6439 H   0  0  0  0  0  0
    4.1417   54.8951   19.3299 H   0  0  0  0  0  0
    6.2508   56.1670   19.3633 H   0  0  0  0  0  0
    7.2762   54.3847   23.1323 H   0  0  0  0  0  0
    5.2639   53.0102   23.0345 H   0  0  0  0  0  0
    8.6095   55.8583   22.0156 H   0  0  0  0  0  0
  1  2  1  0  0  0
  1 29  1  0  0  0
  1 30  1  0  0  0
  1 31  1  0  0  0
  2  3  1  0  0  0
  2  9  1  0  0  0
  2  4  1  0  0  0
  4  5  1  0  0  0
  4 32  1  0  0  0
  4 33  1  0  0  0
  5  6  1  0  0  0
  5 34  1  0  0  0
  5 35  1  0  0  0
  6  7  1  0  0  0
  7  8  2  0  0  0
  7  9  1  0  0  0
  7 10  1  0  0  0
 10 11  1  0  0  0
 10 12  1  0  0  0
 10 21  1  0  0  0
 12 17  2  0  0  0
 12 13  1  0  0  0
 13 14  2  0  0  0
 13 36  1  0  0  0
 14 15  1  0  0  0
 14 37  1  0  0  0
 15 16  2  0  0  0
 15 18  1  0  0  0
 16 17  1  0  0  0
 16 38  1  0  0  0
 17 39  1  0  0  0
 18 19  2  0  0  0
 18 20  1  0  0  0
 21 22  1  0  0  0
 21 40  1  0  0  0
 22 27  2  0  0  0
 22 23  1  0  0  0
 23 24  2  0  0  0
 23 41  1  0  0  0
 24 25  1  0  0  0
 24 42  1  0  0  0
 25 26  2  0  0  0
 25 28  1  0  0  0
 26 27  1  0  0  0
 26 43  1  0  0  0
 27 44  1  0  0  0
 28 45  1  0  0  0
M  CHG  2  18   1  20  -1
M  END
> <i_i_glide_confnum>
16

> <i_i_glide_lignum>
1369

> <i_i_glide_posenum>
391

> <i_i_glide_rotatable_bonds>
6

> <i_m_Source_File_Index>
5229

> <b_m_subgroup_collapsed>
0

> <r_i_docking_score>
-5.18043

> <r_i_glide_ecoul>
-6.31357

> <r_i_glide_eff_state_penalty>
0

> <r_i_glide_einternal>
2.9334

> <r_i_glide_emodel>
-43.9217

> <r_i_glide_energy>
-32.9855

> <r_i_glide_erotb>
0.541571

> <r_i_glide_esite>
-0.00458102

> <r_i_glide_evdw>
-26.672

> <r_i_glide_gscore>
-5.18043

> <r_i_glide_hbond>
-0.619369

> <r_i_glide_ligand_efficiency>
-0.199247

> <r_i_glide_ligand_efficiency_ln>
-1.21661

> <r_i_glide_ligand_efficiency_sa>
-0.590269

> <r_i_glide_lipo>
-1.98775

> <r_i_glide_metal>
0

> <r_i_glide_rewards>
-0.82966

> <s_i_glide_gridfile>
wee1_glide-grid

> <s_m_Source_File>
wee1_decoys_glide_SP.sdf

> <s_m_Source_Path>
/Users/zhangxujun/Desktop

> <s_m_entry_id>
5504

> <s_m_entry_name>
wee1_decoys_glide_SP.5229

> <s_m_subgroup_title>
wee1_decoys_glide_SP

> <s_m_subgroupid>
wee1_decoys_glide_SP


$$$$
