ZINC63571878_1153
                    3D
 Schrodinger Suite 2024-2.
 68 72  0  0  1  0            999 V2000
    2.6660   46.1106   15.5858 C   0  0  0  0  0  0
    1.3166   46.7680   15.9206 C   0  0  0  0  0  0
    1.4939   47.9119   16.7496 O   0  0  0  0  0  0
    1.6368   47.8015   18.0872 C   0  0  0  0  0  0
    1.5026   46.7680   18.7421 O   0  0  0  0  0  0
    1.9958   49.1371   18.7503 C   0  0  0  0  0  0
    1.0899   49.6588   19.9165 C   0  0  0  0  0  0
   -0.3912   49.7759   19.4556 C   0  0  0  0  0  0
   -1.2922   50.4177   20.5421 C   0  0  0  0  0  0
   -1.2328   49.6125   21.8614 C   0  0  0  0  0  0
    0.2102   49.2817   22.3116 C   0  0  0  0  0  0
    1.0276   48.6894   21.1389 C   0  0  0  0  0  0
    1.6053   50.9915   20.2892 N   0  0  0  0  0  0
    2.8172   51.3108   20.7941 C   0  0  0  0  0  0
    3.7424   50.5132   20.8775 O   0  0  0  0  0  0
    2.9178   52.5742   21.2707 N   0  0  0  0  0  0
    1.9832   52.7942   22.4115 C   0  0  0  0  0  0
    2.1073   54.2228   22.9237 C   0  0  0  0  0  0
    3.5350   54.3533   23.3525 C   0  0  0  0  0  0
    4.1773   54.4317   24.5264 C   0  0  0  0  0  0
    3.7002   54.4518   25.9148 C   0  0  0  0  0  0
    4.5776   54.4960   26.9385 C   0  0  0  0  0  0
    6.0002   54.5197   26.6221 C   0  0  0  0  0  0
    6.4516   54.4931   25.3399 C   0  0  0  0  0  0
    5.5506   54.4339   24.2716 C   0  0  0  0  0  0
    5.7842   54.3540   22.9782 N   0  3  0  0  0  0
    4.5126   54.3522   22.2145 C   0  0  1  0  0  0
    4.4699   55.2966   21.6824 H   0  0  0  0  0  0
    4.2952   53.1989   21.1785 C   0  0  2  0  0  0
    5.0346   52.4350   21.4276 H   0  0  0  0  0  0
    4.6970   53.7255   19.7743 C   0  0  0  0  0  0
    5.9393   54.3500   19.5824 C   0  0  0  0  0  0
    6.3215   54.8140   18.3265 C   0  0  0  0  0  0
    5.4603   54.6692   17.2456 C   0  0  0  0  0  0
    4.2174   54.0706   17.4138 C   0  0  0  0  0  0
    3.8368   53.6075   18.6703 C   0  0  0  0  0  0
    5.8320   55.1181   16.0255 F   0  0  0  0  0  0
    2.5351   45.2743   14.8992 H   0  0  0  0  0  0
    3.1576   45.7326   16.4817 H   0  0  0  0  0  0
    3.3447   46.8252   15.1179 H   0  0  0  0  0  0
    0.8413   47.0961   14.9957 H   0  0  0  0  0  0
    0.6367   46.0485   16.3809 H   0  0  0  0  0  0
    3.0239   49.0239   19.0893 H   0  0  0  0  0  0
    2.0501   49.8940   17.9671 H   0  0  0  0  0  0
   -0.4418   50.4047   18.5648 H   0  0  0  0  0  0
   -0.7918   48.8052   19.1559 H   0  0  0  0  0  0
   -0.9938   51.4508   20.7259 H   0  0  0  0  0  0
   -2.3220   50.4637   20.1874 H   0  0  0  0  0  0
   -1.7572   50.1514   22.6517 H   0  0  0  0  0  0
   -1.7778   48.6765   21.7242 H   0  0  0  0  0  0
    0.6929   50.1765   22.7036 H   0  0  0  0  0  0
    0.1864   48.5733   23.1415 H   0  0  0  0  0  0
    0.6093   47.7129   20.8807 H   0  0  0  0  0  0
    2.0417   48.4976   21.4925 H   0  0  0  0  0  0
    0.9318   51.7381   20.2232 H   0  0  0  0  0  0
    0.9462   52.6816   22.0901 H   0  0  0  0  0  0
    2.1995   52.0996   23.2265 H   0  0  0  0  0  0
    1.8733   54.8962   22.0973 H   0  0  0  0  0  0
    1.4046   54.4162   23.7354 H   0  0  0  0  0  0
    2.6460   54.4284   26.1484 H   0  0  0  0  0  0
    4.2384   54.5049   27.9643 H   0  0  0  0  0  0
    6.7118   54.5525   27.4361 H   0  0  0  0  0  0
    7.5115   54.4990   25.1519 H   0  0  0  0  0  0
    6.6253   54.4952   20.4013 H   0  0  0  0  0  0
    7.2814   55.2872   18.1857 H   0  0  0  0  0  0
    3.5518   53.9634   16.5706 H   0  0  0  0  0  0
    2.8625   53.1546   18.7608 H   0  0  0  0  0  0
    6.7059   54.3293   22.5524 H   0  0  0  0  0  0
  1  2  1  0  0  0
  1 38  1  0  0  0
  1 39  1  0  0  0
  1 40  1  0  0  0
  2  3  1  0  0  0
  2 41  1  0  0  0
  2 42  1  0  0  0
  3  4  1  0  0  0
  4  5  2  0  0  0
  4  6  1  0  0  0
  6  7  1  0  0  0
  6 43  1  0  0  0
  6 44  1  0  0  0
  7 12  1  0  0  0
  7  8  1  0  0  0
  7 13  1  0  0  0
  8  9  1  0  0  0
  8 45  1  0  0  0
  8 46  1  0  0  0
  9 10  1  0  0  0
  9 47  1  0  0  0
  9 48  1  0  0  0
 10 11  1  0  0  0
 10 49  1  0  0  0
 10 50  1  0  0  0
 11 12  1  0  0  0
 11 51  1  0  0  0
 11 52  1  0  0  0
 12 53  1  0  0  0
 12 54  1  0  0  0
 13 14  1  0  0  0
 13 55  1  0  0  0
 14 15  2  0  0  0
 14 16  1  0  0  0
 16 29  1  0  0  0
 16 17  1  0  0  0
 17 18  1  0  0  0
 17 56  1  0  0  0
 17 57  1  0  0  0
 18 19  1  0  0  0
 18 58  1  0  0  0
 18 59  1  0  0  0
 19 27  1  0  0  0
 19 20  2  0  0  0
 20 25  1  0  0  0
 20 21  1  0  0  0
 21 22  2  0  0  0
 21 60  1  0  0  0
 22 23  1  0  0  0
 22 61  1  0  0  0
 23 24  2  0  0  0
 23 62  1  0  0  0
 24 25  1  0  0  0
 24 63  1  0  0  0
 25 26  2  0  0  0
 26 27  1  0  0  0
 26 68  1  0  0  0
 27 28  1  0  0  0
 27 29  1  0  0  0
 29 30  1  0  0  0
 29 31  1  0  0  0
 31 36  2  0  0  0
 31 32  1  0  0  0
 32 33  2  0  0  0
 32 64  1  0  0  0
 33 34  1  0  0  0
 33 65  1  0  0  0
 34 35  2  0  0  0
 34 37  1  0  0  0
 35 36  1  0  0  0
 35 66  1  0  0  0
 36 67  1  0  0  0
M  CHG  1  26   1
M  END
> <i_i_glide_confnum>
189

> <i_i_glide_lignum>
1154

> <i_i_glide_posenum>
273

> <i_i_glide_rotatable_bonds>
8

> <i_m_Source_File_Index>
3700

> <b_m_subgroup_collapsed>
0

> <r_i_docking_score>
-3.83052

> <r_i_glide_ecoul>
-0.957952

> <r_i_glide_eff_state_penalty>
0

> <r_i_glide_einternal>
5.81977

> <r_i_glide_emodel>
-36.5058

> <r_i_glide_energy>
-34.9502

> <r_i_glide_erotb>
0.619368

> <r_i_glide_esite>
-0.0831351

> <r_i_glide_evdw>
-33.9923

> <r_i_glide_gscore>
-3.83052

> <r_i_glide_hbond>
-0.0643532

> <r_i_glide_ligand_efficiency>
-0.109443

> <r_i_glide_ligand_efficiency_ln>
-0.840884

> <r_i_glide_ligand_efficiency_sa>
-0.357997

> <r_i_glide_lipo>
-2.24102

> <r_i_glide_metal>
0

> <r_i_glide_rewards>
-0.218071

> <s_i_glide_gridfile>
wee1_glide-grid

> <s_m_Source_File>
wee1_decoys_glide_SP.sdf

> <s_m_Source_Path>
/Users/zhangxujun/Desktop

> <s_m_entry_id>
3975

> <s_m_entry_name>
wee1_decoys_glide_SP.3700

> <s_m_subgroup_title>
wee1_decoys_glide_SP

> <s_m_subgroupid>
wee1_decoys_glide_SP


$$$$
