@<TRIPOS>MOLECULE
ZINC59421778_5620
48   52    1
SMALL
USER_CHARGES


@<TRIPOS>ATOM
      1 C1         -2.6525   51.6790   26.3751 C.ar      1 UNK         0.0000 
      2 C2         -3.9383   51.2900   26.7443 C.ar      1 UNK         0.0000 
      3 C3         -4.2146   50.8978   28.0539 C.ar      1 UNK         0.0000 
      4 C4         -3.1767   50.8967   28.9951 C.ar      1 UNK         0.0000 
      5 C5         -1.8931   51.2967   28.6359 C.ar      1 UNK         0.0000 
      6 C6         -1.6276   51.6967   27.3227 C.ar      1 UNK         0.0000 
      7 N7         -0.3581   52.0969   26.8801 N.am      1 UNK         0.0000 
      8 C8          0.6356   52.6955   27.5774 C.2       1 UNK         0.0000 
      9 O9          0.6165   52.9208   28.7902 O.2       1 UNK         0.0000 
     10 C10         1.7563   53.1031   26.7445 C.ar      1 UNK         0.0000 
     11 C11         1.7041   53.2967   25.3471 C.ar      1 UNK         0.0000 
     12 C12         2.9973   53.6967   24.9681 C.ar      1 UNK         0.0000 
     13 N13         3.5527   53.9673   23.7871 N.2       1 UNK         0.0000 
     14 C14         4.8809   54.2793   23.7489 C.ar      1 UNK         0.0000 
     15 C15         5.6531   54.3674   24.9196 C.ar      1 UNK         0.0000 
     16 C16         5.0610   54.0965   26.1612 C.ar      1 UNK         0.0000 
     17 N17         3.7271   53.7556   26.1582 N.pl3     1 UNK         0.0000 
     18 N18         2.9519   53.4237   27.2243 N.2       1 UNK         0.0000 
     19 C19         5.8489   54.1173   27.4746 C.3       1 UNK         0.0000 
     20 F20         7.0949   54.5571   27.2834 F         1 UNK         0.0000 
     21 F21         5.2532   54.8967   28.3711 F         1 UNK         0.0000 
     22 F22         5.9182   52.8966   27.9913 F         1 UNK         0.0000 
     23 C23         5.4519   54.4967   22.3736 C.ar      1 UNK         0.0000 
     24 C24         4.7408   54.0971   21.2112 C.ar      1 UNK         0.0000 
     25 C25         5.2435   54.3041   19.9200 C.ar      1 UNK         0.0000 
     26 C26         6.4851   54.9117   19.8090 C.ar      1 UNK         0.0000 
     27 C27         7.1900   55.3007   20.9088 C.ar      1 UNK         0.0000 
     28 C28         6.7045   55.1223   22.1977 C.ar      1 UNK         0.0000 
     29 O29         8.3503   55.8856   20.5165 O.3       1 UNK         0.0000 
     30 C30         8.4429   55.6603   19.1357 C.3       1 UNK         0.0000 
     31 O31         7.1813   55.2381   18.6889 O.3       1 UNK         0.0000 
     32 O32        -5.5197   50.5346   28.3283 O.3       1 UNK         0.0000 
     33 C33        -5.9181   50.2369   29.6665 C.3       1 UNK         0.0000 
     34 F34        -7.2285   50.0000   29.6439 F         1 UNK         0.0000 
     35 F35        -5.7141   51.2753   30.4819 F         1 UNK         0.0000 
     36 F36        -5.3182   49.1405   30.1329 F         1 UNK         0.0000 
     37 H37        -2.4647   51.9729   25.3529 H         1 UNK         0.0000 
     38 H38        -4.7291   51.2866   26.0092 H         1 UNK         0.0000 
     39 H39        -3.3268   50.5618   30.0106 H         1 UNK         0.0000 
     40 H40        -1.1137   51.2541   29.3818 H         1 UNK         0.0000 
     41 H41        -0.1993   51.9966   25.8906 H         1 UNK         0.0000 
     42 H42         0.8588   53.1566   24.6917 H         1 UNK         0.0000 
     43 H43         6.7064   54.5938   24.8713 H         1 UNK         0.0000 
     44 H44         3.7752   53.6198   21.2953 H         1 UNK         0.0000 
     45 H45         4.6805   53.9950   19.0513 H         1 UNK         0.0000 
     46 H46         7.2950   55.4715   23.0300 H         1 UNK         0.0000 
     47 H47         9.1758   54.8728   18.9490 H         1 UNK         0.0000 
     48 H48         8.7504   56.5704   18.6193 H         1 UNK         0.0000 
@<TRIPOS>BOND
     1    1    6 ar   
     2    1    2 ar   
     3    1   37 1    
     4    2    3 ar   
     5    2   38 1    
     6    3    4 ar   
     7    3   32 1    
     8    4    5 ar   
     9    4   39 1    
    10    5    6 ar   
    11    5   40 1    
    12    6    7 1    
    13    7    8 am   BACKBONE|DICT|INTERRES
    14    7   41 1    
    15    8    9 2    
    16    8   10 1    
    17   10   18 ar   
    18   10   11 ar   
    19   11   12 ar   
    20   11   42 1    
    21   12   17 ar   
    22   12   13 ar   
    23   13   14 ar   
    24   14   15 ar   
    25   14   23 1    
    26   15   16 ar   
    27   15   43 1    
    28   16   17 ar   
    29   16   19 1    
    30   17   18 ar   
    31   19   20 1    
    32   19   21 1    
    33   19   22 1    
    34   23   28 ar   
    35   23   24 ar   
    36   24   25 ar   
    37   24   44 1    
    38   25   26 ar   
    39   25   45 1    
    40   26   31 1    
    41   26   27 ar   
    42   27   28 ar   
    43   27   29 1    
    44   28   46 1    
    45   29   30 1    
    46   30   31 1    
    47   30   47 1    
    48   30   48 1    
    49   32   33 1    
    50   33   34 1    
    51   33   35 1    
    52   33   36 1    
@<TRIPOS>SUBSTRUCTURE
     1 UNK         1 GROUP             0       ****    0 ROOT    
