@<TRIPOS>MOLECULE
ZINC50121735_1797
35   37    1
SMALL
USER_CHARGES


@<TRIPOS>ATOM
      1 C1          8.3396   53.4618   17.0490 C.3       1 UNK         0.0000 
      2 C2          7.6744   54.5827   17.8643 C.3       1 UNK         0.0000 
      3 N3          6.4591   54.1730   18.5833 N.pl3     1 UNK         0.0000 
      4 C4          5.9358   52.9475   18.5265 C.2       1 UNK         0.0000 
      5 N5          4.8504   52.8968   19.2848 N.pl3     1 UNK         0.0000 
      6 C6          4.5991   54.1763   19.9182 C.3       1 UNK         0.0000 
      7 C7          5.7175   54.9846   19.3503 C.2       1 UNK         0.0000 
      8 N8          5.9056   56.2892   19.5552 N.pl3     1 UNK         0.0000 
      9 C9          4.5231   54.0970   21.4428 C.ar      1 UNK         0.0000 
     10 C10         5.6543   54.3117   22.2407 C.ar      1 UNK         0.0000 
     11 C11         5.5382   54.3093   23.6325 C.ar      1 UNK         0.0000 
     12 C12         4.2867   54.0970   24.2384 C.ar      1 UNK         0.0000 
     13 C13         3.1593   53.8726   23.4472 C.ar      1 UNK         0.0000 
     14 C14         3.2876   53.8559   22.0590 C.ar      1 UNK         0.0000 
     15 Br15        1.4434   53.6204   24.2357 Br        1 UNK         0.0000 
     16 O16         4.1133   54.1638   25.6089 O.3       1 UNK         0.0000 
     17 C17         5.3220   54.0961   26.3709 C.3       1 UNK         0.0000 
     18 C18         6.4384   54.9389   25.7120 C.3       1 UNK         0.0000 
     19 O19         6.6861   54.4941   24.3758 O.3       1 UNK         0.0000 
     20 H20         9.2298   53.8331   16.5386 H         1 UNK         0.0000 
     21 H21         7.6757   53.0669   16.2785 H         1 UNK         0.0000 
     22 H22         8.6624   52.6324   17.6805 H         1 UNK         0.0000 
     23 H23         8.3647   54.9719   18.6136 H         1 UNK         0.0000 
     24 H24         7.3862   55.4064   17.2112 H         1 UNK         0.0000 
     25 H25         6.3148   52.1117   17.9569 H         1 UNK         0.0000 
     26 H26         5.2571   56.8012   20.1378 H         1 UNK         0.0000 
     27 H27         3.6498   54.5521   19.5246 H         1 UNK         0.0000 
     28 H28         6.6211   54.4968   21.7972 H         1 UNK         0.0000 
     29 H29         2.4058   53.6955   21.4549 H         1 UNK         0.0000 
     30 H30         5.6453   53.0559   26.4386 H         1 UNK         0.0000 
     31 H31         5.1252   54.4424   27.3857 H         1 UNK         0.0000 
     32 H32         7.3516   54.8721   26.2996 H         1 UNK         0.0000 
     33 H33         6.1303   55.9860   25.6866 H         1 UNK         0.0000 
     34 H34         6.6634   56.7788   19.0984 H         1 UNK         0.0000 
     35 H35         4.2810   52.0652   19.4023 H         1 UNK         0.0000 
@<TRIPOS>BOND
     1    1    2 1    
     2    1   20 1    
     3    1   21 1    
     4    1   22 1    
     5    2   23 1    
     6    2   24 1    
     7    2    3 1    
     8    3    4 1    
     9    3    7 1    
    10    4    5 2    
    11    4   25 1    
    12    5    6 1    
    13    5   35 1    
    14    6    9 1    
    15    6   27 1    
    16    6    7 1    
    17    7    8 2    
    18    8   26 1    
    19    8   34 1    
    20    9   14 ar   
    21    9   10 ar   
    22   10   11 ar   
    23   10   28 1    
    24   11   19 1    
    25   11   12 ar   
    26   12   13 ar   
    27   12   16 1    
    28   13   14 ar   
    29   13   15 1    
    30   14   29 1    
    31   16   17 1    
    32   17   18 1    
    33   17   30 1    
    34   17   31 1    
    35   18   19 1    
    36   18   32 1    
    37   18   33 1    
@<TRIPOS>SUBSTRUCTURE
     1 UNK         1 GROUP             0       ****    0 ROOT    
