@<TRIPOS>MOLECULE
ZINC13566989_4659
61   65    1
SMALL
USER_CHARGES


@<TRIPOS>ATOM
      1 C1         -0.8981   48.9953   21.3589 C.3       1 UNK         0.0000 
      2 C2         -0.5750   50.4458   21.7603 C.3       1 UNK         0.0000 
      3 H3          0.5032   50.5482   21.8567 H         1 UNK         0.0000 
      4 C4         -1.0486   51.4652   20.6936 C.2       1 UNK         0.0000 
      5 O5         -2.0958   52.0964   20.8708 O.2       1 UNK         0.0000 
      6 C6         -0.2093   51.6597   19.4588 C.ar      1 UNK         0.0000 
      7 C7          1.0499   51.0670   19.2854 C.ar      1 UNK         0.0000 
      8 C8          1.8067   51.3283   18.1438 C.ar      1 UNK         0.0000 
      9 C9          1.3365   52.1921   17.1409 C.ar      1 UNK         0.0000 
     10 C10         0.0675   52.7685   17.3163 C.ar      1 UNK         0.0000 
     11 C11        -0.6923   52.4967   18.4475 C.ar      1 UNK         0.0000 
     12 N12         2.1660   52.4703   16.0099 N.am      1 UNK         0.0000 
     13 C13         3.5435   51.9650   15.8928 C.3       1 UNK         0.0000 
     14 C14         4.1762   52.7167   14.7498 C.3       1 UNK         0.0000 
     15 C15         2.9924   53.1034   13.9096 C.3       1 UNK         0.0000 
     16 C16         1.7917   53.1010   14.8530 C.2       1 UNK         0.0000 
     17 O17         0.7103   53.6016   14.5488 O.2       1 UNK         0.0000 
     18 S18        -1.2164   50.9052   23.4183 S.3       1 UNK         0.0000 
     19 C19         0.0258   51.8570   24.2440 C.ar      1 UNK         0.0000 
     20 N20        -0.1270   52.0565   25.5741 N.ar      1 UNK         0.0000 
     21 C21         0.8850   52.6887   26.2390 C.ar      1 UNK         0.0000 
     22 C22         2.0299   53.1168   25.5172 C.ar      1 UNK         0.0000 
     23 N23         2.0695   52.9213   24.1642 N.ar      1 UNK         0.0000 
     24 N24         1.0819   52.2904   23.5192 N.ar      1 UNK         0.0000 
     25 C25         3.3043   53.6965   26.0678 C.ar      1 UNK         0.0000 
     26 C26         3.8191   53.2967   27.3101 C.ar      1 UNK         0.0000 
     27 C27         5.0770   53.7149   27.7380 C.ar      1 UNK         0.0000 
     28 C28         5.8485   54.5188   26.9067 C.ar      1 UNK         0.0000 
     29 C29         5.3565   54.9477   25.6821 C.ar      1 UNK         0.0000 
     30 C30         4.0870   54.5544   25.2779 C.ar      1 UNK         0.0000 
     31 O31         7.1044   54.8967   27.2817 O.3       1 UNK         0.0000 
     32 C32         0.6345   52.8575   27.7113 C.ar      1 UNK         0.0000 
     33 C33        -0.0352   51.8577   28.4378 C.ar      1 UNK         0.0000 
     34 C34        -0.3030   52.0132   29.7945 C.ar      1 UNK         0.0000 
     35 C35         0.1298   53.1543   30.4566 C.ar      1 UNK         0.0000 
     36 C36         0.7841   54.1645   29.7582 C.ar      1 UNK         0.0000 
     37 C37         1.0162   54.0240   28.3911 C.ar      1 UNK         0.0000 
     38 O38        -0.0955   53.2967   31.7986 O.3       1 UNK         0.0000 
     39 H39        -0.4254   48.7176   20.4155 H         1 UNK         0.0000 
     40 H40        -0.5410   48.2973   22.1170 H         1 UNK         0.0000 
     41 H41        -1.9729   48.8403   21.2524 H         1 UNK         0.0000 
     42 H42         1.4794   50.4046   20.0211 H         1 UNK         0.0000 
     43 H43         2.7715   50.8467   18.0618 H         1 UNK         0.0000 
     44 H44        -0.3585   53.4539   16.6038 H         1 UNK         0.0000 
     45 H45        -1.6588   52.9723   18.5310 H         1 UNK         0.0000 
     46 H46         4.1076   52.0975   16.8169 H         1 UNK         0.0000 
     47 H47         3.5039   50.8968   15.6770 H         1 UNK         0.0000 
     48 H48         4.9236   52.1251   14.2197 H         1 UNK         0.0000 
     49 H49         4.6754   53.6108   15.1277 H         1 UNK         0.0000 
     50 H50         2.8036   52.3580   13.1363 H         1 UNK         0.0000 
     51 H51         3.1246   54.0682   13.4195 H         1 UNK         0.0000 
     52 H52         3.2765   52.5994   27.9301 H         1 UNK         0.0000 
     53 H53         5.4658   53.3721   28.6854 H         1 UNK         0.0000 
     54 H54         5.9570   55.5785   25.0432 H         1 UNK         0.0000 
     55 H55         3.7345   54.8880   24.3125 H         1 UNK         0.0000 
     56 H56         7.2038   54.9947   28.2375 H         1 UNK         0.0000 
     57 H57        -0.3639   50.9486   27.9517 H         1 UNK         0.0000 
     58 H58        -0.8368   51.2391   30.3290 H         1 UNK         0.0000 
     59 H59         1.0974   55.0612   30.2727 H         1 UNK         0.0000 
     60 H60         1.5019   54.8293   27.8595 H         1 UNK         0.0000 
     61 H61        -0.6585   52.6133   32.2228 H         1 UNK         0.0000 
@<TRIPOS>BOND
     1    1    2 1    
     2    1   39 1    
     3    1   40 1    
     4    1   41 1    
     5    2    3 1    
     6    2    4 1    
     7    2   18 1    
     8    4    5 2    
     9    4    6 1    
    10    6   11 ar   
    11    6    7 ar   
    12    7    8 ar   
    13    7   42 1    
    14    8    9 ar   
    15    8   43 1    
    16    9   10 ar   
    17    9   12 1    
    18   10   11 ar   
    19   10   44 1    
    20   11   45 1    
    21   12   16 am   BACKBONE|DICT|INTERRES
    22   12   13 1    
    23   13   14 1    
    24   13   46 1    
    25   13   47 1    
    26   14   15 1    
    27   14   48 1    
    28   14   49 1    
    29   15   16 1    
    30   15   50 1    
    31   15   51 1    
    32   16   17 2    
    33   18   19 1    
    34   19   24 ar   
    35   19   20 ar   
    36   20   21 ar   
    37   21   22 ar   
    38   21   32 1    
    39   22   23 ar   
    40   22   25 1    
    41   23   24 ar   
    42   25   30 ar   
    43   25   26 ar   
    44   26   27 ar   
    45   26   52 1    
    46   27   28 ar   
    47   27   53 1    
    48   28   29 ar   
    49   28   31 1    
    50   29   30 ar   
    51   29   54 1    
    52   30   55 1    
    53   31   56 1    
    54   32   37 ar   
    55   32   33 ar   
    56   33   34 ar   
    57   33   57 1    
    58   34   35 ar   
    59   34   58 1    
    60   35   36 ar   
    61   35   38 1    
    62   36   37 ar   
    63   36   59 1    
    64   37   60 1    
    65   38   61 1    
@<TRIPOS>SUBSTRUCTURE
     1 UNK         1 GROUP             0       ****    0 ROOT    
