@<TRIPOS>MOLECULE
ZINC38537107_6152
25   26    1
SMALL
USER_CHARGES


@<TRIPOS>ATOM
      1 C1          3.1106   54.0970   24.0735 C.3       1 UNK         0.0000 
      2 C2          3.5480   54.0782   25.5223 C.ar      1 UNK         0.0000 
      3 C3          4.7590   54.5029   26.0888 C.ar      1 UNK         0.0000 
      4 C4          4.6392   54.2571   27.4477 C.ar      1 UNK         0.0000 
      5 N5          3.3767   53.7178   27.6112 N.pl3     1 UNK         0.0000 
      6 N6          2.7308   53.6116   26.4375 N.2       1 UNK         0.0000 
      7 C7          2.7280   53.3065   28.8019 C.ar      1 UNK         0.0000 
      8 C8          1.4146   53.7276   29.0792 C.ar      1 UNK         0.0000 
      9 C9          0.7754   53.3093   30.2473 C.ar      1 UNK         0.0000 
     10 C10         1.4488   52.4972   31.1598 C.ar      1 UNK         0.0000 
     11 C11         2.7601   52.0976   30.9032 C.ar      1 UNK         0.0000 
     12 C12         3.3903   52.4743   29.7186 C.ar      1 UNK         0.0000 
     13 F13         4.6352   52.0046   29.4692 F         1 UNK         0.0000 
     14 F14         3.4205   51.3242   31.7971 F         1 UNK         0.0000 
     15 F15         0.8396   52.1080   32.3016 F         1 UNK         0.0000 
     16 F16        -0.4953   53.7040   30.4977 F         1 UNK         0.0000 
     17 F17         0.7540   54.5533   28.2327 F         1 UNK         0.0000 
     18 N18         5.5039   54.4969   28.4868 N.pl3     1 UNK         0.0000 
     19 C19         5.8955   55.0976   25.4109 C.1       1 UNK         0.0000 
     20 N20         6.7983   55.5773   24.8779 N.1       1 UNK         0.0000 
     21 H21         3.0463   55.1155   23.6919 H         1 UNK         0.0000 
     22 H22         3.8187   53.5631   23.4404 H         1 UNK         0.0000 
     23 H23         2.1351   53.6346   23.9156 H         1 UNK         0.0000 
     24 H24         6.3764   54.9981   28.3685 H         1 UNK         0.0000 
     25 H25         5.3061   54.1783   29.4242 H         1 UNK         0.0000 
@<TRIPOS>BOND
     1    1    2 1    
     2    1   21 1    
     3    1   22 1    
     4    1   23 1    
     5    2    6 ar   
     6    2    3 ar   
     7    3    4 ar   
     8    3   19 1    
     9    4    5 ar   
    10    4   18 1    
    11    5    6 ar   
    12    5    7 1    
    13    7   12 ar   
    14    7    8 ar   
    15    8    9 ar   
    16    8   17 1    
    17    9   10 ar   
    18    9   16 1    
    19   10   11 ar   
    20   10   15 1    
    21   11   12 ar   
    22   11   14 1    
    23   12   13 1    
    24   18   24 1    
    25   18   25 1    
    26   19   20 3    
@<TRIPOS>SUBSTRUCTURE
     1 UNK         1 GROUP             0       ****    0 ROOT    
