ZINC09073414_4366
                    3D
 Schrodinger Suite 2024-2.
 50 53  0  0  1  0            999 V2000
    6.6434   55.5652   20.1936 C   0  0  0  0  0  0
    5.8290   55.0735   21.2518 O   0  0  0  0  0  0
    4.9213   54.0561   21.0052 C   0  0  0  0  0  0
    4.7314   53.4847   19.7347 C   0  0  0  0  0  0
    3.7690   52.4969   19.5313 C   0  0  0  0  0  0
    2.9740   52.0634   20.5887 C   0  0  0  0  0  0
    3.1452   52.6159   21.8546 C   0  0  0  0  0  0
    4.1257   53.5874   22.0721 C   0  0  0  0  0  0
    4.2225   54.0965   23.3716 N   0  0  0  0  0  0
    5.3383   54.1533   24.1297 C   0  0  0  0  0  0
    6.4271   53.6968   23.7724 O   0  0  0  0  0  0
    5.1742   54.8518   25.5062 C   0  0  2  0  0  0
    4.7293   55.8024   25.2360 H   0  0  0  0  0  0
    6.5348   55.1482   26.2139 C   0  0  0  0  0  0
    6.9718   54.0611   27.2145 C   0  0  0  0  0  0
    5.9450   53.8018   28.3339 C   0  0  0  0  0  0
    4.5808   53.6375   27.7073 C   0  0  0  0  0  0
    4.2095   54.1081   26.4444 C   0  0  0  0  0  0
    2.9602   53.8453   26.1035 N   0  0  0  0  0  0
    2.3096   53.1866   27.0335 C   0  0  0  0  0  0
    3.2093   52.8965   28.4823 S   0  0  0  0  0  0
    1.0056   52.7216   26.9626 N   0  0  0  0  0  0
    0.3105   52.4963   25.8225 C   0  0  0  0  0  0
    0.7556   52.6782   24.6852 O   0  0  0  0  0  0
   -1.1259   52.0716   26.0151 C   0  0  0  0  0  0
   -1.5181   51.2935   27.1157 C   0  0  0  0  0  0
   -2.8508   50.9247   27.2777 C   0  0  0  0  0  0
   -3.8018   51.3383   26.3487 C   0  0  0  0  0  0
   -3.4273   52.1063   25.2494 C   0  0  0  0  0  0
   -2.0928   52.4648   25.0788 C   0  0  0  0  0  0
   -5.4554   50.8916   26.5573 Cl  0  0  0  0  0  0
    1.7817   50.8418   20.3356 Cl  0  0  0  0  0  0
    7.2990   56.3453   20.5799 H   0  0  0  0  0  0
    7.2776   54.7835   19.7742 H   0  0  0  0  0  0
    6.0412   56.0045   19.3972 H   0  0  0  0  0  0
    5.3178   53.7950   18.8842 H   0  0  0  0  0  0
    3.6492   52.0609   18.5489 H   0  0  0  0  0  0
    2.5220   52.2737   22.6689 H   0  0  0  0  0  0
    3.3472   54.3085   23.8262 H   0  0  0  0  0  0
    6.4679   56.0964   26.7469 H   0  0  0  0  0  0
    7.3236   55.3233   25.4800 H   0  0  0  0  0  0
    7.9046   54.3607   27.6807 H   0  0  0  0  0  0
    7.1689   53.1330   26.6762 H   0  0  0  0  0  0
    5.9379   54.6298   29.0438 H   0  0  0  0  0  0
    6.2192   52.9019   28.8797 H   0  0  0  0  0  0
    0.5897   52.4077   27.8251 H   0  0  0  0  0  0
   -0.8037   50.9347   27.8437 H   0  0  0  0  0  0
   -3.1327   50.3036   28.1173 H   0  0  0  0  0  0
   -4.1684   52.4187   24.5285 H   0  0  0  0  0  0
   -1.8176   53.0595   24.2187 H   0  0  0  0  0  0
  1  2  1  0  0  0
  1 33  1  0  0  0
  1 34  1  0  0  0
  1 35  1  0  0  0
  2  3  1  0  0  0
  3  8  2  0  0  0
  3  4  1  0  0  0
  4  5  2  0  0  0
  4 36  1  0  0  0
  5  6  1  0  0  0
  5 37  1  0  0  0
  6  7  2  0  0  0
  6 32  1  0  0  0
  7  8  1  0  0  0
  7 38  1  0  0  0
  8  9  1  0  0  0
  9 10  1  0  0  0
  9 39  1  0  0  0
 10 11  2  0  0  0
 10 12  1  0  0  0
 12 13  1  0  0  0
 12 18  1  0  0  0
 12 14  1  0  0  0
 14 15  1  0  0  0
 14 40  1  0  0  0
 14 41  1  0  0  0
 15 16  1  0  0  0
 15 42  1  0  0  0
 15 43  1  0  0  0
 16 17  1  0  0  0
 16 44  1  0  0  0
 16 45  1  0  0  0
 17 21  1  0  0  0
 17 18  2  0  0  0
 18 19  1  0  0  0
 19 20  2  0  0  0
 20 21  1  0  0  0
 20 22  1  0  0  0
 22 23  1  0  0  0
 22 46  1  0  0  0
 23 24  2  0  0  0
 23 25  1  0  0  0
 25 30  2  0  0  0
 25 26  1  0  0  0
 26 27  2  0  0  0
 26 47  1  0  0  0
 27 28  1  0  0  0
 27 48  1  0  0  0
 28 29  2  0  0  0
 28 31  1  0  0  0
 29 30  1  0  0  0
 29 49  1  0  0  0
 30 50  1  0  0  0
M  END
> <i_i_glide_confnum>
85

> <i_i_glide_lignum>
4367

> <i_i_glide_posenum>
234

> <i_i_glide_rotatable_bonds>
7

> <i_m_Source_File_Index>
2043

> <b_m_subgroup_collapsed>
0

> <r_i_docking_score>
-4.74201

> <r_i_glide_ecoul>
0.10698

> <r_i_glide_eff_state_penalty>
0

> <r_i_glide_einternal>
9.64358

> <r_i_glide_emodel>
-52.704

> <r_i_glide_energy>
-43.3579

> <r_i_glide_erotb>
0.535379

> <r_i_glide_esite>
0

> <r_i_glide_evdw>
-43.4649

> <r_i_glide_gscore>
-4.74201

> <r_i_glide_hbond>
0

> <r_i_glide_ligand_efficiency>
-0.152968

> <r_i_glide_ligand_efficiency_ln>
-1.06947

> <r_i_glide_ligand_efficiency_sa>
-0.480531

> <r_i_glide_lipo>
-2.44571

> <r_i_glide_metal>
0

> <r_i_glide_rewards>
-0.674487

> <s_i_glide_gridfile>
wee1_glide-grid

> <s_m_Source_File>
wee1_decoys_glide_SP.sdf

> <s_m_Source_Path>
/Users/zhangxujun/Desktop

> <s_m_entry_id>
2318

> <s_m_entry_name>
wee1_decoys_glide_SP.2043

> <s_m_subgroup_title>
wee1_decoys_glide_SP

> <s_m_subgroupid>
wee1_decoys_glide_SP


$$$$
