@<TRIPOS>MOLECULE
ZINC01876431_4641
50   53    1
SMALL
USER_CHARGES


@<TRIPOS>ATOM
      1 C1          5.7393   54.7882   26.8725 C.3       1 UNK         0.0000 
      2 C2          5.4297   54.4975   25.4153 C.ar      1 UNK         0.0000 
      3 C3          6.4736   54.3688   24.4995 C.ar      1 UNK         0.0000 
      4 C4          6.1993   54.0993   23.1637 C.ar      1 UNK         0.0000 
      5 C5          4.8749   53.9594   22.7192 C.ar      1 UNK         0.0000 
      6 C6          3.8297   54.0962   23.6490 C.ar      1 UNK         0.0000 
      7 C7          4.1077   54.3651   24.9884 C.ar      1 UNK         0.0000 
      8 N8          4.5955   53.7086   21.3437 N.pl3     1 UNK         0.0000 
      9 C9          5.1611   54.5098   20.3586 C.ar      1 UNK         0.0000 
     10 C10         4.9003   54.3507   19.0468 C.ar      1 UNK         0.0000 
     11 C11         3.9928   53.2993   18.6063 C.ar      1 UNK         0.0000 
     12 N12         3.5420   52.5375   19.6349 N.pl3     1 UNK         0.0000 
     13 C13         3.7811   52.6437   20.9779 C.ar      1 UNK         0.0000 
     14 O14         3.2698   51.8173   21.7325 O.2       1 UNK         0.0000 
     15 O15         3.6620   53.1012   17.4411 O.2       1 UNK         0.0000 
     16 C16         5.7347   55.3189   18.2403 C.3       1 UNK         0.0000 
     17 C17         6.3587   56.1653   19.3810 C.2       1 UNK         0.0000 
     18 O18         7.0217   57.1966   19.2798 O.2       1 UNK         0.0000 
     19 N19         6.0128   55.5570   20.5263 N.am      1 UNK         0.0000 
     20 C20         4.9083   56.2645   17.3069 C.3       1 UNK         0.0000 
     21 F21         5.6711   57.2021   16.7346 F         1 UNK         0.0000 
     22 F22         4.3387   55.6006   16.2992 F         1 UNK         0.0000 
     23 F23         3.9271   56.8962   17.9501 F         1 UNK         0.0000 
     24 N24         6.6933   54.5440   17.4087 N.am      1 UNK         0.0000 
     25 C25         7.9553   54.1148   17.6328 C.2       1 UNK         0.0000 
     26 O26         8.6445   54.4981   18.5792 O.2       1 UNK         0.0000 
     27 C27         8.4962   53.0896   16.6557 C.ar      1 UNK         0.0000 
     28 C28         9.7792   52.5557   16.8511 C.ar      1 UNK         0.0000 
     29 C29        10.2906   51.5809   15.9962 C.ar      1 UNK         0.0000 
     30 C30         9.5364   51.1347   14.9127 C.ar      1 UNK         0.0000 
     31 C31         8.2625   51.6619   14.6766 C.ar      1 UNK         0.0000 
     32 C32         7.7512   52.6301   15.5522 C.ar      1 UNK         0.0000 
     33 C33         7.4349   51.1853   13.4850 C.3       1 UNK         0.0000 
     34 F34         7.7510   49.9361   13.1370 F         1 UNK         0.0000 
     35 F35         6.1277   51.2224   13.7525 F         1 UNK         0.0000 
     36 F36         7.6744   51.9861   12.4468 F         1 UNK         0.0000 
     37 H37         6.6021   55.4485   26.9631 H         1 UNK         0.0000 
     38 H38         4.9068   55.2958   27.3609 H         1 UNK         0.0000 
     39 H39         5.9571   53.8665   27.4108 H         1 UNK         0.0000 
     40 H40         7.5039   54.4735   24.8137 H         1 UNK         0.0000 
     41 H41         7.0313   54.0065   22.4823 H         1 UNK         0.0000 
     42 H42         2.8017   53.9970   23.3365 H         1 UNK         0.0000 
     43 H43         3.2945   54.4720   25.6889 H         1 UNK         0.0000 
     44 H44         2.9541   51.7661   19.3626 H         1 UNK         0.0000 
     45 H45         6.3066   55.8811   21.4354 H         1 UNK         0.0000 
     46 H46         6.2294   54.0689   16.6506 H         1 UNK         0.0000 
     47 H47        10.3905   52.8791   17.6830 H         1 UNK         0.0000 
     48 H48        11.2733   51.1725   16.1745 H         1 UNK         0.0000 
     49 H49         9.9467   50.3815   14.2573 H         1 UNK         0.0000 
     50 H50         6.7611   53.0176   15.3554 H         1 UNK         0.0000 
@<TRIPOS>BOND
     1    1    2 1    
     2    1   37 1    
     3    1   38 1    
     4    1   39 1    
     5    2    7 ar   
     6    2    3 ar   
     7    3    4 ar   
     8    3   40 1    
     9    4    5 ar   
    10    4   41 1    
    11    5    6 ar   
    12    5    8 1    
    13    6    7 ar   
    14    6   42 1    
    15    7   43 1    
    16    8    9 ar   
    17    8   13 ar   
    18    9   19 1    
    19    9   10 ar   
    20   10   11 ar   
    21   10   16 1    
    22   11   12 ar   
    23   11   15 2    
    24   12   13 ar   
    25   12   44 1    
    26   13   14 2    
    27   16   17 1    
    28   16   20 1    
    29   16   24 1    
    30   17   18 2    
    31   17   19 am   BACKBONE|DICT|INTERRES
    32   19   45 1    
    33   20   21 1    
    34   20   22 1    
    35   20   23 1    
    36   24   25 am   BACKBONE|DICT|INTERRES
    37   24   46 1    
    38   25   26 2    
    39   25   27 1    
    40   27   32 ar   
    41   27   28 ar   
    42   28   29 ar   
    43   28   47 1    
    44   29   30 ar   
    45   29   48 1    
    46   30   31 ar   
    47   30   49 1    
    48   31   32 ar   
    49   31   33 1    
    50   32   50 1    
    51   33   34 1    
    52   33   35 1    
    53   33   36 1    
@<TRIPOS>SUBSTRUCTURE
     1 UNK         1 GROUP             0       ****    0 ROOT    
