@<TRIPOS>MOLECULE
ZINC13241638_5786
57   60    1
SMALL
USER_CHARGES


@<TRIPOS>ATOM
      1 C1         -2.4219   51.8492   25.8511 C.3       1 UNK         0.0000 
      2 C2         -3.0894   50.4823   25.9707 C.ar      1 UNK         0.0000 
      3 C3         -4.2932   50.4038   26.6710 C.ar      1 UNK         0.0000 
      4 C4         -4.9238   49.1826   26.8580 C.ar      1 UNK         0.0000 
      5 C5         -4.3521   48.0227   26.3497 C.ar      1 UNK         0.0000 
      6 C6         -3.1465   48.0431   25.6238 C.ar      1 UNK         0.0000 
      7 C7         -2.5192   49.3068   25.4238 C.ar      1 UNK         0.0000 
      8 N8         -1.3017   49.4062   24.7292 N.am      1 UNK         0.0000 
      9 C9         -1.1817   49.8593   23.4668 C.2       1 UNK         0.0000 
     10 O10        -2.1275   50.2646   22.7858 O.2       1 UNK         0.0000 
     11 C11         0.2314   49.8504   22.8778 C.3       1 UNK         0.0000 
     12 S12         0.6995   51.4483   22.1259 S.3       1 UNK         0.0000 
     13 C13         1.3425   52.2851   23.5433 C.ar      1 UNK         0.0000 
     14 N14         0.9681   52.0694   24.7804 N.2       1 UNK         0.0000 
     15 N15         1.7234   52.8966   25.6021 N.2       1 UNK         0.0000 
     16 C16         2.5474   53.5637   24.8321 C.ar      1 UNK         0.0000 
     17 N17         2.3155   53.2612   23.5062 N.pl3     1 UNK         0.0000 
     18 C18         2.9790   53.8187   22.3351 C.3       1 UNK         0.0000 
     19 C19         4.3193   53.1116   22.0720 C.3       1 UNK         0.0000 
     20 C20         5.1044   53.7871   20.9628 C.ar      1 UNK         0.0000 
     21 C21         5.0384   53.2951   19.6566 C.ar      1 UNK         0.0000 
     22 C22         5.7782   53.9030   18.6475 C.ar      1 UNK         0.0000 
     23 C23         6.5717   55.0100   18.9431 C.ar      1 UNK         0.0000 
     24 C24         6.6393   55.5096   20.2425 C.ar      1 UNK         0.0000 
     25 C25         5.9047   54.8965   21.2554 C.ar      1 UNK         0.0000 
     26 C26         3.5770   54.5845   25.3050 C.3       1 UNK         0.0000 
     27 C27         4.1209   54.3403   26.6968 C.2       1 UNK         0.0000 
     28 C28         5.4288   54.0481   27.0795 C.2       1 UNK         0.0000 
     29 C29         5.6161   53.9258   28.4572 C.2       1 UNK         0.0000 
     30 C30         4.4475   54.1331   29.1681 C.2       1 UNK         0.0000 
     31 S31         3.1211   54.4966   28.1220 S.3       1 UNK         0.0000 
     32 C32        -2.6052   46.7279   25.0988 C.2       1 UNK         0.0000 
     33 O33        -3.2965   45.6970   25.2815 O.co2     1 UNK         0.0000 
     34 H34        -2.2443   52.1102   24.8064 H         1 UNK         0.0000 
     35 H35        -3.0279   52.6483   26.2873 H         1 UNK         0.0000 
     36 H36        -1.4552   51.8373   26.3584 H         1 UNK         0.0000 
     37 H37        -4.7417   51.2939   27.0907 H         1 UNK         0.0000 
     38 H38        -5.8480   49.1285   27.4117 H         1 UNK         0.0000 
     39 H39        -4.8664   47.0909   26.5353 H         1 UNK         0.0000 
     40 H40        -0.5241   48.9114   25.1418 H         1 UNK         0.0000 
     41 H41         0.9762   49.5423   23.6099 H         1 UNK         0.0000 
     42 H42         0.2437   49.0937   22.0946 H         1 UNK         0.0000 
     43 H43         2.3133   53.6967   21.4793 H         1 UNK         0.0000 
     44 H44         3.1081   54.8904   22.4957 H         1 UNK         0.0000 
     45 H45         4.9416   53.0915   22.9668 H         1 UNK         0.0000 
     46 H46         4.1455   52.0652   21.8096 H         1 UNK         0.0000 
     47 H47         4.4334   52.4296   19.4195 H         1 UNK         0.0000 
     48 H48         5.7366   53.5143   17.6402 H         1 UNK         0.0000 
     49 H49         7.1440   55.4821   18.1567 H         1 UNK         0.0000 
     50 H50         7.2681   56.3593   20.4608 H         1 UNK         0.0000 
     51 H51         5.9647   55.2809   22.2646 H         1 UNK         0.0000 
     52 H52         4.4090   54.6424   24.6062 H         1 UNK         0.0000 
     53 H53         3.1271   55.5697   25.2790 H         1 UNK         0.0000 
     54 H54         6.2315   53.9164   26.3683 H         1 UNK         0.0000 
     55 H55         6.5728   53.7014   28.9073 H         1 UNK         0.0000 
     56 H56         4.3068   54.0994   30.2351 H         1 UNK         0.0000 
     57 O57        -1.5157   46.6882   24.4820 O.co2     1 UNK         0.0000 
@<TRIPOS>BOND
     1    1    2 1    
     2    1   34 1    
     3    1   35 1    
     4    1   36 1    
     5    2    7 ar   
     6    2    3 ar   
     7    3    4 ar   
     8    3   37 1    
     9    4    5 ar   
    10    4   38 1    
    11    5    6 ar   
    12    5   39 1    
    13    6    7 ar   
    14    6   32 1    
    15    7    8 1    
    16    8    9 am   BACKBONE|DICT|INTERRES
    17    8   40 1    
    18    9   10 2    
    19    9   11 1    
    20   11   12 1    
    21   11   41 1    
    22   11   42 1    
    23   12   13 1    
    24   13   17 ar   
    25   13   14 ar   
    26   14   15 ar   
    27   15   16 ar   
    28   16   17 ar   
    29   16   26 1    
    30   17   18 1    
    31   18   19 1    
    32   18   43 1    
    33   18   44 1    
    34   19   20 1    
    35   19   45 1    
    36   19   46 1    
    37   20   25 ar   
    38   20   21 ar   
    39   21   22 ar   
    40   21   47 1    
    41   22   23 ar   
    42   22   48 1    
    43   23   24 ar   
    44   23   49 1    
    45   24   25 ar   
    46   24   50 1    
    47   25   51 1    
    48   26   27 1    
    49   26   52 1    
    50   26   53 1    
    51   27   31 1    
    52   27   28 2    
    53   28   29 1    
    54   28   54 1    
    55   29   30 2    
    56   29   55 1    
    57   30   31 1    
    58   30   56 1    
    59   32   33 2    
    60   32   57 1    
@<TRIPOS>SUBSTRUCTURE
     1 UNK         1 GROUP             0       ****    0 ROOT    
