ZINC39662568_1281
                    3D
 Schrodinger Suite 2024-2.
 64 68  0  0  1  0            999 V2000
    5.9157   54.5734   25.9648 C   0  0  0  0  0  0
    6.7039   54.4931   24.8196 C   0  0  0  0  0  0
    6.1083   54.4084   23.5665 C   0  0  0  0  0  0
    4.7120   54.4129   23.4521 C   0  0  0  0  0  0
    3.9263   54.4927   24.6090 C   0  0  0  0  0  0
    4.5270   54.5734   25.8635 C   0  0  0  0  0  0
    4.0208   54.4015   22.0803 C   0  0  1  0  0  0
    3.3945   55.2957   22.0655 H   0  0  0  0  0  0
    4.9397   54.5954   20.9344 C   0  0  0  0  0  0
    5.6567   54.7516   20.0385 N   0  0  0  0  0  0
    3.1206   53.2641   21.8814 N   0  0  0  0  0  0
    3.5159   51.9937   21.6780 C   0  0  0  0  0  0
    4.7005   51.6969   21.5338 O   0  0  0  0  0  0
    2.4502   50.8675   21.6348 C   0  0  1  0  0  0
    2.9664   49.9686   21.9785 H   0  0  0  0  0  0
    1.3444   51.1307   22.6846 C   0  0  0  0  0  0
    0.1009   51.2209   21.9251 N   0  0  0  0  0  0
    0.2580   50.5418   20.6378 C   0  0  0  0  0  0
    1.7551   50.6285   20.2474 C   0  0  0  0  0  0
    1.9718   51.7547   19.1814 C   0  0  0  0  0  0
    1.1747   51.5159   17.8738 C   0  0  0  0  0  0
    1.5116   50.1145   17.3058 N   0  3  0  0  0  0
    1.4501   48.9590   18.3284 C   0  0  0  0  0  0
    2.3016   49.3553   19.5514 C   0  0  0  0  0  0
   -1.1280   51.6121   22.3622 C   0  0  0  0  0  0
   -2.0854   51.7007   21.5902 O   0  0  0  0  0  0
   -1.3564   51.8974   23.7710 C   0  0  0  0  0  0
   -2.5463   52.2214   24.4138 C   0  0  0  0  0  0
   -2.2635   52.3303   25.7746 C   0  0  0  0  0  0
   -0.9026   52.1110   25.9292 C   0  0  0  0  0  0
   -0.3638   51.8456   24.7048 O   0  0  0  0  0  0
    0.0071   52.1660   27.1124 C   0  0  0  0  0  0
    1.3752   52.4199   26.9609 C   0  0  0  0  0  0
    2.1993   52.4962   28.0820 C   0  0  0  0  0  0
    1.6559   52.3365   29.3547 C   0  0  0  0  0  0
    0.2946   52.0963   29.5175 C   0  0  0  0  0  0
   -0.5242   51.9966   28.3948 C   0  0  0  0  0  0
    2.4598   52.4059   30.4404 F   0  0  0  0  0  0
    6.3801   54.6394   26.9377 H   0  0  0  0  0  0
    7.7811   54.4960   24.8860 H   0  0  0  0  0  0
    6.7453   54.3501   22.6960 H   0  0  0  0  0  0
    2.8486   54.5139   24.5318 H   0  0  0  0  0  0
    3.9215   54.6554   26.7528 H   0  0  0  0  0  0
    2.1386   53.4803   21.7916 H   0  0  0  0  0  0
    1.2718   50.2735   23.3582 H   0  0  0  0  0  0
    1.5368   51.9828   23.3378 H   0  0  0  0  0  0
   -0.4492   50.8162   19.8587 H   0  0  0  0  0  0
    0.0085   49.5036   20.8597 H   0  0  0  0  0  0
    1.6429   52.7142   19.5861 H   0  0  0  0  0  0
    3.0335   51.8808   18.9481 H   0  0  0  0  0  0
    0.0930   51.5495   17.9968 H   0  0  0  0  0  0
    1.4501   52.2301   17.0962 H   0  0  0  0  0  0
    0.9341   49.9079   16.5007 H   0  0  0  0  0  0
    0.3977   48.7820   18.5547 H   0  0  0  0  0  0
    1.8603   48.0881   17.8139 H   0  0  0  0  0  0
    3.3581   49.4594   19.2923 H   0  0  0  0  0  0
    2.2528   48.5155   20.2462 H   0  0  0  0  0  0
   -3.5146   52.3405   23.9492 H   0  0  0  0  0  0
   -2.9689   52.5655   26.5566 H   0  0  0  0  0  0
    1.8020   52.5497   25.9776 H   0  0  0  0  0  0
    3.2588   52.6703   27.9674 H   0  0  0  0  0  0
   -0.1213   51.9660   30.5067 H   0  0  0  0  0  0
   -1.5751   51.7844   28.5314 H   0  0  0  0  0  0
    2.4743   50.1247   16.9603 H   0  0  0  0  0  0
  1  6  2  0  0  0
  1  2  1  0  0  0
  1 39  1  0  0  0
  2  3  2  0  0  0
  2 40  1  0  0  0
  3  4  1  0  0  0
  3 41  1  0  0  0
  4  5  2  0  0  0
  4  7  1  0  0  0
  5  6  1  0  0  0
  5 42  1  0  0  0
  6 43  1  0  0  0
  7  8  1  0  0  0
  7  9  1  0  0  0
  7 11  1  0  0  0
  9 10  3  0  0  0
 11 12  1  0  0  0
 11 44  1  0  0  0
 12 13  2  0  0  0
 12 14  1  0  0  0
 14 15  1  0  0  0
 14 19  1  0  0  0
 14 16  1  0  0  0
 16 17  1  0  0  0
 16 45  1  0  0  0
 16 46  1  0  0  0
 17 18  1  0  0  0
 17 25  1  0  0  0
 18 19  1  0  0  0
 18 47  1  0  0  0
 18 48  1  0  0  0
 19 24  1  0  0  0
 19 20  1  0  0  0
 20 21  1  0  0  0
 20 49  1  0  0  0
 20 50  1  0  0  0
 21 22  1  0  0  0
 21 51  1  0  0  0
 21 52  1  0  0  0
 22 23  1  0  0  0
 22 53  1  0  0  0
 22 64  1  0  0  0
 23 24  1  0  0  0
 23 54  1  0  0  0
 23 55  1  0  0  0
 24 56  1  0  0  0
 24 57  1  0  0  0
 25 26  2  0  0  0
 25 27  1  0  0  0
 27 31  1  0  0  0
 27 28  2  0  0  0
 28 29  1  0  0  0
 28 58  1  0  0  0
 29 30  2  0  0  0
 29 59  1  0  0  0
 30 31  1  0  0  0
 30 32  1  0  0  0
 32 37  2  0  0  0
 32 33  1  0  0  0
 33 34  2  0  0  0
 33 60  1  0  0  0
 34 35  1  0  0  0
 34 61  1  0  0  0
 35 36  2  0  0  0
 35 38  1  0  0  0
 36 37  1  0  0  0
 36 62  1  0  0  0
 37 63  1  0  0  0
M  CHG  1  22   1
M  END
> <i_i_glide_confnum>
52

> <i_i_glide_lignum>
1282

> <i_i_glide_posenum>
354

> <i_i_glide_rotatable_bonds>
8

> <i_m_Source_File_Index>
2788

> <b_m_subgroup_collapsed>
0

> <r_i_docking_score>
-5.75094

> <r_i_glide_ecoul>
-7.62493

> <r_i_glide_eff_state_penalty>
0

> <r_i_glide_einternal>
7.10872

> <r_i_glide_emodel>
-72.9856

> <r_i_glide_energy>
-53.717

> <r_i_glide_erotb>
0.51317

> <r_i_glide_esite>
-0.127091

> <r_i_glide_evdw>
-46.092

> <r_i_glide_gscore>
-5.75094

> <r_i_glide_hbond>
-0.2

> <r_i_glide_ligand_efficiency>
-0.159748

> <r_i_glide_ligand_efficiency_ln>
-1.2547

> <r_i_glide_ligand_efficiency_sa>
-0.527477

> <r_i_glide_lipo>
-2.31419

> <r_i_glide_metal>
0

> <r_i_glide_rewards>
-0.174487

> <s_i_glide_gridfile>
wee1_glide-grid

> <s_m_Source_File>
wee1_decoys_glide_SP.sdf

> <s_m_Source_Path>
/Users/zhangxujun/Desktop

> <s_m_entry_id>
3063

> <s_m_entry_name>
wee1_decoys_glide_SP.2788

> <s_m_subgroup_title>
wee1_decoys_glide_SP

> <s_m_subgroupid>
wee1_decoys_glide_SP


$$$$
