@<TRIPOS>MOLECULE
ZINC39666225_786
69   73    1
SMALL
USER_CHARGES


@<TRIPOS>ATOM
      1 C1          1.2003   55.2072   15.9902 C.3       1 UNK         0.0000 
      2 C2          1.1124   53.9775   16.8762 C.ar      1 UNK         0.0000 
      3 C3         -0.1150   53.6038   17.4249 C.ar      1 UNK         0.0000 
      4 C4         -0.1912   52.4923   18.2599 C.ar      1 UNK         0.0000 
      5 C5          0.9483   51.7442   18.5541 C.ar      1 UNK         0.0000 
      6 C6          2.1789   52.1193   17.9906 C.ar      1 UNK         0.0000 
      7 C7          2.2591   53.2356   17.1616 C.ar      1 UNK         0.0000 
      8 O8          0.7622   50.6677   19.4016 O.3       1 UNK         0.0000 
      9 C9          1.8687   49.8551   19.8034 C.3       1 UNK         0.0000 
     10 H10         2.7398   50.4756   20.0223 H         1 UNK         0.0000 
     11 C11         2.1844   48.8457   18.6847 C.3       1 UNK         0.0000 
     12 C12         1.4936   49.1209   21.1087 C.3       1 UNK         0.0000 
     13 N13         1.1224   49.9924   22.2318 N.am      1 UNK         0.0000 
     14 C14        -0.1374   50.3883   22.5037 C.2       1 UNK         0.0000 
     15 O15        -1.0908   50.0899   21.7839 O.2       1 UNK         0.0000 
     16 C16        -0.4405   51.1659   23.8070 C.3       1 UNK         0.0000 
     17 H17        -1.1877   51.9129   23.5319 H         1 UNK         0.0000 
     18 C18         0.7674   51.9587   24.3599 C.3       1 UNK         0.0000 
     19 N19         0.4725   52.0439   25.7981 N.am      1 UNK         0.0000 
     20 C20        -0.6857   51.2156   26.1598 C.3       1 UNK         0.0000 
     21 C21        -0.9127   50.2684   24.9787 C.3       1 UNK         0.0000 
     22 C22        -2.4327   49.9017   24.9188 C.3       1 UNK         0.0000 
     23 C23        -2.8273   48.5050   24.4153 C.3       1 UNK         0.0000 
     24 N24        -1.8954   47.4587   25.0436 N.4       1 UNK         0.0000 
     25 C25        -0.4596   47.7070   24.5663 C.3       1 UNK         0.0000 
     26 C26         0.0192   49.0196   25.1937 C.3       1 UNK         0.0000 
     27 C27         1.3331   52.6172   26.6865 C.2       1 UNK         0.0000 
     28 O28         2.3827   53.1556   26.3348 O.2       1 UNK         0.0000 
     29 C29         1.0001   52.5367   28.1003 C.2       1 UNK         0.0000 
     30 C30        -0.2740   52.6965   28.6172 C.2       1 UNK         0.0000 
     31 S31        -0.4251   52.4961   30.3269 S.3       1 UNK         0.0000 
     32 C32         1.2978   52.3336   30.4544 C.ar      1 UNK         0.0000 
     33 C33         1.9417   52.4135   29.1767 C.ar      1 UNK         0.0000 
     34 C34         3.3419   52.3067   29.1597 C.ar      1 UNK         0.0000 
     35 C35         4.0363   52.1273   30.3490 C.ar      1 UNK         0.0000 
     36 C36         3.3864   52.0630   31.5725 C.ar      1 UNK         0.0000 
     37 C37         2.0006   52.1278   31.6479 C.ar      1 UNK         0.0000 
     38 H38         2.2130   55.6118   15.9635 H         1 UNK         0.0000 
     39 H39         0.5587   56.0022   16.3695 H         1 UNK         0.0000 
     40 H40         0.8870   54.9673   14.9736 H         1 UNK         0.0000 
     41 H41        -1.0055   54.1763   17.2121 H         1 UNK         0.0000 
     42 H42        -1.1404   52.2044   18.6872 H         1 UNK         0.0000 
     43 H43         3.0833   51.5585   18.1739 H         1 UNK         0.0000 
     44 H44         3.2150   53.5151   16.7418 H         1 UNK         0.0000 
     45 H45         3.1045   48.2990   18.8880 H         1 UNK         0.0000 
     46 H46         1.3821   48.1192   18.5618 H         1 UNK         0.0000 
     47 H47         2.3047   49.3413   17.7219 H         1 UNK         0.0000 
     48 H48         0.6817   48.4203   20.8984 H         1 UNK         0.0000 
     49 H49         2.3353   48.5018   21.4274 H         1 UNK         0.0000 
     50 H50         1.8651   50.2604   22.8570 H         1 UNK         0.0000 
     51 H51         1.6895   51.3799   24.2837 H         1 UNK         0.0000 
     52 H52         0.8882   52.9375   23.8917 H         1 UNK         0.0000 
     53 H53        -1.5535   51.8747   26.1825 H         1 UNK         0.0000 
     54 H54        -0.6230   50.6549   27.0948 H         1 UNK         0.0000 
     55 H55        -2.7574   49.8240   25.9593 H         1 UNK         0.0000 
     56 H56        -3.0514   50.7108   24.5277 H         1 UNK         0.0000 
     57 H57        -3.8464   48.2367   24.7014 H         1 UNK         0.0000 
     58 H58        -2.7296   48.4139   23.3312 H         1 UNK         0.0000 
     59 H59        -1.9206   47.5270   26.0569 H         1 UNK         0.0000 
     60 H60         0.1494   46.8660   24.8815 H         1 UNK         0.0000 
     61 H61        -0.4765   47.7277   23.4749 H         1 UNK         0.0000 
     62 H62         1.0795   49.2260   25.0354 H         1 UNK         0.0000 
     63 H63        -0.0111   48.7714   26.2589 H         1 UNK         0.0000 
     64 H64        -1.1767   52.8736   28.0572 H         1 UNK         0.0000 
     65 H65         3.8840   52.3447   28.2255 H         1 UNK         0.0000 
     66 H66         5.1040   52.0322   30.3117 H         1 UNK         0.0000 
     67 H67         3.9573   51.9261   32.4815 H         1 UNK         0.0000 
     68 H68         1.4759   52.0575   32.5928 H         1 UNK         0.0000 
     69 H69        -2.1937   46.5281   24.7927 H         1 UNK         0.0000 
@<TRIPOS>BOND
     1    1    2 1    
     2    1   38 1    
     3    1   39 1    
     4    1   40 1    
     5    2    7 ar   
     6    2    3 ar   
     7    3    4 ar   
     8    3   41 1    
     9    4    5 ar   
    10    4   42 1    
    11    5    6 ar   
    12    5    8 1    
    13    6    7 ar   
    14    6   43 1    
    15    7   44 1    
    16    8    9 1    
    17    9   10 1    
    18    9   11 1    
    19    9   12 1    
    20   11   45 1    
    21   11   46 1    
    22   11   47 1    
    23   12   13 1    
    24   12   48 1    
    25   12   49 1    
    26   13   14 am   BACKBONE|DICT|INTERRES
    27   13   50 1    
    28   14   15 2    
    29   14   16 1    
    30   16   17 1    
    31   16   21 1    
    32   16   18 1    
    33   18   19 1    
    34   18   51 1    
    35   18   52 1    
    36   19   20 1    
    37   19   27 am   BACKBONE|DICT|INTERRES
    38   20   21 1    
    39   20   53 1    
    40   20   54 1    
    41   21   26 1    
    42   21   22 1    
    43   22   23 1    
    44   22   55 1    
    45   22   56 1    
    46   23   24 1    
    47   23   57 1    
    48   23   58 1    
    49   24   25 1    
    50   24   59 1    
    51   24   69 1    
    52   25   26 1    
    53   25   60 1    
    54   25   61 1    
    55   26   62 1    
    56   26   63 1    
    57   27   28 2    
    58   27   29 1    
    59   29   33 1    
    60   29   30 2    
    61   30   31 1    
    62   30   64 1    
    63   31   32 1    
    64   32   37 ar   
    65   32   33 ar   
    66   33   34 ar   
    67   34   35 ar   
    68   34   65 1    
    69   35   36 ar   
    70   35   66 1    
    71   36   37 ar   
    72   36   67 1    
    73   37   68 1    
@<TRIPOS>SUBSTRUCTURE
     1 UNK         1 GROUP             0       ****    0 ROOT    
