ZINC26062032_3730
                    3D
 Schrodinger Suite 2024-2.
 68 72  0  0  1  0            999 V2000
    6.3640   55.4645   20.9745 C   0  0  0  0  0  0
    5.2170   54.5984   20.4078 C   0  0  0  0  0  0
    5.6638   53.9832   19.0652 C   0  0  0  0  0  0
    4.6010   53.5074   21.3525 C   0  0  1  0  0  0
    5.3313   52.6994   21.4527 H   0  0  0  0  0  0
    4.2952   54.0382   22.7837 C   0  0  0  0  0  0
    3.1444   54.3398   23.1109 O   0  0  0  0  0  0
    5.3582   54.0967   23.6124 N   0  0  0  0  0  0
    5.3732   54.2837   25.0051 C   0  0  0  0  0  0
    6.5504   54.8046   25.5452 C   0  0  0  0  0  0
    6.7025   54.8960   26.9284 C   0  0  0  0  0  0
    5.7068   54.4450   27.7819 C   0  0  0  0  0  0
    4.5251   53.9233   27.2598 C   0  0  0  0  0  0
    4.3442   53.8598   25.8707 C   0  0  0  0  0  0
    3.3067   53.2815   28.4027 S   0  0  0  0  0  0
    2.0244   53.2151   27.6972 O   0  0  0  0  0  0
    3.8935   52.0972   29.0324 O   0  0  0  0  0  0
    3.1980   54.4822   29.6817 N   0  0  0  0  0  0
    2.5700   55.7827   29.4427 C   0  0  0  0  0  0
    1.1041   55.7812   29.1800 C   0  0  0  0  0  0
    1.6059   56.2903   30.4956 C   0  0  0  0  0  0
    3.3988   52.9426   20.7267 N   0  0  0  0  0  0
    2.9336   51.6952   20.9059 C   0  0  0  0  0  0
    3.5042   50.8969   21.6474 O   0  0  0  0  0  0
    1.6553   51.2612   20.1280 C   0  0  0  0  0  0
    2.0970   50.3580   18.9335 C   0  0  0  0  0  0
    0.8492   49.8673   18.1544 C   0  0  1  0  0  0
   -0.0688   49.0525   19.1051 C   0  0  0  0  0  0
   -0.5263   49.9474   20.2880 C   0  0  1  0  0  0
    0.7197   50.4378   21.0715 C   0  0  0  0  0  0
   -1.3061   51.1728   19.7417 C   0  0  0  0  0  0
   -0.3957   51.9897   18.7873 C   0  0  2  0  0  0
    0.0662   51.0911   17.6094 C   0  0  0  0  0  0
    0.8508   52.4857   19.5631 C   0  0  0  0  0  0
    7.1936   54.8675   21.3477 H   0  0  0  0  0  0
    6.7656   56.1325   20.2120 H   0  0  0  0  0  0
    6.0232   56.0979   21.7863 H   0  0  0  0  0  0
    4.4219   55.2921   20.1409 H   0  0  0  0  0  0
    6.4334   53.2246   19.2087 H   0  0  0  0  0  0
    4.8336   53.5044   18.5439 H   0  0  0  0  0  0
    6.0658   54.7402   18.3909 H   0  0  0  0  0  0
    6.2602   53.9382   23.1902 H   0  0  0  0  0  0
    7.3527   55.1255   24.8956 H   0  0  0  0  0  0
    7.6001   55.2965   27.3690 H   0  0  0  0  0  0
    5.8670   54.4986   28.8493 H   0  0  0  0  0  0
    3.4445   53.4130   25.4737 H   0  0  0  0  0  0
    3.9607   54.4556   30.3596 H   0  0  0  0  0  0
    3.1447   56.4969   28.8815 H   0  0  0  0  0  0
    0.7046   56.5073   28.4810 H   0  0  0  0  0  0
    0.5720   54.8310   29.1488 H   0  0  0  0  0  0
    1.3759   55.6969   31.3767 H   0  0  0  0  0  0
    1.5917   57.3596   30.7024 H   0  0  0  0  0  0
    2.8666   53.5811   20.1517 H   0  0  0  0  0  0
    2.6750   49.4982   19.2820 H   0  0  0  0  0  0
    2.7611   50.9005   18.2566 H   0  0  0  0  0  0
    1.1698   49.2379   17.3230 H   0  0  0  0  0  0
   -0.9346   48.6749   18.5584 H   0  0  0  0  0  0
    0.4609   48.1758   19.4788 H   0  0  0  0  0  0
   -1.1730   49.3713   20.9529 H   0  0  0  0  0  0
    0.4073   51.0410   21.9264 H   0  0  0  0  0  0
    1.2440   49.5749   21.4876 H   0  0  0  0  0  0
   -1.6475   51.8004   20.5673 H   0  0  0  0  0  0
   -2.2059   50.8475   19.2178 H   0  0  0  0  0  0
   -0.9475   52.8480   18.3976 H   0  0  0  0  0  0
   -0.7932   50.7621   17.0228 H   0  0  0  0  0  0
    0.6925   51.6630   16.9230 H   0  0  0  0  0  0
    1.4622   53.0916   18.8931 H   0  0  0  0  0  0
    0.5411   53.1341   20.3833 H   0  0  0  0  0  0
  1  2  1  0  0  0
  1 35  1  0  0  0
  1 36  1  0  0  0
  1 37  1  0  0  0
  2  3  1  0  0  0
  2  4  1  0  0  0
  2 38  1  0  0  0
  3 39  1  0  0  0
  3 40  1  0  0  0
  3 41  1  0  0  0
  4  5  1  0  0  0
  4  6  1  0  0  0
  4 22  1  0  0  0
  6  7  2  0  0  0
  6  8  1  0  0  0
  8  9  1  0  0  0
  8 42  1  0  0  0
  9 14  2  0  0  0
  9 10  1  0  0  0
 10 11  2  0  0  0
 10 43  1  0  0  0
 11 12  1  0  0  0
 11 44  1  0  0  0
 12 13  2  0  0  0
 12 45  1  0  0  0
 13 14  1  0  0  0
 13 15  1  0  0  0
 14 46  1  0  0  0
 15 16  2  0  0  0
 15 17  2  0  0  0
 15 18  1  0  0  0
 18 19  1  0  0  0
 18 47  1  0  0  0
 19 21  1  0  0  0
 19 20  1  0  0  0
 19 48  1  0  0  0
 20 21  1  0  0  0
 20 49  1  0  0  0
 20 50  1  0  0  0
 21 51  1  0  0  0
 21 52  1  0  0  0
 22 23  1  0  0  0
 22 53  1  0  0  0
 23 24  2  0  0  0
 23 25  1  0  0  0
 25 30  1  0  0  0
 25 34  1  0  0  0
 25 26  1  0  0  0
 26 27  1  0  0  0
 26 54  1  0  0  0
 26 55  1  0  0  0
 27 33  1  0  0  0
 27 28  1  0  0  0
 27 56  1  0  0  0
 28 29  1  0  0  0
 28 57  1  0  0  0
 28 58  1  0  0  0
 29 30  1  0  0  0
 29 31  1  0  0  0
 29 59  1  0  0  0
 30 60  1  0  0  0
 30 61  1  0  0  0
 31 32  1  0  0  0
 31 62  1  0  0  0
 31 63  1  0  0  0
 32 33  1  0  0  0
 32 34  1  0  0  0
 32 64  1  0  0  0
 33 65  1  0  0  0
 33 66  1  0  0  0
 34 67  1  0  0  0
 34 68  1  0  0  0
M  END
> <i_i_glide_confnum>
31

> <i_i_glide_lignum>
3731

> <i_i_glide_posenum>
75

> <i_i_glide_rotatable_bonds>
10

> <i_m_Source_File_Index>
2016

> <b_m_subgroup_collapsed>
0

> <r_i_docking_score>
-4.96875

> <r_i_glide_ecoul>
-2.28969

> <r_i_glide_eff_state_penalty>
0

> <r_i_glide_einternal>
4.87948

> <r_i_glide_emodel>
-53.8465

> <r_i_glide_energy>
-44.9296

> <r_i_glide_erotb>
0.721417

> <r_i_glide_esite>
-0.0102632

> <r_i_glide_evdw>
-42.6399

> <r_i_glide_gscore>
-4.96875

> <r_i_glide_hbond>
-0.160323

> <r_i_glide_ligand_efficiency>
-0.150568

> <r_i_glide_ligand_efficiency_ln>
-1.10503

> <r_i_glide_ligand_efficiency_sa>
-0.482953

> <r_i_glide_lipo>
-2.9257

> <r_i_glide_metal>
0

> <r_i_glide_rewards>
-0.118437

> <s_i_glide_gridfile>
wee1_glide-grid

> <s_m_Source_File>
wee1_decoys_glide_SP.sdf

> <s_m_Source_Path>
/Users/zhangxujun/Desktop

> <s_m_entry_id>
2291

> <s_m_entry_name>
wee1_decoys_glide_SP.2016

> <s_m_subgroup_title>
wee1_decoys_glide_SP

> <s_m_subgroupid>
wee1_decoys_glide_SP


$$$$
