ZINC27550467_2110
                    3D
 Schrodinger Suite 2024-2.
 51 54  0  0  1  0            999 V2000
   -5.3096   47.9976   30.0134 C   0  0  0  0  0  0
   -5.3418   48.0713   28.5070 C   0  0  0  0  0  0
   -4.4813   48.7276   27.6366 C   0  0  0  0  0  0
   -4.7450   48.5659   26.2655 C   0  0  0  0  0  0
   -5.8978   47.7933   26.0908 C   0  0  0  0  0  0
   -6.5705   47.2636   27.5946 S   0  0  0  0  0  0
   -6.7045   47.3628   24.5856 S   0  0  0  0  0  0
   -5.6919   45.9159   24.1862 C   0  0  0  0  0  0
   -3.8887   49.1586   25.1394 C   0  0  2  0  0  0
   -4.3097   48.8099   24.1941 H   0  0  0  0  0  0
   -2.4486   48.6398   25.1859 C   0  0  0  0  0  0
   -1.3977   49.4387   25.4773 C   0  0  0  0  0  0
   -1.5470   50.8274   25.6156 N   0  0  0  0  0  0
   -2.7927   51.4463   25.3758 C   0  0  0  0  0  0
   -3.9073   50.7036   25.0901 C   0  0  0  0  0  0
   -5.2066   51.3327   24.7259 C   0  0  0  0  0  0
   -6.2226   50.6814   24.4995 O   0  0  0  0  0  0
   -5.2708   52.8639   24.7071 C   0  0  0  0  0  0
   -3.9214   53.4743   24.3139 C   0  0  0  0  0  0
   -2.8220   52.9835   25.2708 C   0  0  0  0  0  0
   -0.4202   51.6374   25.9197 C   0  0  0  0  0  0
    0.3936   52.0885   24.8696 C   0  0  0  0  0  0
    1.4953   52.9269   25.1018 C   0  0  0  0  0  0
    1.7989   53.2827   26.4243 C   0  0  0  0  0  0
    1.0158   52.8167   27.4802 C   0  0  0  0  0  0
   -0.0962   52.0088   27.2359 C   0  0  0  0  0  0
   -1.0499   51.4882   28.5823 Cl  0  0  0  0  0  0
    2.3084   53.4335   23.9711 N   0  3  0  0  0  0
    1.9843   53.1172   22.8307 O   0  0  0  0  0  0
    3.2685   54.1575   24.2194 O   0  5  0  0  0  0
   -0.1233   48.9358   25.6545 N   0  0  0  0  0  0
   -2.2640   47.2374   25.0368 C   0  0  0  0  0  0
   -2.1406   46.1016   24.8656 N   0  0  0  0  0  0
   -4.4710   48.5610   30.4266 H   0  0  0  0  0  0
   -5.2124   46.9720   30.3704 H   0  0  0  0  0  0
   -6.2219   48.4034   30.4499 H   0  0  0  0  0  0
   -3.6271   49.2845   27.9952 H   0  0  0  0  0  0
   -6.1536   45.3633   23.3670 H   0  0  0  0  0  0
   -4.7034   46.2310   23.8515 H   0  0  0  0  0  0
   -5.5998   45.2507   25.0469 H   0  0  0  0  0  0
   -5.5129   53.1734   25.7235 H   0  0  0  0  0  0
   -6.0981   53.1925   24.0794 H   0  0  0  0  0  0
   -3.9786   54.5652   24.3342 H   0  0  0  0  0  0
   -3.6729   53.2027   23.2837 H   0  0  0  0  0  0
   -2.8498   53.4554   26.2552 H   0  0  0  0  0  0
   -1.9156   53.3274   24.7754 H   0  0  0  0  0  0
    0.1384   51.7962   23.8591 H   0  0  0  0  0  0
    2.6469   53.9216   26.6395 H   0  0  0  0  0  0
    1.2644   53.0991   28.4944 H   0  0  0  0  0  0
    0.0242   47.9347   25.6499 H   0  0  0  0  0  0
    0.5451   49.4617   26.1939 H   0  0  0  0  0  0
  1  2  1  0  0  0
  1 34  1  0  0  0
  1 35  1  0  0  0
  1 36  1  0  0  0
  2  6  1  0  0  0
  2  3  2  0  0  0
  3  4  1  0  0  0
  3 37  1  0  0  0
  4  5  2  0  0  0
  4  9  1  0  0  0
  5  6  1  0  0  0
  5  7  1  0  0  0
  7  8  1  0  0  0
  8 38  1  0  0  0
  8 39  1  0  0  0
  8 40  1  0  0  0
  9 10  1  0  0  0
  9 15  1  0  0  0
  9 11  1  0  0  0
 11 12  2  0  0  0
 11 32  1  0  0  0
 12 13  1  0  0  0
 12 31  1  0  0  0
 13 14  1  0  0  0
 13 21  1  0  0  0
 14 20  1  0  0  0
 14 15  2  0  0  0
 15 16  1  0  0  0
 16 17  2  0  0  0
 16 18  1  0  0  0
 18 19  1  0  0  0
 18 41  1  0  0  0
 18 42  1  0  0  0
 19 20  1  0  0  0
 19 43  1  0  0  0
 19 44  1  0  0  0
 20 45  1  0  0  0
 20 46  1  0  0  0
 21 26  2  0  0  0
 21 22  1  0  0  0
 22 23  2  0  0  0
 22 47  1  0  0  0
 23 24  1  0  0  0
 23 28  1  0  0  0
 24 25  2  0  0  0
 24 48  1  0  0  0
 25 26  1  0  0  0
 25 49  1  0  0  0
 26 27  1  0  0  0
 28 29  2  0  0  0
 28 30  1  0  0  0
 31 50  1  0  0  0
 31 51  1  0  0  0
 32 33  3  0  0  0
M  CHG  2  28   1  30  -1
M  END
> <i_i_glide_confnum>
3

> <i_i_glide_lignum>
2111

> <i_i_glide_posenum>
193

> <i_i_glide_rotatable_bonds>
5

> <i_m_Source_File_Index>
3312

> <b_m_subgroup_collapsed>
0

> <r_i_docking_score>
-3.28629

> <r_i_glide_ecoul>
-1.9414

> <r_i_glide_eff_state_penalty>
0

> <r_i_glide_einternal>
1.19669

> <r_i_glide_emodel>
-38.2356

> <r_i_glide_energy>
-31.5255

> <r_i_glide_erotb>
0.17141

> <r_i_glide_esite>
-0.20172

> <r_i_glide_evdw>
-29.5841

> <r_i_glide_gscore>
-3.28629

> <r_i_glide_hbond>
-0.202187

> <r_i_glide_ligand_efficiency>
-0.102697

> <r_i_glide_ligand_efficiency_ln>
-0.73589

> <r_i_glide_ligand_efficiency_sa>
-0.326041

> <r_i_glide_lipo>
-0.853618

> <r_i_glide_metal>
0

> <r_i_glide_rewards>
-0.429759

> <s_i_glide_gridfile>
wee1_glide-grid

> <s_m_Source_File>
wee1_decoys_glide_SP.sdf

> <s_m_Source_Path>
/Users/zhangxujun/Desktop

> <s_m_entry_id>
3587

> <s_m_entry_name>
wee1_decoys_glide_SP.3312

> <s_m_subgroup_title>
wee1_decoys_glide_SP

> <s_m_subgroupid>
wee1_decoys_glide_SP


$$$$
