@<TRIPOS>MOLECULE
ZINC12419939_3373
58   61    1
SMALL
USER_CHARGES


@<TRIPOS>ATOM
      1 C1          1.2954   52.9026   30.6444 C.3       1 UNK         0.0000 
      2 O2          2.6354   53.1544   30.2249 O.3       1 UNK         0.0000 
      3 C3          2.8875   53.3936   28.8867 C.ar      1 UNK         0.0000 
      4 C4          1.9052   53.4740   27.8918 C.ar      1 UNK         0.0000 
      5 C5          2.2609   53.6966   26.5646 C.ar      1 UNK         0.0000 
      6 C6          3.6015   53.8504   26.1868 C.ar      1 UNK         0.0000 
      7 C7          4.5949   53.7963   27.1829 C.ar      1 UNK         0.0000 
      8 C8          4.2203   53.5646   28.5183 C.ar      1 UNK         0.0000 
      9 O9          5.9099   53.9725   26.7876 O.3       1 UNK         0.0000 
     10 C10         6.9554   53.8322   27.7404 C.3       1 UNK         0.0000 
     11 C11         4.0171   54.0162   24.7668 C.2       1 UNK         0.0000 
     12 C12         3.4013   53.6008   23.6312 C.2       1 UNK         0.0000 
     13 C13         4.0313   53.7854   22.3376 C.2       1 UNK         0.0000 
     14 O14         5.1200   54.3502   22.1802 O.2       1 UNK         0.0000 
     15 N15         3.2657   53.2427   21.3348 N.am      1 UNK         0.0000 
     16 C16         2.0256   52.7806   21.6896 C.2       1 UNK         0.0000 
     17 C17         1.0430   52.4153   20.8350 C.2       1 UNK         0.0000 
     18 C18         1.2490   52.4645   19.3131 C.3       1 UNK         0.0000 
     19 H19         0.6558   53.2967   18.9372 H         1 UNK         0.0000 
     20 C20         2.7056   52.8530   18.9949 C.2       1 UNK         0.0000 
     21 C21         3.5898   53.2011   19.9685 C.2       1 UNK         0.0000 
     22 N22         4.8923   53.5025   19.6162 N.pl3     1 UNK         0.0000 
     23 C23         3.0922   52.8552   17.6150 C.1       1 UNK         0.0000 
     24 N24         3.3832   52.9001   16.4966 N.1       1 UNK         0.0000 
     25 C25         0.7143   51.2213   18.5855 C.ar      1 UNK         0.0000 
     26 C26         1.5624   50.1256   18.3778 C.ar      1 UNK         0.0000 
     27 C27         1.1039   48.9860   17.7251 C.ar      1 UNK         0.0000 
     28 C28        -0.2102   48.9017   17.2768 C.ar      1 UNK         0.0000 
     29 C29        -1.0668   49.9921   17.4901 C.ar      1 UNK         0.0000 
     30 C30        -0.6207   51.1585   18.1391 C.ar      1 UNK         0.0000 
     31 O31        -1.4361   52.2545   18.3770 O.3       1 UNK         0.0000 
     32 C32        -2.7921   52.2302   17.9412 C.3       1 UNK         0.0000 
     33 O33        -0.5749   47.7288   16.6440 O.3       1 UNK         0.0000 
     34 C34        -1.8985   47.5918   16.1393 C.3       1 UNK         0.0000 
     35 C35        -0.2344   51.9909   21.3160 C.1       1 UNK         0.0000 
     36 N36        -1.2883   51.6971   21.6952 N.1       1 UNK         0.0000 
     37 S37         1.8884   52.7241   23.4407 S.3       1 UNK         0.0000 
     38 H38         1.2764   52.7116   31.7184 H         1 UNK         0.0000 
     39 H39         0.6464   53.7591   30.4544 H         1 UNK         0.0000 
     40 H40         0.8790   52.0237   30.1499 H         1 UNK         0.0000 
     41 H41         0.8597   53.3590   28.1293 H         1 UNK         0.0000 
     42 H42         1.4673   53.7643   25.8408 H         1 UNK         0.0000 
     43 H43         4.9614   53.5005   29.2966 H         1 UNK         0.0000 
     44 H44         7.9043   54.0997   27.2808 H         1 UNK         0.0000 
     45 H45         6.8098   54.4903   28.5954 H         1 UNK         0.0000 
     46 H46         7.0320   52.7983   28.0819 H         1 UNK         0.0000 
     47 H47         4.9527   54.5498   24.6564 H         1 UNK         0.0000 
     48 H48         5.2168   53.3951   18.6637 H         1 UNK         0.0000 
     49 H49         5.5474   53.8355   20.3122 H         1 UNK         0.0000 
     50 H50         2.5943   50.1508   18.7001 H         1 UNK         0.0000 
     51 H51         1.7873   48.1666   17.5535 H         1 UNK         0.0000 
     52 H52        -2.0856   49.9324   17.1451 H         1 UNK         0.0000 
     53 H53        -3.2724   53.1742   18.1982 H         1 UNK         0.0000 
     54 H54        -2.8616   52.1123   16.8580 H         1 UNK         0.0000 
     55 H55        -3.3551   51.4320   18.4278 H         1 UNK         0.0000 
     56 H56        -2.0041   46.6167   15.6627 H         1 UNK         0.0000 
     57 H57        -2.1208   48.3512   15.3869 H         1 UNK         0.0000 
     58 H58        -2.6386   47.6504   16.9398 H         1 UNK         0.0000 
@<TRIPOS>BOND
     1    1    2 1    
     2    1   38 1    
     3    1   39 1    
     4    1   40 1    
     5    2    3 1    
     6    3    8 ar   
     7    3    4 ar   
     8    4    5 ar   
     9    4   41 1    
    10    5    6 ar   
    11    5   42 1    
    12    6    7 ar   
    13    6   11 1    
    14    7    8 ar   
    15    7    9 1    
    16    8   43 1    
    17    9   10 1    
    18   10   44 1    
    19   10   45 1    
    20   10   46 1    
    21   11   12 2    
    22   11   47 1    
    23   12   37 1    
    24   12   13 1    
    25   13   14 2    
    26   13   15 am   BACKBONE|DICT|INTERRES
    27   15   21 1    
    28   15   16 am   BACKBONE|DICT|INTERRES
    29   16   17 2    
    30   16   37 1    
    31   17   18 1    
    32   17   35 1    
    33   18   19 1    
    34   18   20 1    
    35   18   25 1    
    36   20   21 2    
    37   20   23 1    
    38   21   22 1    
    39   22   48 1    
    40   22   49 1    
    41   23   24 3    
    42   25   30 ar   
    43   25   26 ar   
    44   26   27 ar   
    45   26   50 1    
    46   27   28 ar   
    47   27   51 1    
    48   28   29 ar   
    49   28   33 1    
    50   29   30 ar   
    51   29   52 1    
    52   30   31 1    
    53   31   32 1    
    54   32   53 1    
    55   32   54 1    
    56   32   55 1    
    57   33   34 1    
    58   34   56 1    
    59   34   57 1    
    60   34   58 1    
    61   35   36 3    
@<TRIPOS>SUBSTRUCTURE
     1 UNK         1 GROUP             0       ****    0 ROOT    
