@<TRIPOS>MOLECULE
ZINC39977540_805
51   54    1
SMALL
USER_CHARGES


@<TRIPOS>ATOM
      1 C1         -3.4305   46.0967   27.8106 C.3       1 UNK         0.0000 
      2 C2         -3.2977   46.4599   26.3393 C.2       1 UNK         0.0000 
      3 O3         -3.6956   45.6631   25.4910 O.2       1 UNK         0.0000 
      4 N4         -2.7233   47.6501   26.0817 N.am      1 UNK         0.0000 
      5 C5         -2.5556   48.3072   24.8467 C.ar      1 UNK         0.0000 
      6 C6         -1.7627   49.4569   24.8543 C.ar      1 UNK         0.0000 
      7 C7         -1.5749   50.1887   23.6822 C.ar      1 UNK         0.0000 
      8 C8         -2.1784   49.7716   22.4916 C.ar      1 UNK         0.0000 
      9 C9         -2.9676   48.6209   22.4782 C.ar      1 UNK         0.0000 
     10 C10        -3.1624   47.8969   23.6485 C.ar      1 UNK         0.0000 
     11 S11        -1.9339   50.7145   20.9794 S.o2      1 UNK         0.0000 
     12 O12        -2.9820   50.2115   20.0841 O.2       1 UNK         0.0000 
     13 O13        -2.0943   52.0969   21.4421 O.2       1 UNK         0.0000 
     14 N14        -0.2985   50.1240   20.7104 N.2       1 UNK         0.0000 
     15 C15         0.4546   50.7677   19.9089 C.2       1 UNK         0.0000 
     16 C16         1.9398   50.2717   19.8066 C.3       1 UNK         0.0000 
     17 H17         1.9058   49.2187   19.5198 H         1 UNK         0.0000 
     18 N18         2.7044   50.8967   18.6743 N.pl3     1 UNK         0.0000 
     19 C19         2.2530   51.9154   17.9595 C.2       1 UNK         0.0000 
     20 C20         3.0493   52.4967   16.9730 C.2       1 UNK         0.0000 
     21 C21         2.5695   53.5602   16.2758 C.2       1 UNK         0.0000 
     22 C22         1.2374   54.1176   16.5221 C.2       1 UNK         0.0000 
     23 C23         0.4349   53.5629   17.4626 C.2       1 UNK         0.0000 
     24 C24         0.8384   52.4244   18.2623 C.2       1 UNK         0.0000 
     25 N25         0.0727   51.8783   19.1424 N.2       1 UNK         0.0000 
     26 N26         2.6420   50.2970   21.1007 N.pl3     1 UNK         0.0000 
     27 C27         2.8733   51.5537   21.6817 C.ar      1 UNK         0.0000 
     28 C28         2.0941   51.9558   22.7699 C.ar      1 UNK         0.0000 
     29 C29         2.3044   53.2001   23.3647 C.ar      1 UNK         0.0000 
     30 C30         3.3069   54.0403   22.8816 C.ar      1 UNK         0.0000 
     31 C31         4.0960   53.6401   21.8026 C.ar      1 UNK         0.0000 
     32 C32         3.8808   52.3978   21.2044 C.ar      1 UNK         0.0000 
     33 Cl33        5.3416   54.6783   21.2129 Cl        1 UNK         0.0000 
     34 H34        -2.4856   45.7026   28.1849 H         1 UNK         0.0000 
     35 H35        -4.1950   45.3337   27.9537 H         1 UNK         0.0000 
     36 H36        -3.6949   46.9694   28.4093 H         1 UNK         0.0000 
     37 H37        -2.3042   48.0967   26.9071 H         1 UNK         0.0000 
     38 H38        -1.2955   49.7892   25.7716 H         1 UNK         0.0000 
     39 H39        -0.9687   51.0824   23.7021 H         1 UNK         0.0000 
     40 H40        -3.4449   48.2863   21.5685 H         1 UNK         0.0000 
     41 H41        -3.8056   47.0343   23.5950 H         1 UNK         0.0000 
     42 H42         4.0366   52.0964   16.7760 H         1 UNK         0.0000 
     43 H43         3.1910   54.0079   15.5125 H         1 UNK         0.0000 
     44 H44         0.8995   54.9732   15.9540 H         1 UNK         0.0000 
     45 H45        -0.5396   54.0006   17.6221 H         1 UNK         0.0000 
     46 H46         2.2269   49.6497   21.7575 H         1 UNK         0.0000 
     47 H47         1.3211   51.3071   23.1537 H         1 UNK         0.0000 
     48 H48         1.6964   53.5094   24.2023 H         1 UNK         0.0000 
     49 H49         3.4741   54.9987   23.3479 H         1 UNK         0.0000 
     50 H50         4.5008   52.0902   20.3748 H         1 UNK         0.0000 
     51 H51         3.6494   50.5453   18.4749 H         1 UNK         0.0000 
@<TRIPOS>BOND
     1    1    2 1    
     2    1   34 1    
     3    1   35 1    
     4    1   36 1    
     5    2    3 2    
     6    2    4 am   BACKBONE|DICT|INTERRES
     7    4    5 1    
     8    4   37 1    
     9    5   10 ar   
    10    5    6 ar   
    11    6    7 ar   
    12    6   38 1    
    13    7    8 ar   
    14    7   39 1    
    15    8    9 ar   
    16    8   11 1    
    17    9   10 ar   
    18    9   40 1    
    19   10   41 1    
    20   11   12 2    
    21   11   13 2    
    22   11   14 1    
    23   14   15 2    
    24   15   25 1    
    25   15   16 1    
    26   16   17 1    
    27   16   18 1    
    28   16   26 1    
    29   18   19 2    
    30   18   51 1    
    31   19   24 1    
    32   19   20 1    
    33   20   21 2    
    34   20   42 1    
    35   21   22 1    
    36   21   43 1    
    37   22   23 2    
    38   22   44 1    
    39   23   24 1    
    40   23   45 1    
    41   24   25 2    
    42   26   27 1    
    43   26   46 1    
    44   27   32 ar   
    45   27   28 ar   
    46   28   29 ar   
    47   28   47 1    
    48   29   30 ar   
    49   29   48 1    
    50   30   31 ar   
    51   30   49 1    
    52   31   32 ar   
    53   31   33 1    
    54   32   50 1    
@<TRIPOS>SUBSTRUCTURE
     1 UNK         1 GROUP             0       ****    0 ROOT    
