@<TRIPOS>MOLECULE
ZINC09910194_5131
54   58    1
SMALL
USER_CHARGES


@<TRIPOS>ATOM
      1 C1          2.7079   50.1685   19.7587 C.ar      1 UNK         0.0000 
      2 C2          1.8932   49.0725   19.4952 C.ar      1 UNK         0.0000 
      3 C3          0.8933   48.7275   20.3990 C.ar      1 UNK         0.0000 
      4 C4          0.7078   49.4684   21.5651 C.ar      1 UNK         0.0000 
      5 C5          1.5270   50.5620   21.8330 C.ar      1 UNK         0.0000 
      6 C6          2.5385   50.9161   20.9260 C.ar      1 UNK         0.0000 
      7 N7          3.4385   51.9824   21.0947 N.am      1 UNK         0.0000 
      8 C8          3.5306   52.8967   22.0816 C.2       1 UNK         0.0000 
      9 O9          2.7810   52.9571   23.0530 O.2       1 UNK         0.0000 
     10 C10         4.6717   53.7889   21.9655 C.2       1 UNK         0.0000 
     11 C11         5.1112   54.3876   20.7426 C.2       1 UNK         0.0000 
     12 C12         6.2242   55.2159   20.9358 C.2       1 UNK         0.0000 
     13 S13         6.7048   55.2965   22.5866 S.3       1 UNK         0.0000 
     14 C14         5.4063   54.2564   23.0853 C.2       1 UNK         0.0000 
     15 N15         5.2380   53.8808   24.4272 N.am      1 UNK         0.0000 
     16 C16         5.9030   54.2992   25.5371 C.2       1 UNK         0.0000 
     17 O17         6.7040   55.2362   25.5726 O.2       1 UNK         0.0000 
     18 C18         5.6498   53.5054   26.8349 C.3       1 UNK         0.0000 
     19 S19         4.8982   54.4969   28.1644 S.3       1 UNK         0.0000 
     20 C20         3.7061   53.3933   28.8555 C.ar      1 UNK         0.0000 
     21 N21         3.9041   52.7391   29.9753 N.2       1 UNK         0.0000 
     22 N22         2.7205   52.0967   30.3180 N.2       1 UNK         0.0000 
     23 C23         1.8622   52.3785   29.3760 C.ar      1 UNK         0.0000 
     24 N24         2.4101   53.2001   28.4223 N.pl3     1 UNK         0.0000 
     25 C25         1.7137   53.8022   27.2975 C.3       1 UNK         0.0000 
     26 C26         2.2405   53.5492   25.9061 C.3       1 UNK         0.0000 
     27 C27         0.9615   52.8965   26.3301 C.3       1 UNK         0.0000 
     28 C28         6.9962   55.9315   19.8397 C.3       1 UNK         0.0000 
     29 C29         6.0839   56.0900   18.6116 C.3       1 UNK         0.0000 
     30 C30         5.4361   54.7520   18.2309 C.3       1 UNK         0.0000 
     31 C31         4.5072   54.1998   19.3342 C.3       1 UNK         0.0000 
     32 Cl32       -0.1075   47.3576   20.0809 Cl        1 UNK         0.0000 
     33 H33         3.5019   50.4108   19.0610 H         1 UNK         0.0000 
     34 H34         2.0513   48.4914   18.5978 H         1 UNK         0.0000 
     35 H35        -0.0652   49.1952   22.2681 H         1 UNK         0.0000 
     36 H36         1.3608   51.1034   22.7482 H         1 UNK         0.0000 
     37 H37         4.1247   52.0576   20.3586 H         1 UNK         0.0000 
     38 H38         4.5116   53.1950   24.5687 H         1 UNK         0.0000 
     39 H39         6.6152   53.1531   27.1985 H         1 UNK         0.0000 
     40 H40         5.0652   52.6071   26.6637 H         1 UNK         0.0000 
     41 H41         0.8290   52.0676   29.3130 H         1 UNK         0.0000 
     42 H42         1.2971   54.7822   27.5344 H         1 UNK         0.0000 
     43 H43         3.0896   52.8934   25.7529 H         1 UNK         0.0000 
     44 H44         2.2174   54.3724   25.1905 H         1 UNK         0.0000 
     45 H45         0.0516   53.2500   25.8462 H         1 UNK         0.0000 
     46 H46         0.9489   51.8210   26.5134 H         1 UNK         0.0000 
     47 H47         7.3564   56.9014   20.1703 H         1 UNK         0.0000 
     48 H48         7.8814   55.3515   19.5722 H         1 UNK         0.0000 
     49 H49         5.3074   56.8301   18.8145 H         1 UNK         0.0000 
     50 H50         6.6597   56.4784   17.7715 H         1 UNK         0.0000 
     51 H51         4.8744   54.8621   17.3014 H         1 UNK         0.0000 
     52 H52         6.2179   54.0213   18.0165 H         1 UNK         0.0000 
     53 H53         4.3175   53.1604   19.0822 H         1 UNK         0.0000 
     54 H54         3.5419   54.7046   19.2815 H         1 UNK         0.0000 
@<TRIPOS>BOND
     1    1    6 ar   
     2    1    2 ar   
     3    1   33 1    
     4    2    3 ar   
     5    2   34 1    
     6    3    4 ar   
     7    3   32 1    
     8    4    5 ar   
     9    4   35 1    
    10    5    6 ar   
    11    5   36 1    
    12    6    7 1    
    13    7    8 am   BACKBONE|DICT|INTERRES
    14    7   37 1    
    15    8    9 2    
    16    8   10 1    
    17   10   14 2    
    18   10   11 1    
    19   11   31 1    
    20   11   12 2    
    21   12   13 1    
    22   12   28 1    
    23   13   14 1    
    24   14   15 am   BACKBONE|DICT|INTERRES
    25   15   16 am   BACKBONE|DICT|INTERRES
    26   15   38 1    
    27   16   17 2    
    28   16   18 1    
    29   18   19 1    
    30   18   39 1    
    31   18   40 1    
    32   19   20 1    
    33   20   24 ar   
    34   20   21 ar   
    35   21   22 ar   
    36   22   23 ar   
    37   23   24 ar   
    38   23   41 1    
    39   24   25 1    
    40   25   27 1    
    41   25   26 1    
    42   25   42 1    
    43   26   27 1    
    44   26   43 1    
    45   26   44 1    
    46   27   45 1    
    47   27   46 1    
    48   28   29 1    
    49   28   47 1    
    50   28   48 1    
    51   29   30 1    
    52   29   49 1    
    53   29   50 1    
    54   30   31 1    
    55   30   51 1    
    56   30   52 1    
    57   31   53 1    
    58   31   54 1    
@<TRIPOS>SUBSTRUCTURE
     1 UNK         1 GROUP             0       ****    0 ROOT    
