@<TRIPOS>MOLECULE
ZINC43641654_744
73   77    1
SMALL
USER_CHARGES


@<TRIPOS>ATOM
      1 C1          5.3878   54.7994   24.9148 C.3       1 UNK         0.0000 
      2 C2          4.7943   54.3604   23.5863 C.ar      1 UNK         0.0000 
      3 C3          5.5223   54.4964   22.3780 C.ar      1 UNK         0.0000 
      4 C4          6.7884   55.1275   22.2557 C.ar      1 UNK         0.0000 
      5 C5          7.3433   55.3355   20.9954 C.ar      1 UNK         0.0000 
      6 C6          6.6837   54.8967   19.8450 C.ar      1 UNK         0.0000 
      7 C7          5.4657   54.2172   19.9437 C.ar      1 UNK         0.0000 
      8 C8          4.8556   54.0238   21.2072 C.ar      1 UNK         0.0000 
      9 N9          3.6243   53.4419   21.2707 N.ar      1 UNK         0.0000 
     10 C10         2.9816   53.4624   22.4712 C.ar      1 UNK         0.0000 
     11 N11         3.5237   53.9120   23.6346 N.ar      1 UNK         0.0000 
     12 N12         1.6255   53.0648   22.4843 N.pl3     1 UNK         0.0000 
     13 C13         1.1977   51.9388   21.6424 C.3       1 UNK         0.0000 
     14 C14         0.2619   50.8741   22.2676 C.3       1 UNK         0.0000 
     15 C15         0.6382   50.3473   23.6762 C.3       1 UNK         0.0000 
     16 C16         0.2043   51.2712   24.8363 C.3       1 UNK         0.0000 
     17 H17        -0.8826   51.3885   24.8250 H         1 UNK         0.0000 
     18 C18         0.8788   52.6481   24.8593 C.3       1 UNK         0.0000 
     19 C19         0.7569   53.4684   23.5922 C.3       1 UNK         0.0000 
     20 N20         0.5266   50.5917   26.1824 N.4       1 UNK         0.0000 
     21 C21        -0.5150   50.7221   27.3070 C.3       1 UNK         0.0000 
     22 C22        -0.7642   52.1544   27.8212 C.3       1 UNK         0.0000 
     23 C23         0.3043   52.8391   28.6855 C.2       1 UNK         0.0000 
     24 C24         0.0372   53.2146   29.9594 C.2       1 UNK         0.0000 
     25 C25         1.0092   54.0998   30.7376 C.3       1 UNK         0.0000 
     26 C26         2.2342   54.4368   29.8157 C.3       1 UNK         0.0000 
     27 H27         2.9125   55.1397   30.2975 H         1 UNK         0.0000 
     28 C28         1.7537   54.8266   28.3873 C.3       1 UNK         0.0000 
     29 C29         1.6752   53.3016   28.1227 C.3       1 UNK         0.0000 
     30 H30         1.9060   52.9339   27.1370 H         1 UNK         0.0000 
     31 C31         2.8552   53.1757   29.1419 C.3       1 UNK         0.0000 
     32 C32         2.9214   51.8662   29.9651 C.3       1 UNK         0.0000 
     33 C33         4.2670   53.4055   28.5273 C.3       1 UNK         0.0000 
     34 S34         7.4045   55.1958   18.2329 S.o2      1 UNK         0.0000 
     35 O35         8.8057   55.5747   18.4406 O.2       1 UNK         0.0000 
     36 O36         7.0582   54.0530   17.3841 O.2       1 UNK         0.0000 
     37 C37         6.4684   56.7012   17.6098 C.3       1 UNK         0.0000 
     38 H38         6.3135   54.2565   25.1114 H         1 UNK         0.0000 
     39 H39         5.6129   55.8652   24.9000 H         1 UNK         0.0000 
     40 H40         4.7060   54.6087   25.7455 H         1 UNK         0.0000 
     41 H41         7.3056   55.4849   23.1323 H         1 UNK         0.0000 
     42 H42         8.3018   55.8323   20.9210 H         1 UNK         0.0000 
     43 H43         4.9632   53.8592   19.0574 H         1 UNK         0.0000 
     44 H44         2.0430   51.4541   21.1473 H         1 UNK         0.0000 
     45 H45         0.6170   52.4052   20.8454 H         1 UNK         0.0000 
     46 H46         0.2609   50.0223   21.5863 H         1 UNK         0.0000 
     47 H47        -0.7721   51.2227   22.2445 H         1 UNK         0.0000 
     48 H48         1.7152   50.1667   23.7176 H         1 UNK         0.0000 
     49 H49         0.1825   49.3662   23.8159 H         1 UNK         0.0000 
     50 H50         0.4666   53.2578   25.6519 H         1 UNK         0.0000 
     51 H51         1.9390   52.5013   25.0767 H         1 UNK         0.0000 
     52 H52         0.9722   54.5131   23.8294 H         1 UNK         0.0000 
     53 H53        -0.2856   53.5037   23.2806 H         1 UNK         0.0000 
     54 H54         1.4265   50.9062   26.5110 H         1 UNK         0.0000 
     55 H55        -0.0961   50.0969   28.0820 H         1 UNK         0.0000 
     56 H56        -1.4148   50.2444   26.9164 H         1 UNK         0.0000 
     57 H57        -1.6677   52.0913   28.4292 H         1 UNK         0.0000 
     58 H58        -1.0554   52.8177   27.0081 H         1 UNK         0.0000 
     59 H59        -0.8957   52.9396   30.4183 H         1 UNK         0.0000 
     60 H60         1.3066   53.5820   31.6477 H         1 UNK         0.0000 
     61 H61         0.5050   55.0148   31.0483 H         1 UNK         0.0000 
     62 H62         2.4838   55.3807   27.7946 H         1 UNK         0.0000 
     63 H63         0.8312   55.4093   28.3357 H         1 UNK         0.0000 
     64 H64         2.0100   51.6504   30.5191 H         1 UNK         0.0000 
     65 H65         3.7295   51.8978   30.6984 H         1 UNK         0.0000 
     66 H66         3.0987   51.0214   29.2995 H         1 UNK         0.0000 
     67 H67         4.3882   54.3852   28.0683 H         1 UNK         0.0000 
     68 H68         5.0521   53.3262   29.2799 H         1 UNK         0.0000 
     69 H69         4.4816   52.6654   27.7557 H         1 UNK         0.0000 
     70 H70         6.8517   56.9573   16.6226 H         1 UNK         0.0000 
     71 H71         5.4094   56.4581   17.5464 H         1 UNK         0.0000 
     72 H72         6.6269   57.5297   18.2966 H         1 UNK         0.0000 
     73 H73         0.6087   49.5998   26.0005 H         1 UNK         0.0000 
@<TRIPOS>BOND
     1    1    2 1    
     2    1   38 1    
     3    1   39 1    
     4    1   40 1    
     5    2   11 ar   
     6    2    3 ar   
     7    3    8 ar   
     8    3    4 ar   
     9    4    5 ar   
    10    4   41 1    
    11    5    6 ar   
    12    5   42 1    
    13    6    7 ar   
    14    6   34 1    
    15    7    8 ar   
    16    7   43 1    
    17    8    9 ar   
    18    9   10 ar   
    19   10   11 ar   
    20   10   12 1    
    21   12   19 1    
    22   12   13 1    
    23   13   14 1    
    24   13   44 1    
    25   13   45 1    
    26   14   15 1    
    27   14   46 1    
    28   14   47 1    
    29   15   16 1    
    30   15   48 1    
    31   15   49 1    
    32   16   17 1    
    33   16   18 1    
    34   16   20 1    
    35   18   19 1    
    36   18   50 1    
    37   18   51 1    
    38   19   52 1    
    39   19   53 1    
    40   20   21 1    
    41   20   54 1    
    42   20   73 1    
    43   21   22 1    
    44   21   55 1    
    45   21   56 1    
    46   22   23 1    
    47   22   57 1    
    48   22   58 1    
    49   23   29 1    
    50   23   24 2    
    51   24   25 1    
    52   24   59 1    
    53   25   26 1    
    54   25   60 1    
    55   25   61 1    
    56   26   27 1    
    57   26   31 1    
    58   26   28 1    
    59   28   29 1    
    60   28   62 1    
    61   28   63 1    
    62   29   30 1    
    63   29   31 1    
    64   31   32 1    
    65   31   33 1    
    66   32   64 1    
    67   32   65 1    
    68   32   66 1    
    69   33   67 1    
    70   33   68 1    
    71   33   69 1    
    72   34   35 2    
    73   34   36 2    
    74   34   37 1    
    75   37   70 1    
    76   37   71 1    
    77   37   72 1    
@<TRIPOS>SUBSTRUCTURE
     1 UNK         1 GROUP             0       ****    0 ROOT    
