@<TRIPOS>MOLECULE
ZINC09319047_3915
47   49    1
SMALL
USER_CHARGES


@<TRIPOS>ATOM
      1 C1          2.8393   53.2464   22.8549 C.ar      1 UNK         0.0000 
      2 C2          2.4887   52.7579   21.6020 C.ar      1 UNK         0.0000 
      3 C3          3.4227   52.7698   20.5693 C.ar      1 UNK         0.0000 
      4 C4          4.7077   53.2619   20.7833 C.ar      1 UNK         0.0000 
      5 C5          5.0688   53.7447   22.0408 C.ar      1 UNK         0.0000 
      6 C6          4.1297   53.7325   23.0824 C.ar      1 UNK         0.0000 
      7 N7          4.3955   54.1346   24.3999 N.am      1 UNK         0.0000 
      8 C8          5.4735   54.7487   24.9357 C.2       1 UNK         0.0000 
      9 O9          6.4114   55.1964   24.2838 O.2       1 UNK         0.0000 
     10 N10         5.4755   54.8960   26.2807 N.am      1 UNK         0.0000 
     11 C11         4.6282   54.3324   27.2347 C.2       1 UNK         0.0000 
     12 N12         3.5105   53.6620   27.0498 N.2       1 UNK         0.0000 
     13 C13         2.9960   53.1944   28.1824 C.2       1 UNK         0.0000 
     14 C14         3.7274   53.5359   29.3232 C.2       1 UNK         0.0000 
     15 S15         5.1047   54.4960   28.8815 S.3       1 UNK         0.0000 
     16 C16         1.7892   52.3858   28.1903 C.2       1 UNK         0.0000 
     17 O17         1.3027   51.9924   29.2540 O.2       1 UNK         0.0000 
     18 N18         1.2568   52.0969   26.9868 N.am      1 UNK         0.0000 
     19 C19         0.0751   51.2695   26.7283 C.3       1 UNK         0.0000 
     20 C20        -1.2172   52.1092   26.8661 C.3       1 UNK         0.0000 
     21 C21        -2.4946   51.2963   27.1593 C.3       1 UNK         0.0000 
     22 C22        -3.0772   50.4961   25.9848 C.3       1 UNK         0.0000 
     23 C23        -2.1224   49.4858   25.3253 C.3       1 UNK         0.0000 
     24 C24        -0.9683   50.1366   24.5459 C.3       1 UNK         0.0000 
     25 C25         0.2703   50.5334   25.3727 C.3       1 UNK         0.0000 
     26 Cl26        2.9758   52.1745   19.0106 Cl        1 UNK         0.0000 
     27 H27         2.1061   53.2265   23.6481 H         1 UNK         0.0000 
     28 H28         1.4933   52.3755   21.4279 H         1 UNK         0.0000 
     29 H29         5.4245   53.2605   19.9739 H         1 UNK         0.0000 
     30 H30         6.0753   54.1036   22.1832 H         1 UNK         0.0000 
     31 H31         3.6617   53.9132   25.0543 H         1 UNK         0.0000 
     32 H32         6.2684   55.3948   26.6560 H         1 UNK         0.0000 
     33 H33         3.5351   53.2594   30.3482 H         1 UNK         0.0000 
     34 H34         1.7875   52.3614   26.1737 H         1 UNK         0.0000 
     35 H35         0.0340   50.4943   27.4997 H         1 UNK         0.0000 
     36 H36        -1.3666   52.7132   25.9703 H         1 UNK         0.0000 
     37 H37        -1.0883   52.8235   27.6803 H         1 UNK         0.0000 
     38 H38        -3.2664   51.9802   27.5143 H         1 UNK         0.0000 
     39 H39        -2.3077   50.6207   27.9941 H         1 UNK         0.0000 
     40 H40        -3.4563   51.1850   25.2289 H         1 UNK         0.0000 
     41 H41        -3.9524   49.9536   26.3493 H         1 UNK         0.0000 
     42 H42        -2.7041   48.8767   24.6329 H         1 UNK         0.0000 
     43 H43        -1.7343   48.7907   26.0723 H         1 UNK         0.0000 
     44 H44        -1.3402   51.0115   24.0093 H         1 UNK         0.0000 
     45 H45        -0.6417   49.4480   23.7674 H         1 UNK         0.0000 
     46 H46         0.8362   49.6201   25.5778 H         1 UNK         0.0000 
     47 H47         0.9334   51.1053   24.7196 H         1 UNK         0.0000 
@<TRIPOS>BOND
     1    1    6 ar   
     2    1    2 ar   
     3    1   27 1    
     4    2    3 ar   
     5    2   28 1    
     6    3    4 ar   
     7    3   26 1    
     8    4    5 ar   
     9    4   29 1    
    10    5    6 ar   
    11    5   30 1    
    12    6    7 1    
    13    7    8 am   BACKBONE|DICT|INTERRES
    14    7   31 1    
    15    8    9 2    
    16    8   10 am   BACKBONE|DICT|INTERRES
    17   10   11 am   BACKBONE|DICT|INTERRES
    18   10   32 1    
    19   11   15 1    
    20   11   12 2    
    21   12   13 1    
    22   13   14 2    
    23   13   16 1    
    24   14   15 1    
    25   14   33 1    
    26   16   17 2    
    27   16   18 am   BACKBONE|DICT|INTERRES
    28   18   19 1    
    29   18   34 1    
    30   19   25 1    
    31   19   20 1    
    32   19   35 1    
    33   20   21 1    
    34   20   36 1    
    35   20   37 1    
    36   21   22 1    
    37   21   38 1    
    38   21   39 1    
    39   22   23 1    
    40   22   40 1    
    41   22   41 1    
    42   23   24 1    
    43   23   42 1    
    44   23   43 1    
    45   24   25 1    
    46   24   44 1    
    47   24   45 1    
    48   25   46 1    
    49   25   47 1    
@<TRIPOS>SUBSTRUCTURE
     1 UNK         1 GROUP             0       ****    0 ROOT    
