@<TRIPOS>MOLECULE
ZINC20528278_429
41   43    1
SMALL
USER_CHARGES


@<TRIPOS>ATOM
      1 C1          1.9021   48.2403   18.9396 C.ar      1 UNK         0.0000 
      2 C2          1.5061   47.8254   17.6707 C.ar      1 UNK         0.0000 
      3 C3          0.1544   47.6558   17.3872 C.ar      1 UNK         0.0000 
      4 C4         -0.8067   47.9072   18.3627 C.ar      1 UNK         0.0000 
      5 C5         -0.4111   48.3278   19.6300 C.ar      1 UNK         0.0000 
      6 C6          0.9490   48.4947   19.9341 C.ar      1 UNK         0.0000 
      7 C7          1.3989   48.9178   21.2652 C.2       1 UNK         0.0000 
      8 N8          0.6339   49.4110   22.1534 N.2       1 UNK         0.0000 
      9 N9          1.2339   49.7112   23.3760 N.pl3     1 UNK         0.0000 
     10 C10         0.7322   50.6157   24.2868 C.ar      1 UNK         0.0000 
     11 N11         0.7080   51.9131   24.1192 N.2       1 UNK         0.0000 
     12 N12         0.2596   52.4591   25.3161 N.2       1 UNK         0.0000 
     13 C13         0.0639   51.4758   26.1639 C.ar      1 UNK         0.0000 
     14 N14         0.2965   50.2630   25.5476 N.pl3     1 UNK         0.0000 
     15 N15         0.1622   48.9892   26.0816 N.3       1 UNK         0.0000 
     16 S16        -0.3689   51.6963   27.8641 S.3       1 UNK         0.0000 
     17 C17         0.7437   53.0801   28.3125 C.3       1 UNK         0.0000 
     18 C18         2.1782   52.5699   28.5396 C.2       1 UNK         0.0000 
     19 O19         2.3653   51.6966   29.3886 O.2       1 UNK         0.0000 
     20 C20         3.3053   53.2968   27.8698 C.ar      1 UNK         0.0000 
     21 C21         3.1441   53.8974   26.6133 C.ar      1 UNK         0.0000 
     22 C22         4.2248   54.4927   25.9723 C.ar      1 UNK         0.0000 
     23 C23         5.4747   54.4942   26.5809 C.ar      1 UNK         0.0000 
     24 C24         5.6545   53.9081   27.8315 C.ar      1 UNK         0.0000 
     25 C25         4.5742   53.3014   28.4697 C.ar      1 UNK         0.0000 
     26 Br26        6.9435   55.2973   25.6803 Br        1 UNK         0.0000 
     27 Cl27       -0.3335   47.1344   15.8167 Cl        1 UNK         0.0000 
     28 H28         2.9593   48.3762   19.1288 H         1 UNK         0.0000 
     29 H29         2.2544   47.6525   16.9094 H         1 UNK         0.0000 
     30 H30        -1.8552   47.7772   18.1394 H         1 UNK         0.0000 
     31 H31        -1.1697   48.5176   20.3766 H         1 UNK         0.0000 
     32 H32         2.4641   48.7753   21.4432 H         1 UNK         0.0000 
     33 H33         2.1970   49.4095   23.4391 H         1 UNK         0.0000 
     34 H34         0.9585   48.7373   26.6473 H         1 UNK         0.0000 
     35 H35        -0.6661   48.9205   26.6706 H         1 UNK         0.0000 
     36 H36         0.3825   53.5082   29.2466 H         1 UNK         0.0000 
     37 H37         0.7012   53.8723   27.5712 H         1 UNK         0.0000 
     38 H38         2.1994   53.8964   26.0958 H         1 UNK         0.0000 
     39 H39         4.0951   54.9391   24.9975 H         1 UNK         0.0000 
     40 H40         6.6288   53.9128   28.2995 H         1 UNK         0.0000 
     41 H41         4.7347   52.8280   29.4284 H         1 UNK         0.0000 
@<TRIPOS>BOND
     1    1    6 ar   
     2    1    2 ar   
     3    1   28 1    
     4    2    3 ar   
     5    2   29 1    
     6    3    4 ar   
     7    3   27 1    
     8    4    5 ar   
     9    4   30 1    
    10    5    6 ar   
    11    5   31 1    
    12    6    7 1    
    13    7    8 2    
    14    7   32 1    
    15    8    9 1    
    16    9   10 1    
    17    9   33 1    
    18   10   14 ar   
    19   10   11 ar   
    20   11   12 ar   
    21   12   13 ar   
    22   13   14 ar   
    23   13   16 1    
    24   14   15 1    
    25   15   34 1    
    26   15   35 1    
    27   16   17 1    
    28   17   18 1    
    29   17   36 1    
    30   17   37 1    
    31   18   19 2    
    32   18   20 1    
    33   20   25 ar   
    34   20   21 ar   
    35   21   22 ar   
    36   21   38 1    
    37   22   23 ar   
    38   22   39 1    
    39   23   24 ar   
    40   23   26 1    
    41   24   25 ar   
    42   24   40 1    
    43   25   41 1    
@<TRIPOS>SUBSTRUCTURE
     1 UNK         1 GROUP             0       ****    0 ROOT    
