@<TRIPOS>MOLECULE
ZINC09265888_2083
56   59    1
SMALL
USER_CHARGES


@<TRIPOS>ATOM
      1 C1          3.3794   53.4455   22.3395 C.3       1 UNK         0.0000 
      2 C2          4.7279   54.0712   21.9937 C.ar      1 UNK         0.0000 
      3 C3          5.0395   54.2681   20.6434 C.ar      1 UNK         0.0000 
      4 C4          6.2223   54.9040   20.2734 C.ar      1 UNK         0.0000 
      5 C5          7.1059   55.3480   21.2529 C.ar      1 UNK         0.0000 
      6 C6          6.8098   55.1482   22.5991 C.ar      1 UNK         0.0000 
      7 C7          5.6319   54.4965   22.9899 C.ar      1 UNK         0.0000 
      8 N8          5.2636   54.3136   24.3374 N.am      1 UNK         0.0000 
      9 C9          5.8405   54.7297   25.4912 C.2       1 UNK         0.0000 
     10 O10         6.9755   55.1975   25.5904 O.2       1 UNK         0.0000 
     11 C11         4.9712   54.6045   26.7682 C.3       1 UNK         0.0000 
     12 C12         3.5263   55.0734   26.4366 C.3       1 UNK         0.0000 
     13 C13         2.6492   54.9632   27.6945 C.3       1 UNK         0.0000 
     14 N14         2.6123   53.5571   28.1217 N.pl3     1 UNK         0.0000 
     15 C15         3.9218   52.9301   28.4330 C.3       1 UNK         0.0000 
     16 C16         4.9454   53.1412   27.2818 C.3       1 UNK         0.0000 
     17 S17         1.0609   52.7181   28.3620 S.o2      1 UNK         0.0000 
     18 O18         1.2739   51.6955   29.3881 O.2       1 UNK         0.0000 
     19 O19         0.0016   53.7235   28.4947 O.2       1 UNK         0.0000 
     20 C20         0.6992   51.8598   26.8170 C.ar      1 UNK         0.0000 
     21 C21         0.9121   52.4946   25.5905 C.ar      1 UNK         0.0000 
     22 C22         0.6849   51.8169   24.3929 C.ar      1 UNK         0.0000 
     23 C23         0.1944   50.5121   24.4119 C.ar      1 UNK         0.0000 
     24 C24        -0.1030   49.8899   25.6329 C.ar      1 UNK         0.0000 
     25 C25         0.1547   50.5696   26.8271 C.ar      1 UNK         0.0000 
     26 N26        -0.6628   48.6016   25.6815 N.am      1 UNK         0.0000 
     27 C27        -1.2571   47.8804   24.7030 C.2       1 UNK         0.0000 
     28 O28        -1.6860   46.7403   24.8816 O.2       1 UNK         0.0000 
     29 C29        -1.5023   48.6828   23.3963 C.3       1 UNK         0.0000 
     30 H30        -1.6825   47.9608   22.5996 H         1 UNK         0.0000 
     31 S31         0.0053   49.6007   22.9095 S.3       1 UNK         0.0000 
     32 C32        -2.7244   49.6166   23.5606 C.3       1 UNK         0.0000 
     33 Cl33        6.5910   55.1479   18.6064 Cl        1 UNK         0.0000 
     34 H34         3.5084   52.4979   22.8591 H         1 UNK         0.0000 
     35 H35         2.8164   54.1095   22.9962 H         1 UNK         0.0000 
     36 H36         2.7664   53.2695   21.4540 H         1 UNK         0.0000 
     37 H37         4.3543   53.9437   19.8729 H         1 UNK         0.0000 
     38 H38         8.0249   55.8427   20.9740 H         1 UNK         0.0000 
     39 H39         7.5044   55.5280   23.3253 H         1 UNK         0.0000 
     40 H40         4.3738   53.8552   24.4469 H         1 UNK         0.0000 
     41 H41         5.4041   55.2966   27.4935 H         1 UNK         0.0000 
     42 H42         3.5065   56.0967   26.0817 H         1 UNK         0.0000 
     43 H43         3.0682   54.4313   25.6905 H         1 UNK         0.0000 
     44 H44         3.0369   55.5678   28.5157 H         1 UNK         0.0000 
     45 H45         1.6271   55.2939   27.5247 H         1 UNK         0.0000 
     46 H46         4.2951   53.3857   29.3510 H         1 UNK         0.0000 
     47 H47         3.7699   51.8723   28.6493 H         1 UNK         0.0000 
     48 H48         4.6002   52.4970   26.4825 H         1 UNK         0.0000 
     49 H49         5.9235   52.8269   27.6504 H         1 UNK         0.0000 
     50 H50         1.2456   53.5155   25.5576 H         1 UNK         0.0000 
     51 H51         0.8870   52.3021   23.4495 H         1 UNK         0.0000 
     52 H52        -0.0948   50.0981   27.7655 H         1 UNK         0.0000 
     53 H53        -0.6786   48.1300   26.5840 H         1 UNK         0.0000 
     54 H54        -3.6252   49.0518   23.8055 H         1 UNK         0.0000 
     55 H55        -2.5872   50.3633   24.3437 H         1 UNK         0.0000 
     56 H56        -2.9256   50.1535   22.6333 H         1 UNK         0.0000 
@<TRIPOS>BOND
     1    1    2 1    
     2    1   34 1    
     3    1   35 1    
     4    1   36 1    
     5    2    7 ar   
     6    2    3 ar   
     7    3    4 ar   
     8    3   37 1    
     9    4    5 ar   
    10    4   33 1    
    11    5    6 ar   
    12    5   38 1    
    13    6    7 ar   
    14    6   39 1    
    15    7    8 1    
    16    8    9 am   BACKBONE|DICT|INTERRES
    17    8   40 1    
    18    9   10 2    
    19    9   11 1    
    20   11   16 1    
    21   11   12 1    
    22   11   41 1    
    23   12   13 1    
    24   12   42 1    
    25   12   43 1    
    26   13   14 1    
    27   13   44 1    
    28   13   45 1    
    29   14   15 1    
    30   14   17 1    
    31   15   16 1    
    32   15   46 1    
    33   15   47 1    
    34   16   48 1    
    35   16   49 1    
    36   17   18 2    
    37   17   19 2    
    38   17   20 1    
    39   20   25 ar   
    40   20   21 ar   
    41   21   22 ar   
    42   21   50 1    
    43   22   23 ar   
    44   22   51 1    
    45   23   31 1    
    46   23   24 ar   
    47   24   25 ar   
    48   24   26 1    
    49   25   52 1    
    50   26   27 am   BACKBONE|DICT|INTERRES
    51   26   53 1    
    52   27   28 2    
    53   27   29 1    
    54   29   30 1    
    55   29   31 1    
    56   29   32 1    
    57   32   54 1    
    58   32   55 1    
    59   32   56 1    
@<TRIPOS>SUBSTRUCTURE
     1 UNK         1 GROUP             0       ****    0 ROOT    
