@<TRIPOS>MOLECULE
ZINC10891557_3370
63   66    1
SMALL
USER_CHARGES


@<TRIPOS>ATOM
      1 C1         11.0368   53.2971   16.6482 C.3       1 UNK         0.0000 
      2 C2         10.2090   54.6001   16.5406 C.3       1 UNK         0.0000 
      3 C3         11.1039   55.7661   17.0301 C.3       1 UNK         0.0000 
      4 C4          9.8802   54.8695   15.0518 C.3       1 UNK         0.0000 
      5 C5          8.8989   54.4498   17.3509 C.ar      1 UNK         0.0000 
      6 C6          8.6027   55.2528   18.4626 C.ar      1 UNK         0.0000 
      7 C7          7.4157   55.0804   19.1710 C.ar      1 UNK         0.0000 
      8 C8          6.4920   54.0952   18.7992 C.ar      1 UNK         0.0000 
      9 C9          6.7846   53.2968   17.6815 C.ar      1 UNK         0.0000 
     10 C10         7.9693   53.4729   16.9744 C.ar      1 UNK         0.0000 
     11 C11         5.2306   53.8895   19.6149 C.2       1 UNK         0.0000 
     12 O12         5.0591   54.5180   20.6640 O.2       1 UNK         0.0000 
     13 N13         4.3383   53.0029   19.1135 N.am      1 UNK         0.0000 
     14 N14         3.1395   52.7461   19.7855 N.am      1 UNK         0.0000 
     15 C15         3.1102   51.9429   20.8725 C.2       1 UNK         0.0000 
     16 O16         4.0827   51.2981   21.2808 O.2       1 UNK         0.0000 
     17 C17         1.7268   51.7659   21.5347 C.3       1 UNK         0.0000 
     18 H18         1.0546   52.5248   21.1306 H         1 UNK         0.0000 
     19 C19         1.1678   50.3421   21.3253 C.3       1 UNK         0.0000 
     20 C20         0.5353   49.9748   22.6530 C.3       1 UNK         0.0000 
     21 C21         1.4820   50.5961   23.6679 C.3       1 UNK         0.0000 
     22 N22         1.8450   51.8834   23.0194 N.pl3     1 UNK         0.0000 
     23 S23         1.3492   53.4031   23.7739 S.o2      1 UNK         0.0000 
     24 O24         1.7777   54.4951   22.8945 O.2       1 UNK         0.0000 
     25 O25        -0.0601   53.2709   24.1622 O.2       1 UNK         0.0000 
     26 C26         2.3401   53.5251   25.2548 C.ar      1 UNK         0.0000 
     27 C27         1.8692   53.0345   26.4792 C.ar      1 UNK         0.0000 
     28 C28         2.6920   53.0661   27.6097 C.ar      1 UNK         0.0000 
     29 C29         3.9843   53.5838   27.5122 C.ar      1 UNK         0.0000 
     30 C30         4.4457   54.0979   26.2902 C.ar      1 UNK         0.0000 
     31 C31         3.6190   54.0850   25.1692 C.ar      1 UNK         0.0000 
     32 O32         5.6960   54.6676   26.1565 O.3       1 UNK         0.0000 
     33 C33         6.6290   54.2340   27.1453 C.3       1 UNK         0.0000 
     34 C34         5.9867   54.2725   28.5490 C.3       1 UNK         0.0000 
     35 O35         4.8003   53.4766   28.6202 O.3       1 UNK         0.0000 
     36 H36        11.9724   53.3669   16.0907 H         1 UNK         0.0000 
     37 H37        10.4989   52.4318   16.2577 H         1 UNK         0.0000 
     38 H38        11.2945   53.0726   17.6833 H         1 UNK         0.0000 
     39 H39        10.5893   56.7255   16.9747 H         1 UNK         0.0000 
     40 H40        11.4249   55.6177   18.0605 H         1 UNK         0.0000 
     41 H41        12.0100   55.8576   16.4300 H         1 UNK         0.0000 
     42 H42         9.2701   55.7670   14.9362 H         1 UNK         0.0000 
     43 H43        10.7847   55.0141   14.4599 H         1 UNK         0.0000 
     44 H44         9.3352   54.0451   14.5916 H         1 UNK         0.0000 
     45 H45         9.2844   56.0163   18.8034 H         1 UNK         0.0000 
     46 H46         7.2301   55.7142   20.0293 H         1 UNK         0.0000 
     47 H47         6.1166   52.5112   17.3537 H         1 UNK         0.0000 
     48 H48         8.1621   52.8267   16.1298 H         1 UNK         0.0000 
     49 H49         4.6081   52.2304   18.5159 H         1 UNK         0.0000 
     50 H50         2.3793   53.3463   19.4913 H         1 UNK         0.0000 
     51 H51         0.4327   50.3190   20.5216 H         1 UNK         0.0000 
     52 H52         1.9448   49.6190   21.0632 H         1 UNK         0.0000 
     53 H53        -0.4603   50.4124   22.7480 H         1 UNK         0.0000 
     54 H54         0.4400   48.8969   22.7880 H         1 UNK         0.0000 
     55 H55         1.1315   50.6967   24.6975 H         1 UNK         0.0000 
     56 H56         2.3725   49.9654   23.7256 H         1 UNK         0.0000 
     57 H57         0.8827   52.5992   26.5522 H         1 UNK         0.0000 
     58 H58         2.3460   52.6519   28.5448 H         1 UNK         0.0000 
     59 H59         3.9871   54.4736   24.2293 H         1 UNK         0.0000 
     60 H60         7.5039   54.8827   27.1210 H         1 UNK         0.0000 
     61 H61         6.9550   53.2176   26.9207 H         1 UNK         0.0000 
     62 H62         5.7335   55.2992   28.8088 H         1 UNK         0.0000 
     63 H63         6.7105   53.9207   29.2812 H         1 UNK         0.0000 
@<TRIPOS>BOND
     1    1    2 1    
     2    1   36 1    
     3    1   37 1    
     4    1   38 1    
     5    2    3 1    
     6    2    4 1    
     7    2    5 1    
     8    3   39 1    
     9    3   40 1    
    10    3   41 1    
    11    4   42 1    
    12    4   43 1    
    13    4   44 1    
    14    5   10 ar   
    15    5    6 ar   
    16    6    7 ar   
    17    6   45 1    
    18    7    8 ar   
    19    7   46 1    
    20    8    9 ar   
    21    8   11 1    
    22    9   10 ar   
    23    9   47 1    
    24   10   48 1    
    25   11   12 2    
    26   11   13 am   BACKBONE|DICT|INTERRES
    27   13   14 1    
    28   13   49 1    
    29   14   15 am   BACKBONE|DICT|INTERRES
    30   14   50 1    
    31   15   16 2    
    32   15   17 1    
    33   17   18 1    
    34   17   22 1    
    35   17   19 1    
    36   19   20 1    
    37   19   51 1    
    38   19   52 1    
    39   20   21 1    
    40   20   53 1    
    41   20   54 1    
    42   21   22 1    
    43   21   55 1    
    44   21   56 1    
    45   22   23 1    
    46   23   24 2    
    47   23   25 2    
    48   23   26 1    
    49   26   31 ar   
    50   26   27 ar   
    51   27   28 ar   
    52   27   57 1    
    53   28   29 ar   
    54   28   58 1    
    55   29   35 1    
    56   29   30 ar   
    57   30   31 ar   
    58   30   32 1    
    59   31   59 1    
    60   32   33 1    
    61   33   34 1    
    62   33   60 1    
    63   33   61 1    
    64   34   35 1    
    65   34   62 1    
    66   34   63 1    
@<TRIPOS>SUBSTRUCTURE
     1 UNK         1 GROUP             0       ****    0 ROOT    
