@<TRIPOS>MOLECULE
ZINC33615453_3652
48   48    1
SMALL
USER_CHARGES


@<TRIPOS>ATOM
      1 C1          3.1041   46.1033   15.9336 C.3       1 UNK         0.0000 
      2 C2          1.6241   46.5005   16.0254 C.3       1 UNK         0.0000 
      3 C3          1.1607   46.8980   17.4439 C.3       1 UNK         0.0000 
      4 H4          1.3880   46.0626   18.1104 H         1 UNK         0.0000 
      5 C5         -0.3674   47.1151   17.4698 C.3       1 UNK         0.0000 
      6 N6          1.8984   48.0664   17.9333 N.am      1 UNK         0.0000 
      7 C7          1.8549   48.5787   19.1736 C.2       1 UNK         0.0000 
      8 O8          1.1866   48.0801   20.0778 O.2       1 UNK         0.0000 
      9 C9          2.6402   49.7871   19.2860 C.2       1 UNK         0.0000 
     10 C10         2.8480   50.5542   20.3799 C.2       1 UNK         0.0000 
     11 N11         3.6751   51.6704   20.2208 N.pl3     1 UNK         0.0000 
     12 N12         3.4273   52.8841   20.8916 N.am      1 UNK         0.0000 
     13 C13         4.2017   53.2257   21.9398 C.2       1 UNK         0.0000 
     14 O14         5.3630   52.8320   22.0822 O.2       1 UNK         0.0000 
     15 C15         3.5312   54.0960   23.0128 C.3       1 UNK         0.0000 
     16 O16         4.5106   54.4944   23.9813 O.3       1 UNK         0.0000 
     17 C17         4.2904   54.3767   25.3427 C.ar      1 UNK         0.0000 
     18 C18         3.0487   54.0899   25.9321 C.ar      1 UNK         0.0000 
     19 C19         2.9145   53.9787   27.3199 C.ar      1 UNK         0.0000 
     20 C20         4.0354   54.1647   28.1394 C.ar      1 UNK         0.0000 
     21 C21         5.2722   54.4549   27.5647 C.ar      1 UNK         0.0000 
     22 C22         5.3978   54.5583   26.1790 C.ar      1 UNK         0.0000 
     23 Br23        7.1043   54.9533   25.4318 Br        1 UNK         0.0000 
     24 Br24        3.9045   54.0503   30.0401 Br        1 UNK         0.0000 
     25 C25         1.5528   53.6486   27.9136 C.3       1 UNK         0.0000 
     26 C26         2.3035   50.3367   21.7926 C.3       1 UNK         0.0000 
     27 H27         3.3995   45.9430   14.8980 H         1 UNK         0.0000 
     28 H28         3.3017   45.1829   16.4815 H         1 UNK         0.0000 
     29 H29         3.7485   46.8818   16.3408 H         1 UNK         0.0000 
     30 H30         1.4447   47.3332   15.3429 H         1 UNK         0.0000 
     31 H31         1.0214   45.6699   15.6557 H         1 UNK         0.0000 
     32 H32        -0.8888   46.2582   17.0430 H         1 UNK         0.0000 
     33 H33        -0.7461   47.2348   18.4850 H         1 UNK         0.0000 
     34 H34        -0.6567   47.9855   16.8798 H         1 UNK         0.0000 
     35 H35         2.5658   48.4862   17.2894 H         1 UNK         0.0000 
     36 H36         3.1044   50.0984   18.3616 H         1 UNK         0.0000 
     37 H37         4.0087   51.8601   19.2814 H         1 UNK         0.0000 
     38 H38         2.4837   53.2269   20.7669 H         1 UNK         0.0000 
     39 H39         3.1052   54.9846   22.5494 H         1 UNK         0.0000 
     40 H40         2.7200   53.4935   23.4160 H         1 UNK         0.0000 
     41 H41         2.1616   53.9679   25.3330 H         1 UNK         0.0000 
     42 H42         6.1363   54.6051   28.1968 H         1 UNK         0.0000 
     43 H43         1.1382   54.5179   28.4255 H         1 UNK         0.0000 
     44 H44         0.8453   53.3058   27.1579 H         1 UNK         0.0000 
     45 H45         1.6433   52.8437   28.6441 H         1 UNK         0.0000 
     46 H46         1.7432   49.4179   21.9308 H         1 UNK         0.0000 
     47 H47         3.1301   50.2949   22.4959 H         1 UNK         0.0000 
     48 H48         1.6491   51.1580   22.0831 H         1 UNK         0.0000 
@<TRIPOS>BOND
     1    1    2 1    
     2    1   27 1    
     3    1   28 1    
     4    1   29 1    
     5    2    3 1    
     6    2   30 1    
     7    2   31 1    
     8    3    4 1    
     9    3    5 1    
    10    3    6 1    
    11    5   32 1    
    12    5   33 1    
    13    5   34 1    
    14    6   35 1    
    15    6    7 am   BACKBONE|DICT|INTERRES
    16    7    8 2    
    17    7    9 1    
    18    9   36 1    
    19    9   10 2    
    20   10   26 1    
    21   10   11 1    
    22   11   12 1    
    23   11   37 1    
    24   12   13 am   BACKBONE|DICT|INTERRES
    25   12   38 1    
    26   13   14 2    
    27   13   15 1    
    28   15   16 1    
    29   15   39 1    
    30   15   40 1    
    31   16   17 1    
    32   17   22 ar   
    33   17   18 ar   
    34   18   19 ar   
    35   18   41 1    
    36   19   20 ar   
    37   19   25 1    
    38   20   21 ar   
    39   20   24 1    
    40   21   22 ar   
    41   21   42 1    
    42   22   23 1    
    43   25   43 1    
    44   25   44 1    
    45   25   45 1    
    46   26   46 1    
    47   26   47 1    
    48   26   48 1    
@<TRIPOS>SUBSTRUCTURE
     1 UNK         1 GROUP             0       ****    0 ROOT    
