@<TRIPOS>MOLECULE
ZINC04891911_5829
59   63    1
SMALL
USER_CHARGES


@<TRIPOS>ATOM
      1 C1          5.6832   54.8960   24.0817 C.ar      1 UNK         0.0000 
      2 C2          4.5794   54.1635   24.5003 C.ar      1 UNK         0.0000 
      3 C3          4.5311   53.6970   25.8078 C.ar      1 UNK         0.0000 
      4 C4          5.5971   53.9359   26.6858 C.ar      1 UNK         0.0000 
      5 C5          6.6803   54.7092   26.2666 C.ar      1 UNK         0.0000 
      6 C6          6.7105   55.2007   24.9643 C.ar      1 UNK         0.0000 
      7 C7          5.5990   53.3684   28.1032 C.3       1 UNK         0.0000 
      8 N8          4.2735   53.0612   28.6456 N.am      1 UNK         0.0000 
      9 C9          3.4168   54.0028   29.0790 C.2       1 UNK         0.0000 
     10 O10         3.7760   55.1616   29.2816 O.2       1 UNK         0.0000 
     11 N11         2.1398   53.6034   29.2824 N.am      1 UNK         0.0000 
     12 C12         1.1385   54.5134   29.8442 C.3       1 UNK         0.0000 
     13 C13        -0.1756   53.7686   29.7175 C.3       1 UNK         0.0000 
     14 C14         0.2465   52.3118   29.7558 C.3       1 UNK         0.0000 
     15 C15         1.5190   52.3138   28.8975 C.3       1 UNK         0.0000 
     16 H16         2.1543   51.4620   29.1491 H         1 UNK         0.0000 
     17 C17         1.1383   52.2576   27.4030 C.2       1 UNK         0.0000 
     18 O18         1.1994   53.2821   26.7200 O.2       1 UNK         0.0000 
     19 N19         0.7042   51.0605   26.9683 N.am      1 UNK         0.0000 
     20 C20         0.1045   50.7175   25.6736 C.3       1 UNK         0.0000 
     21 C21         0.8669   51.2821   24.4257 C.3       1 UNK         0.0000 
     22 C22         0.2062   50.8291   23.0978 C.3       1 UNK         0.0000 
     23 C23        -1.2553   51.3452   23.0585 C.3       1 UNK         0.0000 
     24 C24        -2.0442   50.7613   24.2591 C.3       1 UNK         0.0000 
     25 C25        -1.3736   51.2109   25.5857 C.3       1 UNK         0.0000 
     26 C26        -2.0325   49.2117   24.1795 C.3       1 UNK         0.0000 
     27 C27        -0.5703   48.6998   24.2179 C.3       1 UNK         0.0000 
     28 C28         0.2183   49.2815   23.0191 C.3       1 UNK         0.0000 
     29 C29         0.0939   49.1623   25.5405 C.3       1 UNK         0.0000 
     30 H30         5.7410   55.2454   23.0622 H         1 UNK         0.0000 
     31 H31         3.7744   53.9455   23.8144 H         1 UNK         0.0000 
     32 H32         3.6842   53.1040   26.1139 H         1 UNK         0.0000 
     33 H33         7.5001   54.9049   26.9453 H         1 UNK         0.0000 
     34 H34         7.5432   55.7913   24.6171 H         1 UNK         0.0000 
     35 H35         6.1165   54.0604   28.7732 H         1 UNK         0.0000 
     36 H36         6.1985   52.4620   28.0828 H         1 UNK         0.0000 
     37 H37         3.9248   52.1310   28.4727 H         1 UNK         0.0000 
     38 H38         1.1043   55.4738   29.3269 H         1 UNK         0.0000 
     39 H39         1.3788   54.6998   30.8895 H         1 UNK         0.0000 
     40 H40        -0.6073   54.0014   28.7453 H         1 UNK         0.0000 
     41 H41        -0.8931   54.0290   30.4812 H         1 UNK         0.0000 
     42 H42        -0.5364   51.6392   29.3977 H         1 UNK         0.0000 
     43 H43         0.4818   52.0199   30.7809 H         1 UNK         0.0000 
     44 H44         0.6896   50.3011   27.6349 H         1 UNK         0.0000 
     45 H45         1.9045   50.9625   24.4497 H         1 UNK         0.0000 
     46 H46         0.8945   52.3714   24.4408 H         1 UNK         0.0000 
     47 H47         0.7636   51.2419   22.2553 H         1 UNK         0.0000 
     48 H48        -1.2727   52.4360   23.0911 H         1 UNK         0.0000 
     49 H49        -1.7318   51.0631   22.1179 H         1 UNK         0.0000 
     50 H50        -3.0741   51.1196   24.2290 H         1 UNK         0.0000 
     51 H51        -1.4124   52.2980   25.6700 H         1 UNK         0.0000 
     52 H52        -1.9440   50.8266   26.4338 H         1 UNK         0.0000 
     53 H53        -2.5287   48.8742   23.2679 H         1 UNK         0.0000 
     54 H54        -2.6023   48.7870   25.0080 H         1 UNK         0.0000 
     55 H55        -0.5589   47.6096   24.1691 H         1 UNK         0.0000 
     56 H56         1.2435   48.9060   23.0246 H         1 UNK         0.0000 
     57 H57        -0.2197   48.9488   22.0771 H         1 UNK         0.0000 
     58 H58        -0.4358   48.7156   26.3841 H         1 UNK         0.0000 
     59 H59         1.1101   48.7687   25.5959 H         1 UNK         0.0000 
@<TRIPOS>BOND
     1    1    6 ar   
     2    1    2 ar   
     3    1   30 1    
     4    2    3 ar   
     5    2   31 1    
     6    3    4 ar   
     7    3   32 1    
     8    4    5 ar   
     9    4    7 1    
    10    5    6 ar   
    11    5   33 1    
    12    6   34 1    
    13    7    8 1    
    14    7   35 1    
    15    7   36 1    
    16    8    9 am   BACKBONE|DICT|INTERRES
    17    8   37 1    
    18    9   10 2    
    19    9   11 am   BACKBONE|DICT|INTERRES
    20   11   15 1    
    21   11   12 1    
    22   12   13 1    
    23   12   38 1    
    24   12   39 1    
    25   13   14 1    
    26   13   40 1    
    27   13   41 1    
    28   14   15 1    
    29   14   42 1    
    30   14   43 1    
    31   15   16 1    
    32   15   17 1    
    33   17   18 2    
    34   17   19 am   BACKBONE|DICT|INTERRES
    35   19   20 1    
    36   19   44 1    
    37   20   25 1    
    38   20   29 1    
    39   20   21 1    
    40   21   22 1    
    41   21   45 1    
    42   21   46 1    
    43   22   28 1    
    44   22   23 1    
    45   22   47 1    
    46   23   24 1    
    47   23   48 1    
    48   23   49 1    
    49   24   25 1    
    50   24   26 1    
    51   24   50 1    
    52   25   51 1    
    53   25   52 1    
    54   26   27 1    
    55   26   53 1    
    56   26   54 1    
    57   27   28 1    
    58   27   29 1    
    59   27   55 1    
    60   28   56 1    
    61   28   57 1    
    62   29   58 1    
    63   29   59 1    
@<TRIPOS>SUBSTRUCTURE
     1 UNK         1 GROUP             0       ****    0 ROOT    
