@<TRIPOS>MOLECULE
ZINC04038051_3810
47   49    1
SMALL
USER_CHARGES


@<TRIPOS>ATOM
      1 C1          4.2843   54.1310   24.1143 C.3       1 UNK         0.0000 
      2 C2          3.4812   53.6975   25.3225 C.ar      1 UNK         0.0000 
      3 C3          3.9125   53.7072   26.6478 C.ar      1 UNK         0.0000 
      4 N4          2.8643   53.3132   27.4785 N.pl3     1 UNK         0.0000 
      5 C5          1.8034   52.9801   26.6496 C.ar      1 UNK         0.0000 
      6 C6          2.1437   53.2870   25.3468 C.ar      1 UNK         0.0000 
      7 S7          1.0300   53.1849   23.9231 S.o2      1 UNK         0.0000 
      8 O8         -0.2564   52.6489   24.3857 O.2       1 UNK         0.0000 
      9 O9          1.1052   54.4967   23.2816 O.2       1 UNK         0.0000 
     10 C10         1.7358   51.9849   22.8026 C.ar      1 UNK         0.0000 
     11 C11         1.6137   50.6252   23.0932 C.ar      1 UNK         0.0000 
     12 C12         2.1033   49.6845   22.1921 C.ar      1 UNK         0.0000 
     13 C13         2.7042   50.1067   21.0080 C.ar      1 UNK         0.0000 
     14 C14         2.8421   51.4625   20.7226 C.ar      1 UNK         0.0000 
     15 C15         2.3526   52.4067   21.6209 C.ar      1 UNK         0.0000 
     16 N16         0.6235   52.4676   27.0943 N.pl3     1 UNK         0.0000 
     17 C17         2.9256   53.3305   28.9663 C.3       1 UNK         0.0000 
     18 C18         2.9240   54.7725   29.5203 C.3       1 UNK         0.0000 
     19 C19         1.5045   55.3275   29.6993 C.3       1 UNK         0.0000 
     20 C20         0.6768   54.4329   30.6430 C.3       1 UNK         0.0000 
     21 C21         0.6188   52.9605   30.1896 C.3       1 UNK         0.0000 
     22 C22         2.0023   52.3755   29.7818 C.3       1 UNK         0.0000 
     23 C23         5.2923   54.0767   27.1802 C.3       1 UNK         0.0000 
     24 H24         4.8203   53.2982   23.6608 H         1 UNK         0.0000 
     25 H25         3.6626   54.5800   23.3414 H         1 UNK         0.0000 
     26 H26         5.0183   54.8959   24.3677 H         1 UNK         0.0000 
     27 H27         1.1334   50.2986   24.0051 H         1 UNK         0.0000 
     28 H28         2.0163   48.6309   22.4110 H         1 UNK         0.0000 
     29 H29         3.0745   49.3760   20.3031 H         1 UNK         0.0000 
     30 H30         3.3137   51.7760   19.8014 H         1 UNK         0.0000 
     31 H31         2.4371   53.4584   21.3854 H         1 UNK         0.0000 
     32 H32        -0.1232   52.2697   26.4367 H         1 UNK         0.0000 
     33 H33         0.4731   52.2051   28.0576 H         1 UNK         0.0000 
     34 H34         3.9214   52.9188   29.1316 H         1 UNK         0.0000 
     35 H35         3.5103   55.4447   28.8951 H         1 UNK         0.0000 
     36 H36         3.4673   54.7828   30.4636 H         1 UNK         0.0000 
     37 H37         1.0133   55.3960   28.7275 H         1 UNK         0.0000 
     38 H38         1.5479   56.3442   30.0929 H         1 UNK         0.0000 
     39 H39        -0.3320   54.8347   30.7347 H         1 UNK         0.0000 
     40 H40         1.0954   54.4742   31.6458 H         1 UNK         0.0000 
     41 H41        -0.1174   52.8851   29.3957 H         1 UNK         0.0000 
     42 H42         0.1998   52.3554   30.9967 H         1 UNK         0.0000 
     43 H43         2.5318   52.1228   30.7021 H         1 UNK         0.0000 
     44 H44         1.9073   51.4089   29.2836 H         1 UNK         0.0000 
     45 H45         6.0301   54.1334   26.3788 H         1 UNK         0.0000 
     46 H46         5.3102   55.0460   27.6780 H         1 UNK         0.0000 
     47 H47         5.6848   53.3386   27.8808 H         1 UNK         0.0000 
@<TRIPOS>BOND
     1    1    2 1    
     2    1   24 1    
     3    1   25 1    
     4    1   26 1    
     5    2    6 ar   
     6    2    3 ar   
     7    3    4 ar   
     8    3   23 1    
     9    4    5 ar   
    10    4   17 1    
    11    5    6 ar   
    12    5   16 1    
    13    6    7 1    
    14    7    8 2    
    15    7    9 2    
    16    7   10 1    
    17   10   15 ar   
    18   10   11 ar   
    19   11   12 ar   
    20   11   27 1    
    21   12   13 ar   
    22   12   28 1    
    23   13   14 ar   
    24   13   29 1    
    25   14   15 ar   
    26   14   30 1    
    27   15   31 1    
    28   16   32 1    
    29   16   33 1    
    30   17   22 1    
    31   17   18 1    
    32   17   34 1    
    33   18   19 1    
    34   18   35 1    
    35   18   36 1    
    36   19   20 1    
    37   19   37 1    
    38   19   38 1    
    39   20   21 1    
    40   20   39 1    
    41   20   40 1    
    42   21   22 1    
    43   21   41 1    
    44   21   42 1    
    45   22   43 1    
    46   22   44 1    
    47   23   45 1    
    48   23   46 1    
    49   23   47 1    
@<TRIPOS>SUBSTRUCTURE
     1 UNK         1 GROUP             0       ****    0 ROOT    
