@<TRIPOS>MOLECULE
ZINC33604700_3179
69   73    1
SMALL
USER_CHARGES


@<TRIPOS>ATOM
      1 C1          4.0878   54.0509   24.1446 C.3       1 UNK         0.0000 
      2 C2          3.7867   53.6170   22.7119 C.ar      1 UNK         0.0000 
      3 C3          4.6494   54.1063   21.7235 C.ar      1 UNK         0.0000 
      4 C4          4.5185   53.7121   20.3959 C.ar      1 UNK         0.0000 
      5 C5          3.5149   52.8226   20.0350 C.ar      1 UNK         0.0000 
      6 C6          2.6393   52.3354   21.0013 C.ar      1 UNK         0.0000 
      7 C7          2.7515   52.7092   22.3550 C.ar      1 UNK         0.0000 
      8 N8          1.8433   52.1272   23.2949 N.am      1 UNK         0.0000 
      9 C9          1.5039   50.7898   23.2983 C.2       1 UNK         0.0000 
     10 O10         1.9851   49.8606   22.6502 O.2       1 UNK         0.0000 
     11 C11         0.3159   50.6850   24.2326 C.3       1 UNK         0.0000 
     12 H12        -0.5632   50.9224   23.6265 H         1 UNK         0.0000 
     13 C13        -0.0415   49.4574   25.0844 C.3       1 UNK         0.0000 
     14 H14         0.8345   48.9377   25.4835 H         1 UNK         0.0000 
     15 N15        -0.7042   50.1801   26.2976 N.4       1 UNK         0.0000 
     16 C16        -0.5453   51.7374   26.1848 C.3       1 UNK         0.0000 
     17 C17         0.6512   51.7231   25.2054 C.3       1 UNK         0.0000 
     18 H18         1.5044   51.4884   25.8433 H         1 UNK         0.0000 
     19 C19         1.1837   52.8150   24.2888 C.2       1 UNK         0.0000 
     20 O20         1.1046   54.0297   24.4653 O.2       1 UNK         0.0000 
     21 C21        -1.8326   52.4675   25.6411 C.3       1 UNK         0.0000 
     22 C22        -3.1827   51.6829   25.6883 C.3       1 UNK         0.0000 
     23 C23        -4.3404   52.5419   26.2478 C.3       1 UNK         0.0000 
     24 C24        -5.6601   51.7463   26.3273 C.3       1 UNK         0.0000 
     25 C25        -6.0419   51.1329   24.9634 C.3       1 UNK         0.0000 
     26 C26        -4.8841   50.3201   24.3477 C.3       1 UNK         0.0000 
     27 C27        -3.5885   51.1512   24.2921 C.3       1 UNK         0.0000 
     28 C28        -0.2532   52.2504   27.6411 C.2       1 UNK         0.0000 
     29 O29         0.5092   53.2368   27.7617 O.co2     1 UNK         0.0000 
     30 O30        -0.8133   51.6955   28.6121 O.co2     1 UNK         0.0000 
     31 C31        -1.0359   48.4531   24.4730 C.ar      1 UNK         0.0000 
     32 C32        -1.1143   48.2898   23.0854 C.ar      1 UNK         0.0000 
     33 C33        -2.1114   47.4987   22.5227 C.ar      1 UNK         0.0000 
     34 C34        -3.0463   46.8443   23.3251 C.ar      1 UNK         0.0000 
     35 C35        -2.9260   46.9520   24.7202 C.ar      1 UNK         0.0000 
     36 C36        -1.9197   47.7307   25.2830 C.ar      1 UNK         0.0000 
     37 O37        -4.0567   46.1826   22.6421 O.3       1 UNK         0.0000 
     38 C38        -4.9263   45.2866   23.1839 C.2       1 UNK         0.0000 
     39 O39        -4.8943   44.7823   24.3068 O.2       1 UNK         0.0000 
     40 C40        -6.0143   44.8956   22.1934 C.3       1 UNK         0.0000 
     41 H41         3.8468   53.2799   24.8733 H         1 UNK         0.0000 
     42 H42         5.1503   54.2565   24.2801 H         1 UNK         0.0000 
     43 H43         3.5333   54.9535   24.3959 H         1 UNK         0.0000 
     44 H44         5.4439   54.7896   21.9846 H         1 UNK         0.0000 
     45 H45         5.1966   54.0907   19.6447 H         1 UNK         0.0000 
     46 H46         3.4167   52.5087   19.0053 H         1 UNK         0.0000 
     47 H47         1.8705   51.6477   20.6806 H         1 UNK         0.0000 
     48 H48        -0.3309   49.8398   27.1774 H         1 UNK         0.0000 
     49 H49        -1.9768   53.3985   26.1850 H         1 UNK         0.0000 
     50 H50        -1.6611   52.8187   24.6225 H         1 UNK         0.0000 
     51 H51        -3.1114   50.8320   26.3655 H         1 UNK         0.0000 
     52 H52        -4.0731   52.8957   27.2445 H         1 UNK         0.0000 
     53 H53        -4.4699   53.4404   25.6420 H         1 UNK         0.0000 
     54 H54        -5.5576   50.9490   27.0656 H         1 UNK         0.0000 
     55 H55        -6.4645   52.3901   26.6866 H         1 UNK         0.0000 
     56 H56        -6.9228   50.5002   25.0746 H         1 UNK         0.0000 
     57 H57        -6.3259   51.9308   24.2741 H         1 UNK         0.0000 
     58 H58        -4.7161   49.4190   24.9385 H         1 UNK         0.0000 
     59 H59        -5.1534   49.9791   23.3473 H         1 UNK         0.0000 
     60 H60        -3.6958   51.9814   23.5926 H         1 UNK         0.0000 
     61 H61        -2.7870   50.5472   23.8722 H         1 UNK         0.0000 
     62 H62        -0.4344   48.8053   22.4248 H         1 UNK         0.0000 
     63 H63        -2.1786   47.4262   21.4472 H         1 UNK         0.0000 
     64 H64        -3.6216   46.4846   25.3982 H         1 UNK         0.0000 
     65 H65        -1.8738   47.7962   26.3604 H         1 UNK         0.0000 
     66 H66        -5.5767   44.5935   21.2426 H         1 UNK         0.0000 
     67 H67        -6.6046   44.0657   22.5819 H         1 UNK         0.0000 
     68 H68        -6.6801   45.7404   22.0186 H         1 UNK         0.0000 
     69 H69        -1.6853   49.9459   26.3579 H         1 UNK         0.0000 
@<TRIPOS>BOND
     1    1    2 1    
     2    1   41 1    
     3    1   42 1    
     4    1   43 1    
     5    2    7 ar   
     6    2    3 ar   
     7    3    4 ar   
     8    3   44 1    
     9    4    5 ar   
    10    4   45 1    
    11    5    6 ar   
    12    5   46 1    
    13    6    7 ar   
    14    6   47 1    
    15    7    8 1    
    16    8   19 am   BACKBONE|DICT|INTERRES
    17    8    9 am   BACKBONE|DICT|INTERRES
    18    9   10 2    
    19    9   11 1    
    20   11   12 1    
    21   11   17 1    
    22   11   13 1    
    23   13   14 1    
    24   13   15 1    
    25   13   31 1    
    26   15   16 1    
    27   15   48 1    
    28   15   69 1    
    29   16   17 1    
    30   16   21 1    
    31   16   28 1    
    32   17   18 1    
    33   17   19 1    
    34   19   20 2    
    35   21   22 1    
    36   21   49 1    
    37   21   50 1    
    38   22   27 1    
    39   22   23 1    
    40   22   51 1    
    41   23   24 1    
    42   23   52 1    
    43   23   53 1    
    44   24   25 1    
    45   24   54 1    
    46   24   55 1    
    47   25   26 1    
    48   25   56 1    
    49   25   57 1    
    50   26   27 1    
    51   26   58 1    
    52   26   59 1    
    53   27   60 1    
    54   27   61 1    
    55   28   29 2    
    56   28   30 1    
    57   31   36 ar   
    58   31   32 ar   
    59   32   33 ar   
    60   32   62 1    
    61   33   34 ar   
    62   33   63 1    
    63   34   35 ar   
    64   34   37 1    
    65   35   36 ar   
    66   35   64 1    
    67   36   65 1    
    68   37   38 1    
    69   38   39 2    
    70   38   40 1    
    71   40   66 1    
    72   40   67 1    
    73   40   68 1    
@<TRIPOS>SUBSTRUCTURE
     1 UNK         1 GROUP             0       ****    0 ROOT    
