@<TRIPOS>MOLECULE
ZINC42174294_6159
37   39    1
SMALL
USER_CHARGES


@<TRIPOS>ATOM
      1 C1          5.0828   55.1458   29.2543 C.3       1 UNK         0.0000 
      2 N2          4.3448   54.2448   28.3622 N.am      1 UNK         0.0000 
      3 C3          4.7652   54.2081   27.0014 C.ar      1 UNK         0.0000 
      4 C4          3.8492   54.4720   25.9763 C.ar      1 UNK         0.0000 
      5 C5          4.2705   54.4966   24.6490 C.ar      1 UNK         0.0000 
      6 N6          5.5632   54.3287   24.2890 N.ar      1 UNK         0.0000 
      7 C7          6.4610   54.0967   25.2760 C.ar      1 UNK         0.0000 
      8 C8          6.1142   54.0067   26.6308 C.ar      1 UNK         0.0000 
      9 N9          7.1043   53.6964   27.5640 N.pl3     1 UNK         0.0000 
     10 C10         3.2297   53.6411   28.8838 C.2       1 UNK         0.0000 
     11 O11         2.8654   53.8778   30.0439 O.2       1 UNK         0.0000 
     12 C12         2.4062   52.5975   28.0678 C.3       1 UNK         0.0000 
     13 H13         3.0351   52.2091   27.2710 H         1 UNK         0.0000 
     14 C14         1.9235   51.4024   28.9421 C.3       1 UNK         0.0000 
     15 C15         0.3926   51.4314   28.7756 C.3       1 UNK         0.0000 
     16 H16        -0.0988   50.4967   29.0254 H         1 UNK         0.0000 
     17 C17        -0.2171   52.6433   29.5047 C.3       1 UNK         0.0000 
     18 C18         0.1457   53.8112   28.5653 C.3       1 UNK         0.0000 
     19 C19         1.0396   53.1229   27.5069 C.3       1 UNK         0.0000 
     20 H20         1.1047   53.6837   26.5793 H         1 UNK         0.0000 
     21 C21         0.2632   51.8242   27.3137 C.3       1 UNK         0.0000 
     22 H22         5.8900   55.6849   28.7530 H         1 UNK         0.0000 
     23 H23         4.3940   55.8693   29.6817 H         1 UNK         0.0000 
     24 H24         5.5046   54.5931   30.0814 H         1 UNK         0.0000 
     25 H25         2.8276   54.6681   26.2124 H         1 UNK         0.0000 
     26 H26         3.5688   54.6852   23.8494 H         1 UNK         0.0000 
     27 H27         7.4744   53.9680   24.9307 H         1 UNK         0.0000 
     28 H28         7.9897   53.3234   27.2565 H         1 UNK         0.0000 
     29 H29         6.9861   54.0110   28.5171 H         1 UNK         0.0000 
     30 H30         2.1937   51.4592   29.9968 H         1 UNK         0.0000 
     31 H31         2.3043   50.4627   28.5499 H         1 UNK         0.0000 
     32 H32         0.1906   52.7676   30.5095 H         1 UNK         0.0000 
     33 H33        -1.2949   52.5209   29.6023 H         1 UNK         0.0000 
     34 H34        -0.7470   54.2090   28.0836 H         1 UNK         0.0000 
     35 H35         0.6263   54.6439   29.0779 H         1 UNK         0.0000 
     36 H36         0.7395   51.1201   26.6275 H         1 UNK         0.0000 
     37 H37        -0.7713   51.9660   26.9914 H         1 UNK         0.0000 
@<TRIPOS>BOND
     1    1    2 1    
     2    1   22 1    
     3    1   23 1    
     4    1   24 1    
     5    2    3 1    
     6    2   10 am   BACKBONE|DICT|INTERRES
     7    3    8 ar   
     8    3    4 ar   
     9    4    5 ar   
    10    4   25 1    
    11    5    6 ar   
    12    5   26 1    
    13    6    7 ar   
    14    7    8 ar   
    15    7   27 1    
    16    8    9 1    
    17    9   28 1    
    18    9   29 1    
    19   10   11 2    
    20   10   12 1    
    21   12   13 1    
    22   12   19 1    
    23   12   14 1    
    24   14   15 1    
    25   14   30 1    
    26   14   31 1    
    27   15   16 1    
    28   15   21 1    
    29   15   17 1    
    30   17   18 1    
    31   17   32 1    
    32   17   33 1    
    33   18   19 1    
    34   18   34 1    
    35   18   35 1    
    36   19   20 1    
    37   19   21 1    
    38   21   36 1    
    39   21   37 1    
@<TRIPOS>SUBSTRUCTURE
     1 UNK         1 GROUP             0       ****    0 ROOT    
