@<TRIPOS>MOLECULE
ZINC40414856_1841
34   36    1
SMALL
USER_CHARGES


@<TRIPOS>ATOM
      1 C1          0.1074   53.7548   29.6746 C.ar      1 UNK         0.0000 
      2 C2          0.3712   52.3906   29.5360 C.ar      1 UNK         0.0000 
      3 C3          1.6773   51.9531   29.3085 C.ar      1 UNK         0.0000 
      4 C4          2.7097   52.8856   29.2268 C.ar      1 UNK         0.0000 
      5 C5          2.4359   54.2597   29.3474 C.ar      1 UNK         0.0000 
      6 C6          1.1328   54.6947   29.5696 C.ar      1 UNK         0.0000 
      7 O7          3.4172   55.2198   29.1972 O.3       1 UNK         0.0000 
      8 C8          4.7311   54.7076   29.4285 C.3       1 UNK         0.0000 
      9 C9          4.9478   53.3883   28.6456 C.3       1 UNK         0.0000 
     10 H10         5.9360   52.9948   28.8793 H         1 UNK         0.0000 
     11 O11         4.0015   52.4087   29.1011 O.3       1 UNK         0.0000 
     12 C12         4.8331   53.5495   27.1184 C.3       1 UNK         0.0000 
     13 S13         6.1506   54.4959   26.3054 S.3       1 UNK         0.0000 
     14 C14         5.7369   54.5144   24.5873 C.ar      1 UNK         0.0000 
     15 N15         4.5024   54.0965   24.2059 N.ar      1 UNK         0.0000 
     16 C16         4.2498   54.0968   22.8722 C.ar      1 UNK         0.0000 
     17 C17         5.1975   54.4916   21.9272 C.ar      1 UNK         0.0000 
     18 C18         6.4297   54.9165   22.4258 C.ar      1 UNK         0.0000 
     19 N19         6.7047   54.9475   23.7516 N.ar      1 UNK         0.0000 
     20 N20         7.4269   55.3658   21.5685 N.pl3     1 UNK         0.0000 
     21 N21         2.9803   53.7068   22.4671 N.pl3     1 UNK         0.0000 
     22 H22        -0.8953   54.0911   29.8656 H         1 UNK         0.0000 
     23 H23        -0.4328   51.6719   29.6178 H         1 UNK         0.0000 
     24 H24         1.8827   50.8973   29.2113 H         1 UNK         0.0000 
     25 H25         0.9243   55.7485   29.6707 H         1 UNK         0.0000 
     26 H26         4.7939   54.4976   30.4935 H         1 UNK         0.0000 
     27 H27         5.5042   55.4379   29.1859 H         1 UNK         0.0000 
     28 H28         3.8716   53.9913   26.8579 H         1 UNK         0.0000 
     29 H29         4.8421   52.5545   26.6781 H         1 UNK         0.0000 
     30 H30         4.9835   54.4861   20.8690 H         1 UNK         0.0000 
     31 H31         7.3059   55.2948   20.5697 H         1 UNK         0.0000 
     32 H32         8.3110   55.6305   21.9817 H         1 UNK         0.0000 
     33 H33         2.7158   53.8005   21.4951 H         1 UNK         0.0000 
     34 H34         2.3051   53.4521   23.1705 H         1 UNK         0.0000 
@<TRIPOS>BOND
     1    1    6 ar   
     2    1    2 ar   
     3    1   22 1    
     4    2    3 ar   
     5    2   23 1    
     6    3    4 ar   
     7    3   24 1    
     8    4   11 1    
     9    4    5 ar   
    10    5    6 ar   
    11    5    7 1    
    12    6   25 1    
    13    7    8 1    
    14    8    9 1    
    15    8   26 1    
    16    8   27 1    
    17    9   10 1    
    18    9   11 1    
    19    9   12 1    
    20   12   13 1    
    21   12   28 1    
    22   12   29 1    
    23   13   14 1    
    24   14   19 ar   
    25   14   15 ar   
    26   15   16 ar   
    27   16   17 ar   
    28   16   21 1    
    29   17   18 ar   
    30   17   30 1    
    31   18   19 ar   
    32   18   20 1    
    33   20   31 1    
    34   20   32 1    
    35   21   33 1    
    36   21   34 1    
@<TRIPOS>SUBSTRUCTURE
     1 UNK         1 GROUP             0       ****    0 ROOT    
