ZINC59384959_3648
                    3D
 Schrodinger Suite 2024-2.
 51 53  0  0  1  0            999 V2000
    3.8143   53.6247   18.9711 C   0  0  0  0  0  0
    5.2340   53.8487   18.4491 C   0  0  0  0  0  0
    6.2690   54.4955   19.0733 C   0  0  0  0  0  0
    7.5780   54.7833   18.2695 C   0  0  1  0  0  0
    8.3908   54.3595   18.8629 H   0  0  0  0  0  0
    7.5683   54.0117   17.0039 N   0  0  0  0  0  0
    6.5118   53.3537   16.4498 C   0  0  0  0  0  0
    6.6113   52.6446   14.9595 S   0  0  0  0  0  0
    5.3785   53.3246   17.1996 N   0  0  0  0  0  0
    7.9386   56.2633   18.0562 C   0  0  0  0  0  0
    9.2101   56.6823   18.4641 C   0  0  0  0  0  0
    9.6055   58.0115   18.3372 C   0  0  0  0  0  0
    8.7208   58.9506   17.8157 C   0  0  0  0  0  0
    7.4490   58.5548   17.4075 C   0  0  0  0  0  0
    7.0530   57.2191   17.5152 C   0  0  0  0  0  0
    5.4629   56.8157   16.9690 Cl  0  0  0  0  0  0
    9.2016   60.6019   17.6821 Cl  0  0  0  0  0  0
    6.2418   54.9989   20.4487 C   0  0  0  0  0  0
    6.9070   55.9779   20.8082 O   0  0  0  0  0  0
    5.5003   54.2660   21.3052 N   0  0  0  0  0  0
    5.4391   54.4946   22.6309 N   0  0  0  0  0  0
    4.3861   54.0138   23.1575 C   0  0  0  0  0  0
    4.0817   54.0964   24.5893 C   0  0  0  0  0  0
    2.8199   53.6974   25.0383 C   0  0  0  0  0  0
    2.5184   53.6968   26.3973 C   0  0  0  0  0  0
    3.4732   54.0751   27.3519 C   0  0  0  0  0  0
    4.7297   54.4967   26.8896 C   0  0  0  0  0  0
    5.0296   54.5116   25.5310 C   0  0  0  0  0  0
    3.1871   54.0280   28.7447 N   0  0  0  0  0  0
    1.8924   53.5286   29.2131 C   0  0  0  0  0  0
    4.3042   53.9278   29.6821 C   0  0  0  0  0  0
    3.5187   54.3460   19.7313 H   0  0  0  0  0  0
    3.0771   53.7345   18.1751 H   0  0  0  0  0  0
    3.7146   52.6175   19.3779 H   0  0  0  0  0  0
    8.4043   53.9890   16.4386 H   0  0  0  0  0  0
    4.6455   52.7730   16.7745 H   0  0  0  0  0  0
    9.9047   55.9709   18.8839 H   0  0  0  0  0  0
   10.5927   58.3070   18.6624 H   0  0  0  0  0  0
    6.7645   59.2935   17.0118 H   0  0  0  0  0  0
    4.8350   53.5968   20.9466 H   0  0  0  0  0  0
    3.6167   53.5095   22.5706 H   0  0  0  0  0  0
    2.0640   53.3703   24.3399 H   0  0  0  0  0  0
    1.5356   53.3618   26.6848 H   0  0  0  0  0  0
    5.4975   54.8188   27.5751 H   0  0  0  0  0  0
    6.0156   54.8252   25.2175 H   0  0  0  0  0  0
    1.0685   54.0457   28.7200 H   0  0  0  0  0  0
    1.7949   52.4651   28.9933 H   0  0  0  0  0  0
    1.7701   53.6633   30.2890 H   0  0  0  0  0  0
    4.9071   54.8367   29.6806 H   0  0  0  0  0  0
    3.9747   53.7317   30.7003 H   0  0  0  0  0  0
    4.9524   53.0999   29.3919 H   0  0  0  0  0  0
  1  2  1  0  0  0
  1 32  1  0  0  0
  1 33  1  0  0  0
  1 34  1  0  0  0
  2  9  1  0  0  0
  2  3  2  0  0  0
  3  4  1  0  0  0
  3 18  1  0  0  0
  4  5  1  0  0  0
  4  6  1  0  0  0
  4 10  1  0  0  0
  6  7  1  0  0  0
  6 35  1  0  0  0
  7  8  2  0  0  0
  7  9  1  0  0  0
  9 36  1  0  0  0
 10 15  2  0  0  0
 10 11  1  0  0  0
 11 12  2  0  0  0
 11 37  1  0  0  0
 12 13  1  0  0  0
 12 38  1  0  0  0
 13 14  2  0  0  0
 13 17  1  0  0  0
 14 15  1  0  0  0
 14 39  1  0  0  0
 15 16  1  0  0  0
 18 19  2  0  0  0
 18 20  1  0  0  0
 20 21  1  0  0  0
 20 40  1  0  0  0
 21 22  2  0  0  0
 22 23  1  0  0  0
 22 41  1  0  0  0
 23 28  2  0  0  0
 23 24  1  0  0  0
 24 25  2  0  0  0
 24 42  1  0  0  0
 25 26  1  0  0  0
 25 43  1  0  0  0
 26 27  2  0  0  0
 26 29  1  0  0  0
 27 28  1  0  0  0
 27 44  1  0  0  0
 28 45  1  0  0  0
 29 30  1  0  0  0
 29 31  1  0  0  0
 30 46  1  0  0  0
 30 47  1  0  0  0
 30 48  1  0  0  0
 31 49  1  0  0  0
 31 50  1  0  0  0
 31 51  1  0  0  0
M  END
> <i_i_glide_confnum>
11

> <i_i_glide_lignum>
3649

> <i_i_glide_posenum>
333

> <i_i_glide_rotatable_bonds>
6

> <i_m_Source_File_Index>
4105

> <b_m_subgroup_collapsed>
0

> <r_i_docking_score>
-4.97071

> <r_i_glide_ecoul>
-4.61712

> <r_i_glide_eff_state_penalty>
0

> <r_i_glide_einternal>
5.11741

> <r_i_glide_emodel>
-52.1032

> <r_i_glide_energy>
-41.9237

> <r_i_glide_erotb>
0.471064

> <r_i_glide_esite>
-0.0952151

> <r_i_glide_evdw>
-37.3066

> <r_i_glide_gscore>
-4.97071

> <r_i_glide_hbond>
0

> <r_i_glide_ligand_efficiency>
-0.16569

> <r_i_glide_ligand_efficiency_ln>
-1.1294

> <r_i_glide_ligand_efficiency_sa>
-0.514839

> <r_i_glide_lipo>
-1.71334

> <r_i_glide_metal>
0

> <r_i_glide_rewards>
-1.07533

> <s_i_glide_gridfile>
wee1_glide-grid

> <s_m_Source_File>
wee1_decoys_glide_SP.sdf

> <s_m_Source_Path>
/Users/zhangxujun/Desktop

> <s_m_entry_id>
4380

> <s_m_entry_name>
wee1_decoys_glide_SP.4105

> <s_m_subgroup_title>
wee1_decoys_glide_SP

> <s_m_subgroupid>
wee1_decoys_glide_SP


$$$$
