@<TRIPOS>MOLECULE
ZINC01003180_3
55   58    1
SMALL
USER_CHARGES


@<TRIPOS>ATOM
      1 C1          0.4442   49.7848   22.4163 C.3       1 UNK         0.0000 
      2 C2          1.0987   51.1233   22.0155 C.3       1 UNK         0.0000 
      3 C3          2.5320   50.8163   21.4836 C.3       1 UNK         0.0000 
      4 C4          3.3745   52.0863   21.4296 C.2       1 UNK         0.0000 
      5 C5          3.1915   53.1851   22.2066 C.2       1 UNK         0.0000 
      6 C6          4.1777   54.3684   22.0952 C.3       1 UNK         0.0000 
      7 H7          3.6135   55.2966   22.1648 H         1 UNK         0.0000 
      8 C8          4.8884   54.3181   20.7369 C.2       1 UNK         0.0000 
      9 C9          4.9662   53.1491   20.0726 C.2       1 UNK         0.0000 
     10 O10         4.3428   52.0140   20.4794 O.3       1 UNK         0.0000 
     11 N11         5.6039   52.8968   18.8934 N.pl3     1 UNK         0.0000 
     12 C12         5.6494   55.4472   20.3055 C.1       1 UNK         0.0000 
     13 N13         6.3040   56.3564   20.0136 N.1       1 UNK         0.0000 
     14 C14         5.1852   54.3863   23.2359 C.2       1 UNK         0.0000 
     15 C15         6.5703   54.4180   23.3080 C.2       1 UNK         0.0000 
     16 C16         6.9033   54.4842   24.6547 C.2       1 UNK         0.0000 
     17 C17         5.7200   54.5089   25.3647 C.2       1 UNK         0.0000 
     18 O18         4.6788   54.4437   24.4966 O.3       1 UNK         0.0000 
     19 C19         5.3760   54.5584   26.8284 C.3       1 UNK         0.0000 
     20 O20         4.8487   53.2959   27.1991 O.3       1 UNK         0.0000 
     21 C21         3.8901   53.2828   28.1780 C.ar      1 UNK         0.0000 
     22 C22         4.1582   52.5593   29.3341 C.ar      1 UNK         0.0000 
     23 C23         3.2125   52.4955   30.3490 C.ar      1 UNK         0.0000 
     24 C24         1.9809   53.1295   30.2035 C.ar      1 UNK         0.0000 
     25 C25         1.6976   53.8347   29.0221 C.ar      1 UNK         0.0000 
     26 C26         2.6532   53.9100   28.0107 C.ar      1 UNK         0.0000 
     27 O27         1.1265   53.0200   31.2789 O.3       1 UNK         0.0000 
     28 C28        -0.0952   53.7398   31.2701 C.3       1 UNK         0.0000 
     29 C29         2.0462   53.2758   23.1292 C.2       1 UNK         0.0000 
     30 O30         1.7395   54.3169   23.7086 O.2       1 UNK         0.0000 
     31 C31         1.2059   51.9962   23.3012 C.3       1 UNK         0.0000 
     32 C32         0.2835   51.8841   20.9361 C.3       1 UNK         0.0000 
     33 H33         0.3585   49.1137   21.5607 H         1 UNK         0.0000 
     34 H34         1.0187   49.2620   23.1833 H         1 UNK         0.0000 
     35 H35        -0.5616   49.9363   22.8105 H         1 UNK         0.0000 
     36 H36         3.0715   50.1273   22.1361 H         1 UNK         0.0000 
     37 H37         2.4568   50.3567   20.4962 H         1 UNK         0.0000 
     38 H38         6.0744   53.6149   18.3622 H         1 UNK         0.0000 
     39 H39         5.5127   51.9614   18.4817 H         1 UNK         0.0000 
     40 H40         7.2641   54.4050   22.4814 H         1 UNK         0.0000 
     41 H41         7.9042   54.5059   25.0524 H         1 UNK         0.0000 
     42 H42         6.2604   54.7607   27.4342 H         1 UNK         0.0000 
     43 H43         4.6750   55.3647   27.0268 H         1 UNK         0.0000 
     44 H44         5.1044   52.0544   29.4432 H         1 UNK         0.0000 
     45 H45         3.4336   51.9568   31.2581 H         1 UNK         0.0000 
     46 H46         0.7471   54.3235   28.8730 H         1 UNK         0.0000 
     47 H47         2.4331   54.4403   27.0958 H         1 UNK         0.0000 
     48 H48        -0.5339   53.6958   32.2666 H         1 UNK         0.0000 
     49 H49         0.0463   54.7954   31.0332 H         1 UNK         0.0000 
     50 H50        -0.7940   53.2959   30.5596 H         1 UNK         0.0000 
     51 H51         1.7185   51.4227   24.0741 H         1 UNK         0.0000 
     52 H52         0.2307   52.2606   23.7103 H         1 UNK         0.0000 
     53 H53         0.1589   51.2779   20.0378 H         1 UNK         0.0000 
     54 H54        -0.7149   52.1305   21.2988 H         1 UNK         0.0000 
     55 H55         0.7548   52.8180   20.6265 H         1 UNK         0.0000 
@<TRIPOS>BOND
     1    1    2 1    
     2    1   33 1    
     3    1   34 1    
     4    1   35 1    
     5    2   31 1    
     6    2    3 1    
     7    2   32 1    
     8    3    4 1    
     9    3   36 1    
    10    3   37 1    
    11    4   10 1    
    12    4    5 2    
    13    5    6 1    
    14    5   29 1    
    15    6    7 1    
    16    6    8 1    
    17    6   14 1    
    18    8    9 2    
    19    8   12 1    
    20    9   10 1    
    21    9   11 1    
    22   11   38 1    
    23   11   39 1    
    24   12   13 3    
    25   14   18 1    
    26   14   15 2    
    27   15   16 1    
    28   15   40 1    
    29   16   17 2    
    30   16   41 1    
    31   17   18 1    
    32   17   19 1    
    33   19   20 1    
    34   19   42 1    
    35   19   43 1    
    36   20   21 1    
    37   21   26 ar   
    38   21   22 ar   
    39   22   23 ar   
    40   22   44 1    
    41   23   24 ar   
    42   23   45 1    
    43   24   25 ar   
    44   24   27 1    
    45   25   26 ar   
    46   25   46 1    
    47   26   47 1    
    48   27   28 1    
    49   28   48 1    
    50   28   49 1    
    51   28   50 1    
    52   29   30 2    
    53   29   31 1    
    54   31   51 1    
    55   31   52 1    
    56   32   53 1    
    57   32   54 1    
    58   32   55 1    
@<TRIPOS>SUBSTRUCTURE
     1 UNK         1 GROUP             0       ****    0 ROOT    
