@<TRIPOS>MOLECULE
ZINC66192404_4562
48   50    1
SMALL
USER_CHARGES


@<TRIPOS>ATOM
      1 C1          5.6981   53.9901   28.5289 C.ar      1 UNK         0.0000 
      2 C2          4.4016   53.6241   28.8801 C.ar      1 UNK         0.0000 
      3 C3          3.4090   53.4797   27.9005 C.ar      1 UNK         0.0000 
      4 C4          3.7533   53.7339   26.5600 C.ar      1 UNK         0.0000 
      5 C5          5.0541   54.0996   26.2051 C.ar      1 UNK         0.0000 
      6 C6          6.0318   54.2090   27.2021 C.ar      1 UNK         0.0000 
      7 N7          5.3195   54.2975   24.8410 N.am      1 UNK         0.0000 
      8 C8          6.3270   55.0046   24.2858 C.2       1 UNK         0.0000 
      9 O9          7.1044   55.6966   24.9433 O.2       1 UNK         0.0000 
     10 C10         6.5082   54.9706   22.7550 C.3       1 UNK         0.0000 
     11 N11         5.5234   54.1869   22.0382 N.pl3     1 UNK         0.0000 
     12 C12         5.2671   54.2733   20.6589 C.ar      1 UNK         0.0000 
     13 C13         5.6833   55.3724   19.8941 C.ar      1 UNK         0.0000 
     14 C14         5.4005   55.4361   18.5300 C.ar      1 UNK         0.0000 
     15 C15         4.7102   54.3981   17.9103 C.ar      1 UNK         0.0000 
     16 C16         4.3044   53.2955   18.6582 C.ar      1 UNK         0.0000 
     17 C17         4.5785   53.2249   20.0255 C.ar      1 UNK         0.0000 
     18 Cl18        4.0737   51.8145   20.8996 Cl        1 UNK         0.0000 
     19 Cl19        4.3671   54.4725   16.2197 Cl        1 UNK         0.0000 
     20 C20         2.0096   53.0682   28.3050 C.2       1 UNK         0.0000 
     21 O21         1.6367   53.2132   29.4702 O.2       1 UNK         0.0000 
     22 N22         1.2500   52.5473   27.3173 N.am      1 UNK         0.0000 
     23 C23        -0.0857   52.1168   27.3611 C.ar      1 UNK         0.0000 
     24 C24        -0.7401   51.6969   28.5287 C.ar      1 UNK         0.0000 
     25 C25        -2.0734   51.2967   28.4724 C.ar      1 UNK         0.0000 
     26 C26        -2.7613   51.2968   27.2602 C.ar      1 UNK         0.0000 
     27 C27        -2.1191   51.7010   26.0843 C.ar      1 UNK         0.0000 
     28 C28        -0.7760   52.0970   26.1455 C.ar      1 UNK         0.0000 
     29 C29        -2.8683   51.7092   24.7516 C.3       1 UNK         0.0000 
     30 F30        -2.0430   51.4982   23.7231 F         1 UNK         0.0000 
     31 F31        -3.8201   50.7750   24.7165 F         1 UNK         0.0000 
     32 F32        -3.4405   52.9012   24.5871 F         1 UNK         0.0000 
     33 H33         6.4650   54.0955   29.2806 H         1 UNK         0.0000 
     34 H34         4.1805   53.4437   29.9220 H         1 UNK         0.0000 
     35 H35         3.0120   53.6527   25.7777 H         1 UNK         0.0000 
     36 H36         7.0564   54.4548   26.9776 H         1 UNK         0.0000 
     37 H37         4.6694   53.8690   24.2023 H         1 UNK         0.0000 
     38 H38         7.5042   54.5559   22.5997 H         1 UNK         0.0000 
     39 H39         6.5956   56.0057   22.4333 H         1 UNK         0.0000 
     40 H40         5.2865   53.2857   22.4282 H         1 UNK         0.0000 
     41 H41         6.2183   56.1959   20.3366 H         1 UNK         0.0000 
     42 H42         5.7169   56.2914   17.9508 H         1 UNK         0.0000 
     43 H43         3.7942   52.4744   18.1735 H         1 UNK         0.0000 
     44 H44         1.6768   52.5007   26.4078 H         1 UNK         0.0000 
     45 H45        -0.2326   51.6528   29.4806 H         1 UNK         0.0000 
     46 H46        -2.5594   50.9431   29.3725 H         1 UNK         0.0000 
     47 H47        -3.7919   50.9694   27.2419 H         1 UNK         0.0000 
     48 H48        -0.2763   52.4102   25.2398 H         1 UNK         0.0000 
@<TRIPOS>BOND
     1    1    6 ar   
     2    1    2 ar   
     3    1   33 1    
     4    2    3 ar   
     5    2   34 1    
     6    3    4 ar   
     7    3   20 1    
     8    4    5 ar   
     9    4   35 1    
    10    5    6 ar   
    11    5    7 1    
    12    6   36 1    
    13    7    8 am   BACKBONE|DICT|INTERRES
    14    7   37 1    
    15    8    9 2    
    16    8   10 1    
    17   10   11 1    
    18   10   38 1    
    19   10   39 1    
    20   11   12 1    
    21   11   40 1    
    22   12   17 ar   
    23   12   13 ar   
    24   13   14 ar   
    25   13   41 1    
    26   14   15 ar   
    27   14   42 1    
    28   15   16 ar   
    29   15   19 1    
    30   16   17 ar   
    31   16   43 1    
    32   17   18 1    
    33   20   21 2    
    34   20   22 am   BACKBONE|DICT|INTERRES
    35   22   23 1    
    36   22   44 1    
    37   23   28 ar   
    38   23   24 ar   
    39   24   25 ar   
    40   24   45 1    
    41   25   26 ar   
    42   25   46 1    
    43   26   27 ar   
    44   26   47 1    
    45   27   28 ar   
    46   27   29 1    
    47   28   48 1    
    48   29   30 1    
    49   29   31 1    
    50   29   32 1    
@<TRIPOS>SUBSTRUCTURE
     1 UNK         1 GROUP             0       ****    0 ROOT    
