@<TRIPOS>MOLECULE
ZINC39596177_368
69   72    1
SMALL
USER_CHARGES


@<TRIPOS>ATOM
      1 C1          2.8499   53.2085   22.0801 C.3       1 UNK         0.0000 
      2 C2          3.4864   53.8624   23.3109 C.3       1 UNK         0.0000 
      3 S3          2.3878   53.8875   24.7580 S.3       1 UNK         0.0000 
      4 C4          3.3671   53.9026   26.2511 C.ar      1 UNK         0.0000 
      5 C5          2.7989   53.8061   27.5490 C.ar      1 UNK         0.0000 
      6 C6          3.6716   53.9271   28.6434 C.ar      1 UNK         0.0000 
      7 C7          5.0409   54.0951   28.4456 C.ar      1 UNK         0.0000 
      8 C8          5.5177   54.1514   27.1413 C.ar      1 UNK         0.0000 
      9 N9          4.7044   54.0688   26.0621 N.ar      1 UNK         0.0000 
     10 C10         1.3134   53.6965   27.8391 C.2       1 UNK         0.0000 
     11 O11         0.8142   54.5202   28.6086 O.2       1 UNK         0.0000 
     12 N12         0.5642   52.7246   27.2572 N.am      1 UNK         0.0000 
     13 C13         1.1019   51.4973   26.6702 C.3       1 UNK         0.0000 
     14 C14        -0.1120   50.5470   26.6714 C.3       1 UNK         0.0000 
     15 H15        -0.0956   50.0065   27.6149 H         1 UNK         0.0000 
     16 C16        -1.3672   51.4598   26.5995 C.3       1 UNK         0.0000 
     17 C17        -0.8905   52.6567   27.4434 C.3       1 UNK         0.0000 
     18 C18        -1.7209   51.9198   25.1415 C.3       1 UNK         0.0000 
     19 C19        -2.9746   52.8069   25.0726 C.3       1 UNK         0.0000 
     20 N20        -4.1626   52.0115   25.6451 N.4       1 UNK         0.0000 
     21 C21        -3.9160   51.5819   27.1037 C.3       1 UNK         0.0000 
     22 C22        -2.6267   50.7490   27.1705 C.3       1 UNK         0.0000 
     23 C23        -0.0202   49.5321   25.5041 C.2       1 UNK         0.0000 
     24 O24         0.6398   49.7515   24.4871 O.2       1 UNK         0.0000 
     25 N25        -0.7450   48.4224   25.6817 N.am      1 UNK         0.0000 
     26 C26        -0.9371   47.3452   24.7177 C.3       1 UNK         0.0000 
     27 C27        -2.2893   47.4530   23.9726 C.3       1 UNK         0.0000 
     28 H28        -2.4662   48.4819   23.6529 H         1 UNK         0.0000 
     29 C29        -3.4800   47.0771   24.8695 C.3       1 UNK         0.0000 
     30 O30        -2.3248   46.5641   22.8549 O.3       1 UNK         0.0000 
     31 C31        -1.6951   46.9013   21.6700 C.ar      1 UNK         0.0000 
     32 C32        -0.9895   48.0972   21.4477 C.ar      1 UNK         0.0000 
     33 C33        -0.3736   48.3281   20.2206 C.ar      1 UNK         0.0000 
     34 C34        -0.4629   47.3743   19.2103 C.ar      1 UNK         0.0000 
     35 C35        -1.1660   46.1918   19.4159 C.ar      1 UNK         0.0000 
     36 C36        -1.7792   45.9594   20.6435 C.ar      1 UNK         0.0000 
     37 F37         0.1343   47.5976   18.0196 F         1 UNK         0.0000 
     38 H38         3.5158   53.2592   21.2177 H         1 UNK         0.0000 
     39 H39         2.6288   52.1563   22.2645 H         1 UNK         0.0000 
     40 H40         1.9148   53.6964   21.8067 H         1 UNK         0.0000 
     41 H41         3.7860   54.8871   23.0875 H         1 UNK         0.0000 
     42 H42         4.3984   53.3204   23.5596 H         1 UNK         0.0000 
     43 H43         3.2914   53.8925   29.6544 H         1 UNK         0.0000 
     44 H44         5.7184   54.1886   29.2812 H         1 UNK         0.0000 
     45 H45         6.5725   54.2761   26.9452 H         1 UNK         0.0000 
     46 H46         1.9008   51.0705   27.2814 H         1 UNK         0.0000 
     47 H47         1.3782   51.7088   25.6405 H         1 UNK         0.0000 
     48 H48        -1.4232   53.5894   27.2792 H         1 UNK         0.0000 
     49 H49        -1.0446   52.4170   28.4975 H         1 UNK         0.0000 
     50 H50        -0.8734   52.4544   24.7069 H         1 UNK         0.0000 
     51 H51        -1.8815   51.0695   24.4781 H         1 UNK         0.0000 
     52 H52        -2.9012   53.6965   25.6882 H         1 UNK         0.0000 
     53 H53        -3.2388   53.0867   24.0511 H         1 UNK         0.0000 
     54 H54        -5.0079   52.5640   25.5909 H         1 UNK         0.0000 
     55 H55        -3.8528   52.4966   27.6811 H         1 UNK         0.0000 
     56 H56        -4.7934   51.0140   27.4207 H         1 UNK         0.0000 
     57 H57        -2.7928   49.7929   26.6763 H         1 UNK         0.0000 
     58 H58        -2.4438   50.4934   28.2157 H         1 UNK         0.0000 
     59 H59        -1.1042   48.2564   26.6246 H         1 UNK         0.0000 
     60 H60        -0.8957   46.4004   25.2594 H         1 UNK         0.0000 
     61 H61        -0.1038   47.3005   24.0150 H         1 UNK         0.0000 
     62 H62        -3.5368   47.7163   25.7502 H         1 UNK         0.0000 
     63 H63        -4.4216   47.1785   24.3306 H         1 UNK         0.0000 
     64 H64        -3.4099   46.0483   25.2191 H         1 UNK         0.0000 
     65 H65        -0.8879   48.8516   22.2126 H         1 UNK         0.0000 
     66 H66         0.1784   49.2408   20.0518 H         1 UNK         0.0000 
     67 H67        -1.2301   45.4600   18.6240 H         1 UNK         0.0000 
     68 H68        -2.3231   45.0409   20.8040 H         1 UNK         0.0000 
     69 H69        -4.3170   51.1877   25.0799 H         1 UNK         0.0000 
@<TRIPOS>BOND
     1    1    2 1    
     2    1   38 1    
     3    1   39 1    
     4    1   40 1    
     5    2    3 1    
     6    2   41 1    
     7    2   42 1    
     8    3    4 1    
     9    4    9 ar   
    10    4    5 ar   
    11    5    6 ar   
    12    5   10 1    
    13    6    7 ar   
    14    6   43 1    
    15    7    8 ar   
    16    7   44 1    
    17    8    9 ar   
    18    8   45 1    
    19   10   11 2    
    20   10   12 am   BACKBONE|DICT|INTERRES
    21   12   17 1    
    22   12   13 1    
    23   13   14 1    
    24   13   46 1    
    25   13   47 1    
    26   14   15 1    
    27   14   16 1    
    28   14   23 1    
    29   16   22 1    
    30   16   17 1    
    31   16   18 1    
    32   17   48 1    
    33   17   49 1    
    34   18   19 1    
    35   18   50 1    
    36   18   51 1    
    37   19   20 1    
    38   19   52 1    
    39   19   53 1    
    40   20   21 1    
    41   20   54 1    
    42   20   69 1    
    43   21   22 1    
    44   21   55 1    
    45   21   56 1    
    46   22   57 1    
    47   22   58 1    
    48   23   24 2    
    49   23   25 am   BACKBONE|DICT|INTERRES
    50   25   26 1    
    51   25   59 1    
    52   26   27 1    
    53   26   60 1    
    54   26   61 1    
    55   27   28 1    
    56   27   29 1    
    57   27   30 1    
    58   29   62 1    
    59   29   63 1    
    60   29   64 1    
    61   30   31 1    
    62   31   36 ar   
    63   31   32 ar   
    64   32   33 ar   
    65   32   65 1    
    66   33   34 ar   
    67   33   66 1    
    68   34   35 ar   
    69   34   37 1    
    70   35   36 ar   
    71   35   67 1    
    72   36   68 1    
@<TRIPOS>SUBSTRUCTURE
     1 UNK         1 GROUP             0       ****    0 ROOT    
