@<TRIPOS>MOLECULE
ZINC39676553_2929
79   82    1
SMALL
USER_CHARGES


@<TRIPOS>ATOM
      1 C1         -9.5565   50.6623   25.2458 C.3       1 UNK         0.0000 
      2 C2         -8.6271   51.8341   25.5931 C.3       1 UNK         0.0000 
      3 C3         -7.5937   51.4695   26.6824 C.3       1 UNK         0.0000 
      4 C4         -6.6290   52.6040   27.1209 C.3       1 UNK         0.0000 
      5 H5         -5.9807   52.1869   27.8896 H         1 UNK         0.0000 
      6 C6         -7.3722   53.7593   27.8262 C.3       1 UNK         0.0000 
      7 C7         -5.7470   53.1100   25.9490 C.2       1 UNK         0.0000 
      8 O8         -6.1303   54.0761   25.2826 O.2       1 UNK         0.0000 
      9 N9         -4.5896   52.4644   25.6650 N.am      1 UNK         0.0000 
     10 C10        -3.7342   52.8705   24.5532 C.3       1 UNK         0.0000 
     11 C11        -2.3302   52.5103   25.0688 C.3       1 UNK         0.0000 
     12 H12        -1.9743   53.2981   25.7250 H         1 UNK         0.0000 
     13 C13        -2.5270   51.2516   25.9541 C.3       1 UNK         0.0000 
     14 C14        -3.9137   51.5336   26.5743 C.3       1 UNK         0.0000 
     15 C15        -1.4725   51.1270   27.0893 C.3       1 UNK         0.0000 
     16 C16        -0.1385   50.4926   26.6616 C.3       1 UNK         0.0000 
     17 N17        -0.4310   49.1019   26.0818 N.4       1 UNK         0.0000 
     18 C18        -1.3366   49.1693   24.8377 C.3       1 UNK         0.0000 
     19 C19        -2.6574   49.8899   25.1882 C.3       1 UNK         0.0000 
     20 C20        -1.3634   52.3937   23.8711 C.2       1 UNK         0.0000 
     21 O21        -1.7412   51.9738   22.7770 O.2       1 UNK         0.0000 
     22 N22        -0.1341   52.8922   24.0830 N.am      1 UNK         0.0000 
     23 C23         0.9809   52.9985   23.1317 C.3       1 UNK         0.0000 
     24 C24         2.2772   53.5122   23.7627 C.ar      1 UNK         0.0000 
     25 C25         3.3303   53.8602   22.9097 C.ar      1 UNK         0.0000 
     26 C26         4.5428   54.2904   23.4306 C.ar      1 UNK         0.0000 
     27 C27         4.7136   54.3993   24.8171 C.ar      1 UNK         0.0000 
     28 C28         3.6529   54.0980   25.6680 C.ar      1 UNK         0.0000 
     29 C29         2.4412   53.6547   25.1475 C.ar      1 UNK         0.0000 
     30 O30         5.8947   54.7730   25.4167 O.3       1 UNK         0.0000 
     31 C31         7.0659   54.8146   24.6164 C.3       1 UNK         0.0000 
     32 C32         1.2343   51.7447   22.2942 C.ar      1 UNK         0.0000 
     33 C33         1.5878   50.5461   22.9191 C.ar      1 UNK         0.0000 
     34 C34         1.8374   49.4186   22.1537 C.ar      1 UNK         0.0000 
     35 C35         1.7678   49.4718   20.7663 C.ar      1 UNK         0.0000 
     36 C36         1.4032   50.6715   20.1382 C.ar      1 UNK         0.0000 
     37 C37         1.1308   51.8034   20.9015 C.ar      1 UNK         0.0000 
     38 O38         2.0820   48.3174   20.0862 O.3       1 UNK         0.0000 
     39 C39         2.6970   48.4807   18.8155 C.3       1 UNK         0.0000 
     40 H40       -10.2704   50.9452   24.4716 H         1 UNK         0.0000 
     41 H41       -10.1266   50.3331   26.1164 H         1 UNK         0.0000 
     42 H42        -8.9885   49.8088   24.8738 H         1 UNK         0.0000 
     43 H43        -8.1189   52.1611   24.6837 H         1 UNK         0.0000 
     44 H44        -9.2335   52.6795   25.9225 H         1 UNK         0.0000 
     45 H45        -8.1282   51.1046   27.5604 H         1 UNK         0.0000 
     46 H46        -7.0052   50.6174   26.3382 H         1 UNK         0.0000 
     47 H47        -6.6574   54.4953   28.1944 H         1 UNK         0.0000 
     48 H48        -8.0558   54.2838   27.1557 H         1 UNK         0.0000 
     49 H49        -7.9483   53.4029   28.6798 H         1 UNK         0.0000 
     50 H50        -3.9887   52.2219   23.7131 H         1 UNK         0.0000 
     51 H51        -3.7813   53.9299   24.2934 H         1 UNK         0.0000 
     52 H52        -3.7309   52.1070   27.4841 H         1 UNK         0.0000 
     53 H53        -4.4703   50.6460   26.8766 H         1 UNK         0.0000 
     54 H54        -1.3176   52.0823   27.5924 H         1 UNK         0.0000 
     55 H55        -1.8823   50.4964   27.8798 H         1 UNK         0.0000 
     56 H56         0.3940   51.0522   25.8948 H         1 UNK         0.0000 
     57 H57         0.5276   50.3442   27.5109 H         1 UNK         0.0000 
     58 H58         0.4303   48.6086   25.8774 H         1 UNK         0.0000 
     59 H59        -0.7663   49.6735   24.0581 H         1 UNK         0.0000 
     60 H60        -1.5041   48.1351   24.5328 H         1 UNK         0.0000 
     61 H61        -3.1704   49.1827   25.8428 H         1 UNK         0.0000 
     62 H62        -3.3200   49.9752   24.3252 H         1 UNK         0.0000 
     63 H63         0.0019   53.4071   24.9388 H         1 UNK         0.0000 
     64 H64         0.7044   53.7886   22.4441 H         1 UNK         0.0000 
     65 H65         3.2204   53.7790   21.8369 H         1 UNK         0.0000 
     66 H66         5.3365   54.5281   22.7402 H         1 UNK         0.0000 
     67 H67         3.7842   54.1867   26.7366 H         1 UNK         0.0000 
     68 H68         1.6507   53.4062   25.8396 H         1 UNK         0.0000 
     69 H69         7.9049   54.8980   25.2906 H         1 UNK         0.0000 
     70 H70         7.2150   53.8989   24.0388 H         1 UNK         0.0000 
     71 H71         7.0735   55.6802   23.9501 H         1 UNK         0.0000 
     72 H72         1.6819   50.4948   23.9937 H         1 UNK         0.0000 
     73 H73         2.1218   48.4995   22.6336 H         1 UNK         0.0000 
     74 H74         1.3395   50.7395   19.0630 H         1 UNK         0.0000 
     75 H75         0.8631   52.7291   20.4080 H         1 UNK         0.0000 
     76 H76         3.1374   47.5438   18.4827 H         1 UNK         0.0000 
     77 H77         1.9852   48.7959   18.0553 H         1 UNK         0.0000 
     78 H78         3.5045   49.2132   18.8816 H         1 UNK         0.0000 
     79 H79        -0.8963   48.5651   26.8193 H         1 UNK         0.0000 
@<TRIPOS>BOND
     1    1    2 1    
     2    1   40 1    
     3    1   41 1    
     4    1   42 1    
     5    2    3 1    
     6    2   43 1    
     7    2   44 1    
     8    3    4 1    
     9    3   45 1    
    10    3   46 1    
    11    4    5 1    
    12    4    6 1    
    13    4    7 1    
    14    6   47 1    
    15    6   48 1    
    16    6   49 1    
    17    7    8 2    
    18    7    9 am   BACKBONE|DICT|INTERRES
    19    9   14 1    
    20    9   10 1    
    21   10   11 1    
    22   10   50 1    
    23   10   51 1    
    24   11   12 1    
    25   11   13 1    
    26   11   20 1    
    27   13   19 1    
    28   13   14 1    
    29   13   15 1    
    30   14   52 1    
    31   14   53 1    
    32   15   16 1    
    33   15   54 1    
    34   15   55 1    
    35   16   17 1    
    36   16   56 1    
    37   16   57 1    
    38   17   18 1    
    39   17   58 1    
    40   17   79 1    
    41   18   19 1    
    42   18   59 1    
    43   18   60 1    
    44   19   61 1    
    45   19   62 1    
    46   20   21 2    
    47   20   22 am   BACKBONE|DICT|INTERRES
    48   22   23 1    
    49   22   63 1    
    50   23   24 1    
    51   23   32 1    
    52   23   64 1    
    53   24   29 ar   
    54   24   25 ar   
    55   25   26 ar   
    56   25   65 1    
    57   26   27 ar   
    58   26   66 1    
    59   27   28 ar   
    60   27   30 1    
    61   28   29 ar   
    62   28   67 1    
    63   29   68 1    
    64   30   31 1    
    65   31   69 1    
    66   31   70 1    
    67   31   71 1    
    68   32   37 ar   
    69   32   33 ar   
    70   33   34 ar   
    71   33   72 1    
    72   34   35 ar   
    73   34   73 1    
    74   35   36 ar   
    75   35   38 1    
    76   36   37 ar   
    77   36   74 1    
    78   37   75 1    
    79   38   39 1    
    80   39   76 1    
    81   39   77 1    
    82   39   78 1    
@<TRIPOS>SUBSTRUCTURE
     1 UNK         1 GROUP             0       ****    0 ROOT    
