@<TRIPOS>MOLECULE
ZINC09678742_4263
45   47    1
SMALL
USER_CHARGES


@<TRIPOS>ATOM
      1 C1          6.3412   54.8142   26.1678 C.3       1 UNK         0.0000 
      2 O2          5.3287   54.7744   25.1703 O.3       1 UNK         0.0000 
      3 C3          4.0685   54.3077   25.5001 C.ar      1 UNK         0.0000 
      4 C4          3.6573   54.0271   26.8158 C.ar      1 UNK         0.0000 
      5 C5          2.3778   53.5251   27.0930 C.ar      1 UNK         0.0000 
      6 C6          1.5055   53.2965   26.0201 C.ar      1 UNK         0.0000 
      7 C7          1.8900   53.5895   24.7138 C.ar      1 UNK         0.0000 
      8 C8          3.1665   54.0963   24.4483 C.ar      1 UNK         0.0000 
      9 O9          3.5371   54.3702   23.1534 O.3       1 UNK         0.0000 
     10 C10         4.0646   53.2441   22.4622 C.3       1 UNK         0.0000 
     11 C11         4.3735   53.6033   21.0159 C.ar      1 UNK         0.0000 
     12 C12         3.5989   53.0564   19.9919 C.ar      1 UNK         0.0000 
     13 C13         3.9030   53.2974   18.6589 C.ar      1 UNK         0.0000 
     14 C14         4.9979   54.0803   18.3142 C.ar      1 UNK         0.0000 
     15 C15         5.8227   54.6420   19.3188 C.ar      1 UNK         0.0000 
     16 C16         5.5055   54.4164   20.6969 C.ar      1 UNK         0.0000 
     17 C17         6.3609   54.9831   21.6845 C.ar      1 UNK         0.0000 
     18 C18         7.4973   55.6975   21.3171 C.ar      1 UNK         0.0000 
     19 C19         7.8014   55.9035   19.9785 C.ar      1 UNK         0.0000 
     20 C20         6.9729   55.3985   18.9814 C.ar      1 UNK         0.0000 
     21 Br21        0.6635   53.2698   23.2928 Br        1 UNK         0.0000 
     22 C22         1.9960   53.2566   28.4862 C.2       1 UNK         0.0000 
     23 N23         0.8366   52.8482   28.8519 N.2       1 UNK         0.0000 
     24 N24         0.5385   52.5808   30.1793 N.am      1 UNK         0.0000 
     25 C25         1.3475   52.2717   31.2225 C.2       1 UNK         0.0000 
     26 O26         2.5644   52.0969   31.1807 O.2       1 UNK         0.0000 
     27 N27         0.7044   52.2399   32.3830 N.am      1 UNK         0.0000 
     28 H28         7.2779   55.1110   25.6982 H         1 UNK         0.0000 
     29 H29         6.1156   55.5414   26.9497 H         1 UNK         0.0000 
     30 H30         6.4996   53.8339   26.6209 H         1 UNK         0.0000 
     31 H31         4.3387   54.1924   27.6379 H         1 UNK         0.0000 
     32 H32         0.5158   52.8951   26.1931 H         1 UNK         0.0000 
     33 H33         4.9826   52.8973   22.9399 H         1 UNK         0.0000 
     34 H34         3.3748   52.3982   22.4877 H         1 UNK         0.0000 
     35 H35         2.7502   52.4297   20.2248 H         1 UNK         0.0000 
     36 H36         3.2949   52.8542   17.8837 H         1 UNK         0.0000 
     37 H37         5.2378   54.2402   17.2737 H         1 UNK         0.0000 
     38 H38         6.1484   54.8436   22.7327 H         1 UNK         0.0000 
     39 H39         8.1491   56.0968   22.0814 H         1 UNK         0.0000 
     40 H40         8.6899   56.4581   19.7103 H         1 UNK         0.0000 
     41 H41         7.2155   55.5622   17.9403 H         1 UNK         0.0000 
     42 H42         2.7886   53.4599   29.2010 H         1 UNK         0.0000 
     43 H43        -0.4477   52.4390   30.3354 H         1 UNK         0.0000 
     44 H44        -0.3130   52.0963   32.4823 H         1 UNK         0.0000 
     45 H45         1.2656   52.1288   33.2194 H         1 UNK         0.0000 
@<TRIPOS>BOND
     1    1    2 1    
     2    1   28 1    
     3    1   29 1    
     4    1   30 1    
     5    2    3 1    
     6    3    8 ar   
     7    3    4 ar   
     8    4    5 ar   
     9    4   31 1    
    10    5    6 ar   
    11    5   22 1    
    12    6    7 ar   
    13    6   32 1    
    14    7    8 ar   
    15    7   21 1    
    16    8    9 1    
    17    9   10 1    
    18   10   11 1    
    19   10   33 1    
    20   10   34 1    
    21   11   16 ar   
    22   11   12 ar   
    23   12   13 ar   
    24   12   35 1    
    25   13   14 ar   
    26   13   36 1    
    27   14   15 ar   
    28   14   37 1    
    29   15   20 ar   
    30   15   16 ar   
    31   16   17 ar   
    32   17   18 ar   
    33   17   38 1    
    34   18   19 ar   
    35   18   39 1    
    36   19   20 ar   
    37   19   40 1    
    38   20   41 1    
    39   22   23 2    
    40   22   42 1    
    41   23   24 1    
    42   24   25 am   BACKBONE|DICT|INTERRES
    43   24   43 1    
    44   25   26 2    
    45   25   27 am   BACKBONE|DICT|INTERRES
    46   27   44 1    
    47   27   45 1    
@<TRIPOS>SUBSTRUCTURE
     1 UNK         1 GROUP             0       ****    0 ROOT    
