@<TRIPOS>MOLECULE
ZINC36737146_1830
35   37    1
SMALL
USER_CHARGES


@<TRIPOS>ATOM
      1 C1          5.7340   54.7378   19.9788 C.3       1 UNK         0.0000 
      2 C2          5.3206   54.4937   21.4252 C.ar      1 UNK         0.0000 
      3 C3          4.0129   54.0987   21.7008 C.ar      1 UNK         0.0000 
      4 C4          3.5807   53.9608   23.0151 C.ar      1 UNK         0.0000 
      5 C5          4.4562   54.1754   24.0958 C.ar      1 UNK         0.0000 
      6 C6          5.7947   54.4993   23.8036 C.ar      1 UNK         0.0000 
      7 C7          6.2198   54.6897   22.4830 C.ar      1 UNK         0.0000 
      8 O8          7.5043   55.1000   22.2130 O.3       1 UNK         0.0000 
      9 C9          3.9779   54.0964   25.5377 C.2       1 UNK         0.0000 
     10 O10         4.7198   54.4306   26.4627 O.2       1 UNK         0.0000 
     11 N11         2.7248   53.6156   25.7070 N.am      1 UNK         0.0000 
     12 C12         2.0143   53.3019   26.8853 C.ar      1 UNK         0.0000 
     13 C13         2.2636   53.9486   28.1170 C.ar      1 UNK         0.0000 
     14 C14         1.4790   53.5966   29.2126 C.ar      1 UNK         0.0000 
     15 C15         0.4842   52.6684   29.1165 C.ar      1 UNK         0.0000 
     16 C16         0.2013   52.0153   27.9268 C.ar      1 UNK         0.0000 
     17 C17         0.9721   52.3381   26.8015 C.ar      1 UNK         0.0000 
     18 N18         0.6643   51.6709   25.6095 N.pl3     1 UNK         0.0000 
     19 O19        -0.1518   52.5504   30.3105 O.3       1 UNK         0.0000 
     20 C20         0.5865   53.3194   31.2195 C.3       1 UNK         0.0000 
     21 O21         1.5034   54.0886   30.4813 O.3       1 UNK         0.0000 
     22 H22         6.1210   55.7507   19.8684 H         1 UNK         0.0000 
     23 H23         6.5271   54.0536   19.6816 H         1 UNK         0.0000 
     24 H24         4.8983   54.6251   19.2861 H         1 UNK         0.0000 
     25 H25         3.3086   53.9468   20.8951 H         1 UNK         0.0000 
     26 H26         2.5421   53.7054   23.1638 H         1 UNK         0.0000 
     27 H27         6.4986   54.6650   24.6060 H         1 UNK         0.0000 
     28 H28         8.1112   55.1363   22.9667 H         1 UNK         0.0000 
     29 H29         2.2428   53.3638   24.8612 H         1 UNK         0.0000 
     30 H30         3.0246   54.7107   28.2145 H         1 UNK         0.0000 
     31 H31        -0.5910   51.2817   27.8743 H         1 UNK         0.0000 
     32 H32        -0.0220   50.9301   25.6634 H         1 UNK         0.0000 
     33 H33         1.3513   51.6417   24.8726 H         1 UNK         0.0000 
     34 H34        -0.0906   53.9581   31.7897 H         1 UNK         0.0000 
     35 H35         1.1208   52.6420   31.8911 H         1 UNK         0.0000 
@<TRIPOS>BOND
     1    1    2 1    
     2    1   22 1    
     3    1   23 1    
     4    1   24 1    
     5    2    7 ar   
     6    2    3 ar   
     7    3    4 ar   
     8    3   25 1    
     9    4    5 ar   
    10    4   26 1    
    11    5    6 ar   
    12    5    9 1    
    13    6    7 ar   
    14    6   27 1    
    15    7    8 1    
    16    8   28 1    
    17    9   10 2    
    18    9   11 am   BACKBONE|DICT|INTERRES
    19   11   12 1    
    20   11   29 1    
    21   12   17 ar   
    22   12   13 ar   
    23   13   14 ar   
    24   13   30 1    
    25   14   21 1    
    26   14   15 ar   
    27   15   16 ar   
    28   15   19 1    
    29   16   17 ar   
    30   16   31 1    
    31   17   18 1    
    32   18   32 1    
    33   18   33 1    
    34   19   20 1    
    35   20   21 1    
    36   20   34 1    
    37   20   35 1    
@<TRIPOS>SUBSTRUCTURE
     1 UNK         1 GROUP             0       ****    0 ROOT    
