@<TRIPOS>MOLECULE
ZINC30826427_2971
59   62    1
SMALL
USER_CHARGES


@<TRIPOS>ATOM
      1 C1          4.9567   52.4991   19.9990 C.3       1 UNK         0.0000 
      2 C2          3.5468   52.3342   20.5297 C.ar      1 UNK         0.0000 
      3 C3          2.5431   51.8205   19.7084 C.ar      1 UNK         0.0000 
      4 C4          1.2408   51.7069   20.1913 C.ar      1 UNK         0.0000 
      5 C5          0.9345   52.0914   21.5035 C.ar      1 UNK         0.0000 
      6 C6          1.9554   52.5999   22.3225 C.ar      1 UNK         0.0000 
      7 C7          3.2518   52.7206   21.8335 C.ar      1 UNK         0.0000 
      8 C8         -0.4824   51.9747   22.0142 C.2       1 UNK         0.0000 
      9 O9         -1.4389   52.0969   21.2440 O.2       1 UNK         0.0000 
     10 N10        -0.5826   51.6635   23.3303 N.am      1 UNK         0.0000 
     11 C11        -1.5951   51.8379   24.2374 C.2       1 UNK         0.0000 
     12 S12        -2.8956   52.8966   24.0817 S.2       1 UNK         0.0000 
     13 N13        -1.3921   51.0564   25.3384 N.pl3     1 UNK         0.0000 
     14 C14        -2.1576   50.9126   26.5061 C.ar      1 UNK         0.0000 
     15 C15        -3.4285   50.3316   26.3823 C.ar      1 UNK         0.0000 
     16 C16        -4.2299   50.1424   27.5012 C.ar      1 UNK         0.0000 
     17 C17        -3.7612   50.5133   28.7549 C.ar      1 UNK         0.0000 
     18 C18        -2.4940   51.0762   28.8817 C.ar      1 UNK         0.0000 
     19 C19        -1.6573   51.2967   27.7755 C.ar      1 UNK         0.0000 
     20 N20        -0.4049   51.8994   27.9740 N.pl3     1 UNK         0.0000 
     21 C21        -0.0973   52.7980   29.0953 C.3       1 UNK         0.0000 
     22 C22         0.6216   54.0884   28.6634 C.3       1 UNK         0.0000 
     23 N23         1.7922   53.7805   27.8178 N.am      1 UNK         0.0000 
     24 C24         1.6155   52.7807   26.7473 C.3       1 UNK         0.0000 
     25 C25         0.8519   51.5489   27.2946 C.3       1 UNK         0.0000 
     26 C26         2.9633   54.4410   28.0566 C.2       1 UNK         0.0000 
     27 O27         3.1081   55.1881   29.0284 O.2       1 UNK         0.0000 
     28 C28         4.1238   54.3206   27.0884 C.ar      1 UNK         0.0000 
     29 C29         3.9428   54.5025   25.7074 C.ar      1 UNK         0.0000 
     30 C30         5.0352   54.4999   24.8391 C.ar      1 UNK         0.0000 
     31 C31         6.3223   54.3058   25.3340 C.ar      1 UNK         0.0000 
     32 C32         6.5127   54.0975   26.6976 C.ar      1 UNK         0.0000 
     33 C33         5.4250   54.0985   27.5684 C.ar      1 UNK         0.0000 
     34 F34         5.6547   53.8904   28.8817 F         1 UNK         0.0000 
     35 Cl35       -5.7952   49.4365   27.3368 Cl        1 UNK         0.0000 
     36 H36         4.9764   52.4970   18.9079 H         1 UNK         0.0000 
     37 H37         5.3816   53.4495   20.3233 H         1 UNK         0.0000 
     38 H38         5.5937   51.6969   20.3618 H         1 UNK         0.0000 
     39 H39         2.7739   51.5132   18.6990 H         1 UNK         0.0000 
     40 H40         0.4748   51.3169   19.5354 H         1 UNK         0.0000 
     41 H41         1.7540   52.9247   23.3329 H         1 UNK         0.0000 
     42 H42         4.0302   53.1173   22.4640 H         1 UNK         0.0000 
     43 H43         0.3057   51.4167   23.7384 H         1 UNK         0.0000 
     44 H44        -0.5391   50.5190   25.3595 H         1 UNK         0.0000 
     45 H45        -3.7970   50.0267   25.4125 H         1 UNK         0.0000 
     46 H46        -4.3565   50.3362   29.6385 H         1 UNK         0.0000 
     47 H47        -2.1369   51.2886   29.8769 H         1 UNK         0.0000 
     48 H48        -0.9837   53.0680   29.6660 H         1 UNK         0.0000 
     49 H49         0.5278   52.2288   29.7861 H         1 UNK         0.0000 
     50 H50        -0.0818   54.6783   28.0819 H         1 UNK         0.0000 
     51 H51         0.8716   54.6471   29.5670 H         1 UNK         0.0000 
     52 H52         2.5690   52.4260   26.3599 H         1 UNK         0.0000 
     53 H53         1.0428   53.2163   25.9292 H         1 UNK         0.0000 
     54 H54         1.4624   51.0380   28.0429 H         1 UNK         0.0000 
     55 H55         0.7159   50.7988   26.5209 H         1 UNK         0.0000 
     56 H56         2.9620   54.6975   25.2994 H         1 UNK         0.0000 
     57 H57         4.8865   54.6762   23.7849 H         1 UNK         0.0000 
     58 H58         7.1684   54.3068   24.6615 H         1 UNK         0.0000 
     59 H59         7.5034   53.9266   27.0893 H         1 UNK         0.0000 
@<TRIPOS>BOND
     1    1    2 1    
     2    1   36 1    
     3    1   37 1    
     4    1   38 1    
     5    2    7 ar   
     6    2    3 ar   
     7    3    4 ar   
     8    3   39 1    
     9    4    5 ar   
    10    4   40 1    
    11    5    6 ar   
    12    5    8 1    
    13    6    7 ar   
    14    6   41 1    
    15    7   42 1    
    16    8    9 2    
    17    8   10 am   BACKBONE|DICT|INTERRES
    18   10   11 am   BACKBONE|DICT|INTERRES
    19   10   43 1    
    20   11   12 2    
    21   11   13 1    
    22   13   14 1    
    23   13   44 1    
    24   14   19 ar   
    25   14   15 ar   
    26   15   16 ar   
    27   15   45 1    
    28   16   17 ar   
    29   16   35 1    
    30   17   18 ar   
    31   17   46 1    
    32   18   19 ar   
    33   18   47 1    
    34   19   20 1    
    35   20   25 1    
    36   20   21 1    
    37   21   22 1    
    38   21   48 1    
    39   21   49 1    
    40   22   23 1    
    41   22   50 1    
    42   22   51 1    
    43   23   24 1    
    44   23   26 am   BACKBONE|DICT|INTERRES
    45   24   25 1    
    46   24   52 1    
    47   24   53 1    
    48   25   54 1    
    49   25   55 1    
    50   26   27 2    
    51   26   28 1    
    52   28   33 ar   
    53   28   29 ar   
    54   29   30 ar   
    55   29   56 1    
    56   30   31 ar   
    57   30   57 1    
    58   31   32 ar   
    59   31   58 1    
    60   32   33 ar   
    61   32   59 1    
    62   33   34 1    
@<TRIPOS>SUBSTRUCTURE
     1 UNK         1 GROUP             0       ****    0 ROOT    
