@<TRIPOS>MOLECULE
ZINC14015684_475
51   54    1
SMALL
USER_CHARGES


@<TRIPOS>ATOM
      1 C1          1.3109   52.9531   25.9916 C.ar      1 UNK         0.0000 
      2 C2          0.5913   52.0526   25.2145 C.ar      1 UNK         0.0000 
      3 C3         -0.1090   51.0222   25.8326 C.ar      1 UNK         0.0000 
      4 C4         -0.0899   50.8955   27.2181 C.ar      1 UNK         0.0000 
      5 C5          0.6429   51.7820   27.9991 C.ar      1 UNK         0.0000 
      6 C6          1.3464   52.8195   27.3850 C.ar      1 UNK         0.0000 
      7 S7          2.2388   54.0075   28.3971 S.o2      1 UNK         0.0000 
      8 O8          2.2123   53.5122   29.7801 O.2       1 UNK         0.0000 
      9 O9          1.6834   55.3248   28.0835 O.2       1 UNK         0.0000 
     10 N10         3.9188   53.9657   27.8332 N.pl3     1 UNK         0.0000 
     11 C11         4.9823   54.0448   28.8674 C.3       1 UNK         0.0000 
     12 C12         6.3324   53.5536   28.2851 C.3       1 UNK         0.0000 
     13 C13         6.6823   54.1631   26.9106 C.3       1 UNK         0.0000 
     14 C14         5.4676   54.0018   25.9737 C.3       1 UNK         0.0000 
     15 H15         5.2613   52.9354   25.8680 H         1 UNK         0.0000 
     16 C16         4.2667   54.7164   26.6017 C.3       1 UNK         0.0000 
     17 C17         5.7569   54.5457   24.5645 C.2       1 UNK         0.0000 
     18 O18         6.4362   55.5641   24.4239 O.2       1 UNK         0.0000 
     19 N19         5.2209   53.8199   23.5616 N.am      1 UNK         0.0000 
     20 C20         5.3327   54.0314   22.2021 C.2       1 UNK         0.0000 
     21 N21         5.9166   55.0323   21.6014 N.2       1 UNK         0.0000 
     22 C22         5.8025   54.9255   20.2525 C.ar      1 UNK         0.0000 
     23 C23         6.3081   55.8561   19.3363 C.ar      1 UNK         0.0000 
     24 C24         6.1020   55.6252   17.9772 C.ar      1 UNK         0.0000 
     25 C25         5.4186   54.4930   17.5290 C.ar      1 UNK         0.0000 
     26 C26         4.9249   53.5380   18.4238 C.ar      1 UNK         0.0000 
     27 C27         5.1130   53.7731   19.7915 C.ar      1 UNK         0.0000 
     28 S28         4.6028   52.8195   21.1761 S.3       1 UNK         0.0000 
     29 S29         5.1745   54.2853   15.7731 S.o2      1 UNK         0.0000 
     30 O30         6.4972   54.3689   15.1469 O.2       1 UNK         0.0000 
     31 O31         4.2923   53.1334   15.5670 O.2       1 UNK         0.0000 
     32 N32         4.2897   55.7050   15.2906 N.pl3     1 UNK         0.0000 
     33 Cl33       -1.0093   49.9028   24.8764 Cl        1 UNK         0.0000 
     34 H34         1.7988   53.7677   25.4887 H         1 UNK         0.0000 
     35 H35         0.5643   52.1615   24.1397 H         1 UNK         0.0000 
     36 H36        -0.6422   50.0970   27.6866 H         1 UNK         0.0000 
     37 H37         0.6405   51.6662   29.0740 H         1 UNK         0.0000 
     38 H38         4.7060   53.4515   29.7399 H         1 UNK         0.0000 
     39 H39         5.1339   55.0925   29.1319 H         1 UNK         0.0000 
     40 H40         6.2805   52.4737   28.1624 H         1 UNK         0.0000 
     41 H41         7.1381   53.7392   28.9978 H         1 UNK         0.0000 
     42 H42         7.5045   53.5735   26.5274 H         1 UNK         0.0000 
     43 H43         6.9537   55.2071   27.0778 H         1 UNK         0.0000 
     44 H44         4.6130   55.6965   26.9168 H         1 UNK         0.0000 
     45 H45         3.4140   54.8314   25.9410 H         1 UNK         0.0000 
     46 H46         4.7017   52.9983   23.8240 H         1 UNK         0.0000 
     47 H47         6.8373   56.7340   19.6704 H         1 UNK         0.0000 
     48 H48         6.4766   56.3398   17.2575 H         1 UNK         0.0000 
     49 H49         4.4137   52.6463   18.0785 H         1 UNK         0.0000 
     50 H50         4.7778   56.3054   14.6235 H         1 UNK         0.0000 
     51 H51         3.3099   55.5262   15.0642 H         1 UNK         0.0000 
@<TRIPOS>BOND
     1    1    6 ar   
     2    1    2 ar   
     3    1   34 1    
     4    2    3 ar   
     5    2   35 1    
     6    3    4 ar   
     7    3   33 1    
     8    4    5 ar   
     9    4   36 1    
    10    5    6 ar   
    11    5   37 1    
    12    6    7 1    
    13    7    8 2    
    14    7    9 2    
    15    7   10 1    
    16   10   16 1    
    17   10   11 1    
    18   11   12 1    
    19   11   38 1    
    20   11   39 1    
    21   12   13 1    
    22   12   40 1    
    23   12   41 1    
    24   13   14 1    
    25   13   42 1    
    26   13   43 1    
    27   14   15 1    
    28   14   16 1    
    29   14   17 1    
    30   16   44 1    
    31   16   45 1    
    32   17   18 2    
    33   17   19 am   BACKBONE|DICT|INTERRES
    34   19   20 am   BACKBONE|DICT|INTERRES
    35   19   46 1    
    36   20   28 1    
    37   20   21 2    
    38   21   22 1    
    39   22   27 ar   
    40   22   23 ar   
    41   23   24 ar   
    42   23   47 1    
    43   24   25 ar   
    44   24   48 1    
    45   25   26 ar   
    46   25   29 1    
    47   26   27 ar   
    48   26   49 1    
    49   27   28 1    
    50   29   30 2    
    51   29   31 2    
    52   29   32 1    
    53   32   50 1    
    54   32   51 1    
@<TRIPOS>SUBSTRUCTURE
     1 UNK         1 GROUP             0       ****    0 ROOT    
