ZINC63472945_4097
                    3D
 Schrodinger Suite 2024-2.
 64 70  0  0  1  0            999 V2000
   -7.2857   48.4006   27.9994 C   0  0  0  0  0  0
   -8.2569   49.0336   27.1176 C   0  0  0  0  0  0
   -7.9648   50.1602   26.4145 C   0  0  0  0  0  0
   -6.6990   50.7522   26.5204 C   0  0  0  0  0  0
   -6.2235   51.8218   25.9285 N   0  3  0  0  0  0
   -4.8305   52.0526   26.3511 C   0  0  0  0  0  0
   -4.5959   50.9028   27.3104 C   0  0  0  0  0  0
   -5.7320   50.1835   27.3554 C   0  0  0  0  0  0
   -6.0657   48.9635   28.1068 C   0  0  0  0  0  0
   -3.2614   50.6759   28.0043 C   0  0  0  0  0  0
   -2.0053   50.7284   27.1063 C   0  0  2  0  0  0
   -1.2461   50.1731   27.6627 H   0  0  0  0  0  0
   -1.4299   52.1262   26.8498 C   0  0  2  0  0  0
   -2.1988   52.8981   26.8186 H   0  0  0  0  0  0
   -0.7455   52.0224   25.5175 C   0  0  1  0  0  0
   -1.2096   52.7337   24.8326 H   0  0  0  0  0  0
    0.6800   52.4970   25.7804 C   0  0  0  0  0  0
    1.5260   52.6557   24.8999 O   0  0  0  0  0  0
    0.7950   52.7477   27.1101 N   0  0  0  0  0  0
   -0.3278   52.4978   27.8305 C   0  0  0  0  0  0
   -0.4942   52.6151   29.0449 O   0  0  0  0  0  0
    2.0520   53.2426   27.7020 C   0  0  0  0  0  0
    1.9783   54.6371   28.3652 C   0  0  0  0  0  0
    3.3697   55.1330   28.7840 C   0  0  0  0  0  0
    4.1059   54.1229   29.6769 C   0  0  0  0  0  0
    4.1747   52.7265   29.0385 C   0  0  0  0  0  0
    2.7790   52.2344   28.6155 C   0  0  0  0  0  0
   -0.9455   50.5472   25.0141 C   0  0  1  0  0  0
   -2.1062   50.0988   25.7912 N   0  0  0  0  0  0
   -1.0579   50.4354   23.5176 C   0  0  0  0  0  0
   -1.9352   51.0439   22.6148 C   0  0  0  0  0  0
   -1.7560   50.8529   21.2415 C   0  0  0  0  0  0
   -0.7179   50.0382   20.7764 C   0  0  0  0  0  0
    0.1496   49.4179   21.6799 C   0  0  0  0  0  0
   -0.0335   49.6326   23.0455 C   0  0  0  0  0  0
    0.7043   49.1495   24.1114 N   0  0  0  0  0  0
    0.2469   49.5753   25.2983 C   0  0  0  0  0  0
    0.7115   49.2967   26.3990 O   0  0  0  0  0  0
   -2.7996   51.6465   20.1173 Cl  0  0  0  0  0  0
   -7.5377   47.5068   28.5512 H   0  0  0  0  0  0
   -9.2386   48.5919   27.0217 H   0  0  0  0  0  0
   -8.7272   50.5855   25.7774 H   0  0  0  0  0  0
   -4.1937   52.0093   25.4652 H   0  0  0  0  0  0
   -4.7689   53.0368   26.8171 H   0  0  0  0  0  0
   -5.3453   48.4936   28.7616 H   0  0  0  0  0  0
   -3.1595   51.3874   28.8241 H   0  0  0  0  0  0
   -3.2957   49.6971   28.4818 H   0  0  0  0  0  0
    2.7277   53.3812   26.8546 H   0  0  0  0  0  0
    1.5285   55.3532   27.6817 H   0  0  0  0  0  0
    1.3223   54.6045   29.2371 H   0  0  0  0  0  0
    3.9683   55.2966   27.8878 H   0  0  0  0  0  0
    3.2789   56.0966   29.2828 H   0  0  0  0  0  0
    5.1044   54.4972   29.8921 H   0  0  0  0  0  0
    3.5951   54.0334   30.6291 H   0  0  0  0  0  0
    4.8311   52.7524   28.1655 H   0  0  0  0  0  0
    4.6282   52.0190   29.7333 H   0  0  0  0  0  0
    2.1747   52.0261   29.4996 H   0  0  0  0  0  0
    2.8605   51.2967   28.0821 H   0  0  0  0  0  0
   -2.0896   49.0929   25.9211 H   0  0  0  0  0  0
   -2.7298   51.6842   22.9660 H   0  0  0  0  0  0
   -0.5744   49.8969   19.7139 H   0  0  0  0  0  0
    0.9571   48.8018   21.3116 H   0  0  0  0  0  0
    1.5218   48.5522   24.0453 H   0  0  0  0  0  0
   -6.7276   52.4085   25.2688 H   0  0  0  0  0  0
  1  9  2  0  0  0
  1  2  1  0  0  0
  1 40  1  0  0  0
  2  3  2  0  0  0
  2 41  1  0  0  0
  3  4  1  0  0  0
  3 42  1  0  0  0
  4  8  1  0  0  0
  4  5  2  0  0  0
  5  6  1  0  0  0
  5 64  1  0  0  0
  6  7  1  0  0  0
  6 43  1  0  0  0
  6 44  1  0  0  0
  7  8  2  0  0  0
  7 10  1  0  0  0
  8  9  1  0  0  0
  9 45  1  0  0  0
 10 11  1  0  0  0
 10 46  1  0  0  0
 10 47  1  0  0  0
 11 12  1  0  0  0
 11 29  1  0  0  0
 11 13  1  0  0  0
 13 14  1  0  0  0
 13 20  1  0  0  0
 13 15  1  0  0  0
 15 16  1  0  0  0
 15 17  1  0  0  0
 15 28  1  0  0  0
 17 18  2  0  0  0
 17 19  1  0  0  0
 19 20  1  0  0  0
 19 22  1  0  0  0
 20 21  2  0  0  0
 22 27  1  0  0  0
 22 23  1  0  0  0
 22 48  1  0  0  0
 23 24  1  0  0  0
 23 49  1  0  0  0
 23 50  1  0  0  0
 24 25  1  0  0  0
 24 51  1  0  0  0
 24 52  1  0  0  0
 25 26  1  0  0  0
 25 53  1  0  0  0
 25 54  1  0  0  0
 26 27  1  0  0  0
 26 55  1  0  0  0
 26 56  1  0  0  0
 27 57  1  0  0  0
 27 58  1  0  0  0
 28 37  1  0  0  0
 28 29  1  0  0  0
 28 30  1  0  0  0
 29 59  1  0  0  0
 30 35  2  0  0  0
 30 31  1  0  0  0
 31 32  2  0  0  0
 31 60  1  0  0  0
 32 33  1  0  0  0
 32 39  1  0  0  0
 33 34  2  0  0  0
 33 61  1  0  0  0
 34 35  1  0  0  0
 34 62  1  0  0  0
 35 36  1  0  0  0
 36 37  1  0  0  0
 36 63  1  0  0  0
 37 38  2  0  0  0
M  CHG  1   5   1
M  END
> <i_i_glide_confnum>
41

> <i_i_glide_lignum>
4098

> <i_i_glide_posenum>
270

> <i_i_glide_rotatable_bonds>
3

> <i_m_Source_File_Index>
1088

> <b_m_subgroup_collapsed>
0

> <r_i_docking_score>
-3.81493

> <r_i_glide_ecoul>
-4.5614

> <r_i_glide_eff_state_penalty>
0

> <r_i_glide_einternal>
1.77755

> <r_i_glide_emodel>
-42.1932

> <r_i_glide_energy>
-35.4076

> <r_i_glide_erotb>
0.241446

> <r_i_glide_esite>
-0.0664943

> <r_i_glide_evdw>
-30.8462

> <r_i_glide_gscore>
-3.81493

> <r_i_glide_hbond>
-0.32

> <r_i_glide_ligand_efficiency>
-0.10597

> <r_i_glide_ligand_efficiency_ln>
-0.832314

> <r_i_glide_ligand_efficiency_sa>
-0.349906

> <r_i_glide_lipo>
-1.20841

> <r_i_glide_metal>
0

> <r_i_glide_rewards>
-0.234944

> <s_i_glide_gridfile>
wee1_glide-grid

> <s_m_Source_File>
wee1_decoys_glide_SP.sdf

> <s_m_Source_Path>
/Users/zhangxujun/Desktop

> <s_m_entry_id>
1363

> <s_m_entry_name>
wee1_decoys_glide_SP.1088

> <s_m_subgroup_title>
wee1_decoys_glide_SP

> <s_m_subgroupid>
wee1_decoys_glide_SP


$$$$
