ZINC36568497_3626
                    3D
 Schrodinger Suite 2024-2.
 48 50  0  0  1  0            999 V2000
    4.8907   52.7605   21.7160 C   0  0  0  0  0  0
    3.4940   52.9266   22.3313 C   0  0  0  0  0  0
    2.3797   52.2758   21.7598 C   0  0  0  0  0  0
    1.1032   52.4647   22.3117 C   0  0  0  0  0  0
    0.9249   53.2724   23.4263 C   0  0  0  0  0  0
    2.0201   53.8884   24.0115 C   0  0  0  0  0  0
    3.3110   53.6969   23.5004 C   0  0  0  0  0  0
    4.4300   54.2591   24.1550 N   0  0  0  0  0  0
    4.7746   54.2457   25.4780 C   0  0  0  0  0  0
    6.2657   54.8964   25.8606 S   0  0  0  0  0  0
    3.8494   53.6971   26.3312 N   0  0  0  0  0  0
    3.8748   53.3214   27.6349 C   0  0  0  0  0  0
    4.8849   53.2999   28.3416 O   0  0  0  0  0  0
    2.5234   52.8858   28.1864 C   0  0  0  0  0  0
    1.5108   52.4176   27.3247 C   0  0  0  0  0  0
    0.2607   52.0387   27.8073 C   0  0  0  0  0  0
   -0.0067   52.0972   29.1714 C   0  0  0  0  0  0
    0.9821   52.5357   30.0456 C   0  0  0  0  0  0
    2.2424   52.9185   29.5693 C   0  0  0  0  0  0
    3.1735   53.3446   30.4815 O   0  0  0  0  0  0
    3.7449   52.3080   31.2708 C   0  0  0  0  0  0
   -1.0796   51.4504   26.5949 Br  0  0  0  0  0  0
    2.5664   51.4469   20.6366 N   0  0  0  0  0  0
    1.8983   50.3180   20.3274 C   0  0  0  0  0  0
    1.0302   49.8025   21.0386 O   0  0  0  0  0  0
    2.3251   49.6661   19.0045 C   0  0  0  0  0  0
    2.3495   48.1538   18.9818 C   0  0  0  0  0  0
    1.2567   48.9024   18.2435 C   0  0  0  0  0  0
    5.5398   53.6091   21.9273 H   0  0  0  0  0  0
    5.3687   51.8529   22.0815 H   0  0  0  0  0  0
    4.8476   52.7098   20.6272 H   0  0  0  0  0  0
    0.2357   51.9927   21.8749 H   0  0  0  0  0  0
   -0.0617   53.4122   23.8409 H   0  0  0  0  0  0
    1.8461   54.4976   24.8825 H   0  0  0  0  0  0
    5.1393   54.6131   23.5313 H   0  0  0  0  0  0
    2.9421   53.5809   25.9087 H   0  0  0  0  0  0
    1.6753   52.3241   26.2617 H   0  0  0  0  0  0
   -0.9705   51.7888   29.5526 H   0  0  0  0  0  0
    0.7705   52.5723   31.1053 H   0  0  0  0  0  0
    4.3100   52.7508   32.0851 H   0  0  0  0  0  0
    2.9954   51.6634   31.7281 H   0  0  0  0  0  0
    4.4288   51.6971   30.6813 H   0  0  0  0  0  0
    3.3514   51.6766   20.0444 H   0  0  0  0  0  0
    3.0901   50.2047   18.4390 H   0  0  0  0  0  0
    2.1059   47.5963   19.8895 H   0  0  0  0  0  0
    3.1521   47.6857   18.4101 H   0  0  0  0  0  0
    1.2880   48.9361   17.1527 H   0  0  0  0  0  0
    0.2342   48.8677   18.6271 H   0  0  0  0  0  0
  1  2  1  0  0  0
  1 29  1  0  0  0
  1 30  1  0  0  0
  1 31  1  0  0  0
  2  7  2  0  0  0
  2  3  1  0  0  0
  3  4  2  0  0  0
  3 23  1  0  0  0
  4  5  1  0  0  0
  4 32  1  0  0  0
  5  6  2  0  0  0
  5 33  1  0  0  0
  6  7  1  0  0  0
  6 34  1  0  0  0
  7  8  1  0  0  0
  8  9  1  0  0  0
  8 35  1  0  0  0
  9 10  2  0  0  0
  9 11  1  0  0  0
 11 12  1  0  0  0
 11 36  1  0  0  0
 12 13  2  0  0  0
 12 14  1  0  0  0
 14 19  2  0  0  0
 14 15  1  0  0  0
 15 16  2  0  0  0
 15 37  1  0  0  0
 16 17  1  0  0  0
 16 22  1  0  0  0
 17 18  2  0  0  0
 17 38  1  0  0  0
 18 19  1  0  0  0
 18 39  1  0  0  0
 19 20  1  0  0  0
 20 21  1  0  0  0
 21 40  1  0  0  0
 21 41  1  0  0  0
 21 42  1  0  0  0
 23 24  1  0  0  0
 23 43  1  0  0  0
 24 25  2  0  0  0
 24 26  1  0  0  0
 26 28  1  0  0  0
 26 27  1  0  0  0
 26 44  1  0  0  0
 27 28  1  0  0  0
 27 45  1  0  0  0
 27 46  1  0  0  0
 28 47  1  0  0  0
 28 48  1  0  0  0
M  END
> <i_i_glide_confnum>
75

> <i_i_glide_lignum>
3627

> <i_i_glide_posenum>
107

> <i_i_glide_rotatable_bonds>
9

> <i_m_Source_File_Index>
2549

> <b_m_subgroup_collapsed>
0

> <r_i_docking_score>
-5.1844

> <r_i_glide_ecoul>
-2.64901

> <r_i_glide_eff_state_penalty>
0

> <r_i_glide_einternal>
14.4175

> <r_i_glide_emodel>
-57.5947

> <r_i_glide_energy>
-48.4551

> <r_i_glide_erotb>
0.753806

> <r_i_glide_esite>
-0.0209652

> <r_i_glide_evdw>
-45.8061

> <r_i_glide_gscore>
-5.1844

> <r_i_glide_hbond>
-0.32

> <r_i_glide_ligand_efficiency>
-0.185157

> <r_i_glide_ligand_efficiency_ln>
-1.19671

> <r_i_glide_ligand_efficiency_sa>
-0.562246

> <r_i_glide_lipo>
-1.66574

> <r_i_glide_metal>
0

> <r_i_glide_rewards>
-1.24384

> <s_i_glide_gridfile>
wee1_glide-grid

> <s_m_Source_File>
wee1_decoys_glide_SP.sdf

> <s_m_Source_Path>
/Users/zhangxujun/Desktop

> <s_m_entry_id>
2824

> <s_m_entry_name>
wee1_decoys_glide_SP.2549

> <s_m_subgroup_title>
wee1_decoys_glide_SP

> <s_m_subgroupid>
wee1_decoys_glide_SP


$$$$
