ZINC55171067_1707
                    3D
 Schrodinger Suite 2024-2.
 30 32  0  0  1  0            999 V2000
    4.8094   54.3840   28.8612 C   0  0  0  0  0  0
    3.4312   53.7446   28.8839 C   0  0  0  0  0  0
    2.5379   53.4716   27.8278 C   0  0  0  0  0  0
    1.0667   52.8037   28.5062 S   0  0  0  0  0  0
    1.7947   52.8977   30.0713 C   0  0  0  0  0  0
    3.0068   53.3845   30.0818 N   0  0  0  0  0  0
    1.1104   52.4961   31.1836 N   0  0  0  0  0  0
    2.6370   53.6956   26.4037 C   0  0  0  0  0  0
    1.6446   53.6241   25.6810 O   0  0  0  0  0  0
    3.8909   53.9422   25.9746 N   0  0  0  0  0  0
    4.3777   54.0982   24.6641 C   0  0  0  0  0  0
    5.7235   54.4991   24.5519 C   0  0  0  0  0  0
    6.3290   54.6629   23.2985 C   0  0  0  0  0  0
    5.5612   54.3944   22.1728 C   0  0  0  0  0  0
    4.2632   53.9864   22.2695 C   0  0  0  0  0  0
    3.6272   53.8374   23.4964 C   0  0  0  0  0  0
    3.7605   53.7911   21.0243 O   0  0  0  0  0  0
    4.8489   53.9054   20.1495 C   0  0  0  0  0  0
    5.9040   54.4972   20.8612 O   0  0  0  0  0  0
    4.9097   55.1385   28.0839 H   0  0  0  0  0  0
    5.0549   54.8979   29.7915 H   0  0  0  0  0  0
    5.5912   53.6407   28.6990 H   0  0  0  0  0  0
    1.5170   52.5160   32.1085 H   0  0  0  0  0  0
    0.1531   52.1677   31.1415 H   0  0  0  0  0  0
    4.5910   53.9846   26.6971 H   0  0  0  0  0  0
    6.3110   54.6887   25.4383 H   0  0  0  0  0  0
    7.3580   54.9839   23.2195 H   0  0  0  0  0  0
    2.6014   53.5074   23.5218 H   0  0  0  0  0  0
    4.5791   54.5061   19.2818 H   0  0  0  0  0  0
    5.1489   52.9076   19.8186 H   0  0  0  0  0  0
  1  2  1  0  0  0
  1 20  1  0  0  0
  1 21  1  0  0  0
  1 22  1  0  0  0
  2  6  1  0  0  0
  2  3  2  0  0  0
  3  4  1  0  0  0
  3  8  1  0  0  0
  4  5  1  0  0  0
  5  6  2  0  0  0
  5  7  1  0  0  0
  7 23  1  0  0  0
  7 24  1  0  0  0
  8  9  2  0  0  0
  8 10  1  0  0  0
 10 11  1  0  0  0
 10 25  1  0  0  0
 11 16  2  0  0  0
 11 12  1  0  0  0
 12 13  2  0  0  0
 12 26  1  0  0  0
 13 14  1  0  0  0
 13 27  1  0  0  0
 14 19  1  0  0  0
 14 15  2  0  0  0
 15 16  1  0  0  0
 15 17  1  0  0  0
 16 28  1  0  0  0
 17 18  1  0  0  0
 18 19  1  0  0  0
 18 29  1  0  0  0
 18 30  1  0  0  0
M  END
> <i_i_glide_confnum>
2

> <i_i_glide_lignum>
1708

> <i_i_glide_posenum>
103

> <i_i_glide_rotatable_bonds>
3

> <i_m_Source_File_Index>
1339

> <b_m_subgroup_collapsed>
0

> <r_i_docking_score>
-6.0091

> <r_i_glide_ecoul>
-2.79415

> <r_i_glide_eff_state_penalty>
0

> <r_i_glide_einternal>
1.18129

> <r_i_glide_emodel>
-50.1049

> <r_i_glide_energy>
-36.2986

> <r_i_glide_erotb>
0.702507

> <r_i_glide_esite>
-0.0703472

> <r_i_glide_evdw>
-33.5045

> <r_i_glide_gscore>
-6.0091

> <r_i_glide_hbond>
-0.315756

> <r_i_glide_ligand_efficiency>
-0.316268

> <r_i_glide_ligand_efficiency_ln>
-1.52344

> <r_i_glide_ligand_efficiency_sa>
-0.843931

> <r_i_glide_lipo>
-2.36651

> <r_i_glide_metal>
0

> <r_i_glide_rewards>
-1.86464

> <s_i_glide_gridfile>
wee1_glide-grid

> <s_m_Source_File>
wee1_decoys_glide_SP.sdf

> <s_m_Source_Path>
/Users/zhangxujun/Desktop

> <s_m_entry_id>
1614

> <s_m_entry_name>
wee1_decoys_glide_SP.1339

> <s_m_subgroup_title>
wee1_decoys_glide_SP

> <s_m_subgroupid>
wee1_decoys_glide_SP


$$$$
