@<TRIPOS>MOLECULE
ZINC40096525_551
57   61    1
SMALL
USER_CHARGES


@<TRIPOS>ATOM
      1 C1         -2.7725   51.7726   17.6533 C.ar      1 UNK         0.0000 
      2 C2         -3.2981   51.3572   18.8744 C.ar      1 UNK         0.0000 
      3 C3         -2.4800   51.3284   20.0003 C.ar      1 UNK         0.0000 
      4 C4         -1.1399   51.7056   19.9093 C.ar      1 UNK         0.0000 
      5 C5         -0.6207   52.1238   18.6757 C.ar      1 UNK         0.0000 
      6 C6         -1.4374   52.1556   17.5487 C.ar      1 UNK         0.0000 
      7 O7         -0.4134   51.7037   21.0813 O.3       1 UNK         0.0000 
      8 C8          0.9612   51.7631   21.0834 C.ar      1 UNK         0.0000 
      9 C9          1.7382   50.7503   20.5202 C.ar      1 UNK         0.0000 
     10 C10         3.1270   50.8254   20.5920 C.ar      1 UNK         0.0000 
     11 C11         3.7453   51.8814   21.2599 C.ar      1 UNK         0.0000 
     12 C12         2.9817   52.9196   21.8136 C.ar      1 UNK         0.0000 
     13 C13         1.5893   52.8428   21.7012 C.ar      1 UNK         0.0000 
     14 C14         3.6284   54.1295   22.5292 C.3       1 UNK         0.0000 
     15 H15         3.0580   55.0121   22.2364 H         1 UNK         0.0000 
     16 C16         3.7219   54.0529   24.0417 C.2       1 UNK         0.0000 
     17 C17         5.0321   54.0982   24.3521 C.2       1 UNK         0.0000 
     18 C18         5.8752   54.2231   23.1772 C.2       1 UNK         0.0000 
     19 O19         7.1043   54.2375   23.1049 O.2       1 UNK         0.0000 
     20 N20         5.0111   54.3713   22.1478 N.am      1 UNK         0.0000 
     21 C21         5.4112   54.6705   20.7629 C.3       1 UNK         0.0000 
     22 C22         6.3099   55.9177   20.6100 C.3       1 UNK         0.0000 
     23 O23         6.3359   56.3666   19.2725 O.3       1 UNK         0.0000 
     24 O24         5.6281   54.0950   25.4943 O.co2     1 UNK         0.0000 
     25 C25         2.5065   53.9735   24.8791 C.2       1 UNK         0.0000 
     26 O26         1.4085   54.0744   24.3368 O.2       1 UNK         0.0000 
     27 C27         2.5124   53.7057   26.3520 C.ar      1 UNK         0.0000 
     28 C28         3.2626   54.5026   27.2289 C.ar      1 UNK         0.0000 
     29 C29         3.0925   54.4154   28.6090 C.ar      1 UNK         0.0000 
     30 C30         2.1487   53.5367   29.1277 C.ar      1 UNK         0.0000 
     31 C31         1.3907   52.7267   28.2713 C.ar      1 UNK         0.0000 
     32 C32         1.5751   52.8084   26.8923 C.ar      1 UNK         0.0000 
     33 O33         0.4609   51.8265   28.7503 O.3       1 UNK         0.0000 
     34 C34        -0.0278   52.1421   30.0585 C.3       1 UNK         0.0000 
     35 C35         1.1464   52.5027   31.0018 C.3       1 UNK         0.0000 
     36 O36         1.9139   53.5946   30.4822 O.3       1 UNK         0.0000 
     37 H37        -3.4055   51.7946   16.7781 H         1 UNK         0.0000 
     38 H38        -4.3336   51.0592   18.9465 H         1 UNK         0.0000 
     39 H39        -2.8826   51.0128   20.9518 H         1 UNK         0.0000 
     40 H40         0.4090   52.4381   18.5882 H         1 UNK         0.0000 
     41 H41        -1.0353   52.4777   16.5992 H         1 UNK         0.0000 
     42 H42         1.2674   49.9146   20.0239 H         1 UNK         0.0000 
     43 H43         3.7295   50.0648   20.1248 H         1 UNK         0.0000 
     44 H44         4.8232   51.8956   21.3208 H         1 UNK         0.0000 
     45 H45         0.9760   53.6416   22.0783 H         1 UNK         0.0000 
     46 H46         5.9101   53.7931   20.3523 H         1 UNK         0.0000 
     47 H47         4.5014   54.8093   20.1767 H         1 UNK         0.0000 
     48 H48         5.9045   56.7344   21.2081 H         1 UNK         0.0000 
     49 H49         7.3122   55.7509   21.0055 H         1 UNK         0.0000 
     50 H50         5.4589   56.6697   19.0242 H         1 UNK         0.0000 
     51 H51         3.9337   55.2594   26.8510 H         1 UNK         0.0000 
     52 H52         3.6531   55.0650   29.2641 H         1 UNK         0.0000 
     53 H53         0.9539   52.2029   26.2471 H         1 UNK         0.0000 
     54 H54        -0.7042   52.9958   29.9917 H         1 UNK         0.0000 
     55 H55        -0.6016   51.3001   30.4492 H         1 UNK         0.0000 
     56 H56         0.7727   52.7599   31.9938 H         1 UNK         0.0000 
     57 H57         1.8098   51.6477   31.1127 H         1 UNK         0.0000 
@<TRIPOS>BOND
     1    1    6 ar   
     2    1    2 ar   
     3    1   37 1    
     4    2    3 ar   
     5    2   38 1    
     6    3    4 ar   
     7    3   39 1    
     8    4    5 ar   
     9    4    7 1    
    10    5    6 ar   
    11    5   40 1    
    12    6   41 1    
    13    7    8 1    
    14    8   13 ar   
    15    8    9 ar   
    16    9   10 ar   
    17    9   42 1    
    18   10   11 ar   
    19   10   43 1    
    20   11   12 ar   
    21   11   44 1    
    22   12   13 ar   
    23   12   14 1    
    24   13   45 1    
    25   14   15 1    
    26   14   20 1    
    27   14   16 1    
    28   16   17 2    
    29   16   25 1    
    30   17   18 1    
    31   17   24 1    
    32   18   19 2    
    33   18   20 am   BACKBONE|DICT|INTERRES
    34   20   21 1    
    35   21   22 1    
    36   21   46 1    
    37   21   47 1    
    38   22   23 1    
    39   22   48 1    
    40   22   49 1    
    41   23   50 1    
    42   25   26 2    
    43   25   27 1    
    44   27   32 ar   
    45   27   28 ar   
    46   28   29 ar   
    47   28   51 1    
    48   29   30 ar   
    49   29   52 1    
    50   30   36 1    
    51   30   31 ar   
    52   31   32 ar   
    53   31   33 1    
    54   32   53 1    
    55   33   34 1    
    56   34   35 1    
    57   34   54 1    
    58   34   55 1    
    59   35   36 1    
    60   35   56 1    
    61   35   57 1    
@<TRIPOS>SUBSTRUCTURE
     1 UNK         1 GROUP             0       ****    0 ROOT    
