@<TRIPOS>MOLECULE
ZINC11998030_1068
68   73    1
SMALL
USER_CHARGES


@<TRIPOS>ATOM
      1 C1          4.3887   58.5509   15.5598 C.2       1 UNK         0.0000 
      2 C2          4.7613   58.0926   16.8259 C.2       1 UNK         0.0000 
      3 C3          4.6115   56.7128   16.9928 C.2       1 UNK         0.0000 
      4 S4          4.0050   55.9912   15.5165 S.3       1 UNK         0.0000 
      5 C5          3.9577   57.5303   14.7258 C.2       1 UNK         0.0000 
      6 C6          4.8858   55.8710   18.2011 C.ar      1 UNK         0.0000 
      7 C7          5.6898   56.3709   19.2287 C.ar      1 UNK         0.0000 
      8 C8          5.9044   55.6327   20.3928 C.ar      1 UNK         0.0000 
      9 C9          5.3424   54.3546   20.5429 C.ar      1 UNK         0.0000 
     10 C10         4.5689   53.8306   19.4945 C.ar      1 UNK         0.0000 
     11 C11         4.3390   54.5912   18.3443 C.ar      1 UNK         0.0000 
     12 C12         4.0361   52.3990   19.5442 C.3       1 UNK         0.0000 
     13 C13         2.2594   50.7016   20.1014 C.3       1 UNK         0.0000 
     14 C14         0.9000   50.4665   20.7888 C.3       1 UNK         0.0000 
     15 N15         0.8613   50.9080   22.1979 N.pl3     1 UNK         0.0000 
     16 C16         1.2853   52.3164   22.3315 C.3       1 UNK         0.0000 
     17 C17         2.6417   52.6323   21.6763 C.3       1 UNK         0.0000 
     18 C18         0.2995   50.1602   23.2399 C.ar      1 UNK         0.0000 
     19 N19        -0.2432   48.9448   22.9345 N.ar      1 UNK         0.0000 
     20 C20        -0.7462   48.2123   23.9607 C.ar      1 UNK         0.0000 
     21 C21        -0.7110   48.6584   25.2811 C.ar      1 UNK         0.0000 
     22 C22        -0.1330   49.9062   25.5117 C.ar      1 UNK         0.0000 
     23 N23         0.3734   50.6682   24.5065 N.ar      1 UNK         0.0000 
     24 O24         5.5044   53.5475   21.6561 O.3       1 UNK         0.0000 
     25 C25         6.2279   53.9625   22.8240 C.3       1 UNK         0.0000 
     26 C26         5.2370   54.2127   23.9664 C.2       1 UNK         0.0000 
     27 O27         4.0640   54.4952   23.7147 O.2       1 UNK         0.0000 
     28 N28         5.7327   54.0967   25.2143 N.am      1 UNK         0.0000 
     29 C29         5.0076   54.1108   26.4161 C.ar      1 UNK         0.0000 
     30 C30         5.6893   54.4974   27.5753 C.ar      1 UNK         0.0000 
     31 C31         5.0359   54.4965   28.8075 C.ar      1 UNK         0.0000 
     32 C32         3.7078   54.0726   28.8831 C.ar      1 UNK         0.0000 
     33 C33         3.0326   53.6739   27.7483 C.ar      1 UNK         0.0000 
     34 C34         3.6661   53.6972   26.5087 C.ar      1 UNK         0.0000 
     35 C35         1.6392   53.2570   28.1373 C.3       1 UNK         0.0000 
     36 O36         1.5643   53.3745   29.5532 O.3       1 UNK         0.0000 
     37 C37         2.7702   53.9450   30.0492 C.3       1 UNK         0.0000 
     38 H38         4.4296   59.5957   15.2767 H         1 UNK         0.0000 
     39 H39         5.1179   58.7648   17.5958 H         1 UNK         0.0000 
     40 H40         3.6191   57.6093   13.7019 H         1 UNK         0.0000 
     41 H41         6.1286   57.3533   19.1443 H         1 UNK         0.0000 
     42 H42         6.5078   56.0895   21.1573 H         1 UNK         0.0000 
     43 H43         3.7286   54.1763   17.5568 H         1 UNK         0.0000 
     44 H44         3.9039   52.0130   18.5315 H         1 UNK         0.0000 
     45 H45         4.7259   51.7337   20.0711 H         1 UNK         0.0000 
     46 H46         2.1892   50.4751   19.0349 H         1 UNK         0.0000 
     47 H47         3.0587   50.1066   20.5520 H         1 UNK         0.0000 
     48 H48         0.1188   51.0364   20.2807 H         1 UNK         0.0000 
     49 H49         0.6211   49.4195   20.6788 H         1 UNK         0.0000 
     50 H50         1.2941   52.6540   23.3677 H         1 UNK         0.0000 
     51 H51         0.5048   52.8966   21.8375 H         1 UNK         0.0000 
     52 H52         3.4696   52.1352   22.1814 H         1 UNK         0.0000 
     53 H53         2.7923   53.7116   21.6489 H         1 UNK         0.0000 
     54 H54        -1.1788   47.2545   23.7123 H         1 UNK         0.0000 
     55 H55        -1.1084   48.0609   26.0894 H         1 UNK         0.0000 
     56 H56        -0.0759   50.3028   26.5161 H         1 UNK         0.0000 
     57 H57         6.8761   54.8255   22.7006 H         1 UNK         0.0000 
     58 H58         6.8870   53.1395   23.0983 H         1 UNK         0.0000 
     59 H59         6.7308   53.9956   25.3128 H         1 UNK         0.0000 
     60 H60         6.7222   54.8093   27.5337 H         1 UNK         0.0000 
     61 H61         5.5767   54.8260   29.6816 H         1 UNK         0.0000 
     62 H62         3.1260   53.3530   25.6390 H         1 UNK         0.0000 
     63 H63         1.4270   52.2274   27.8462 H         1 UNK         0.0000 
     64 H64         0.8837   53.8930   27.6772 H         1 UNK         0.0000 
     65 H65         2.5514   54.9218   30.4809 H         1 UNK         0.0000 
     66 H66         3.1828   53.2969   30.8246 H         1 UNK         0.0000 
     67 N67         2.6492   52.1924   20.2012 N.4       1 UNK         0.0000 
     68 H68         1.9558   52.7436   19.7101 H         1 UNK         0.0000 
@<TRIPOS>BOND
     1    1    5 2    
     2    1    2 1    
     3    1   38 1    
     4    2    3 2    
     5    2   39 1    
     6    3    4 1    
     7    3    6 1    
     8    4    5 1    
     9    5   40 1    
    10    6   11 ar   
    11    6    7 ar   
    12    7    8 ar   
    13    7   41 1    
    14    8    9 ar   
    15    8   42 1    
    16    9   10 ar   
    17    9   24 1    
    18   10   11 ar   
    19   10   12 1    
    20   11   43 1    
    21   12   44 1    
    22   12   45 1    
    23   12   67 1    
    24   13   14 1    
    25   13   46 1    
    26   13   47 1    
    27   13   67 1    
    28   14   15 1    
    29   14   48 1    
    30   14   49 1    
    31   15   16 1    
    32   15   18 1    
    33   16   17 1    
    34   16   50 1    
    35   16   51 1    
    36   17   52 1    
    37   17   53 1    
    38   17   67 1    
    39   18   23 ar   
    40   18   19 ar   
    41   19   20 ar   
    42   20   21 ar   
    43   20   54 1    
    44   21   22 ar   
    45   21   55 1    
    46   22   23 ar   
    47   22   56 1    
    48   24   25 1    
    49   25   26 1    
    50   25   57 1    
    51   25   58 1    
    52   26   27 2    
    53   26   28 am   BACKBONE|DICT|INTERRES
    54   28   29 1    
    55   28   59 1    
    56   29   34 ar   
    57   29   30 ar   
    58   30   31 ar   
    59   30   60 1    
    60   31   32 ar   
    61   31   61 1    
    62   32   37 1    
    63   32   33 ar   
    64   33   34 ar   
    65   33   35 1    
    66   34   62 1    
    67   35   36 1    
    68   35   63 1    
    69   35   64 1    
    70   36   37 1    
    71   37   65 1    
    72   37   66 1    
    73   67   68 1    
@<TRIPOS>SUBSTRUCTURE
     1 UNK         1 GROUP             0       ****    0 ROOT    
