ZINC16611032_4484
                    3D
 Schrodinger Suite 2024-2.
 57 59  0  0  1  0            999 V2000
    6.8593   55.6953   22.9421 C   0  0  0  0  0  0
    6.4837   54.2499   23.3197 C   0  0  0  0  0  0
    5.0636   54.0974   23.7858 N   0  0  0  0  0  0
    4.7082   54.0664   25.1419 C   0  0  0  0  0  0
    3.3932   54.0019   25.5543 C   0  0  0  0  0  0
    2.2357   53.8203   24.5022 C   0  0  1  0  0  0
    1.4175   54.4966   24.7532 H   0  0  0  0  0  0
    2.7993   54.2265   23.1967 N   0  0  0  0  0  0
    4.0920   54.0687   22.7876 C   0  0  0  0  0  0
    4.3044   53.8572   21.1387 S   0  0  0  0  0  0
    1.5099   52.4455   24.4206 C   0  0  0  0  0  0
    1.9045   51.4653   23.4940 C   0  0  0  0  0  0
    1.3196   50.2035   23.4622 C   0  0  0  0  0  0
    0.2960   49.8948   24.3491 C   0  0  0  0  0  0
   -0.1803   50.8672   25.2256 C   0  0  0  0  0  0
    0.4122   52.1415   25.2453 C   0  0  0  0  0  0
   -1.2052   50.4714   26.0951 N   0  0  0  0  0  0
   -2.1934   51.2228   26.6061 C   0  0  0  0  0  0
   -2.4219   52.3951   26.3015 O   0  0  0  0  0  0
   -2.8961   50.5046   27.5016 N   0  0  0  0  0  0
   -4.0458   50.9143   28.1928 C   0  0  0  0  0  0
   -4.1777   50.4939   29.5174 C   0  0  0  0  0  0
   -5.2823   50.8909   30.2680 C   0  0  0  0  0  0
   -6.2579   51.6970   29.6862 C   0  0  0  0  0  0
   -6.1564   52.0843   28.3511 C   0  0  0  0  0  0
   -5.0499   51.6939   27.5996 C   0  0  0  0  0  0
   -7.7297   52.2997   30.7314 Br  0  0  0  0  0  0
    3.0044   54.0967   27.0028 C   0  0  0  0  0  0
    3.7498   54.4964   27.8974 O   0  0  0  0  0  0
    1.7139   53.8090   27.2609 O   0  0  0  0  0  0
    1.1656   53.8352   28.5825 C   0  0  0  0  0  0
    1.1042   55.2483   29.1945 C   0  0  0  0  0  0
    5.9314   54.0772   26.0927 C   0  0  0  0  0  0
    7.9038   55.7616   22.6464 H   0  0  0  0  0  0
    6.7090   56.3623   23.7913 H   0  0  0  0  0  0
    6.3044   56.0660   22.0826 H   0  0  0  0  0  0
    6.6977   53.5917   22.4820 H   0  0  0  0  0  0
    7.2252   53.9026   24.0301 H   0  0  0  0  0  0
    2.1609   54.3128   22.4156 H   0  0  0  0  0  0
    2.7051   51.6537   22.7978 H   0  0  0  0  0  0
    1.6786   49.4587   22.7666 H   0  0  0  0  0  0
   -0.1330   48.9020   24.3384 H   0  0  0  0  0  0
    0.0205   52.8891   25.9161 H   0  0  0  0  0  0
   -1.2195   49.4905   26.3390 H   0  0  0  0  0  0
   -2.4677   49.6392   27.8338 H   0  0  0  0  0  0
   -3.4145   49.8756   29.9753 H   0  0  0  0  0  0
   -5.3692   50.5815   31.2999 H   0  0  0  0  0  0
   -6.9227   52.7004   27.9032 H   0  0  0  0  0  0
   -4.9711   52.0033   26.5670 H   0  0  0  0  0  0
    0.1539   53.4344   28.5199 H   0  0  0  0  0  0
    1.7239   53.1606   29.2348 H   0  0  0  0  0  0
    0.4751   55.2591   30.0844 H   0  0  0  0  0  0
    2.0891   55.6029   29.4967 H   0  0  0  0  0  0
    0.7046   55.9700   28.4827 H   0  0  0  0  0  0
    5.7522   53.8301   27.1332 H   0  0  0  0  0  0
    6.6420   53.2970   25.8333 H   0  0  0  0  0  0
    6.4371   55.0431   26.0633 H   0  0  0  0  0  0
  1  2  1  0  0  0
  1 34  1  0  0  0
  1 35  1  0  0  0
  1 36  1  0  0  0
  2  3  1  0  0  0
  2 37  1  0  0  0
  2 38  1  0  0  0
  3  9  1  0  0  0
  3  4  1  0  0  0
  4  5  2  0  0  0
  4 33  1  0  0  0
  5  6  1  0  0  0
  5 28  1  0  0  0
  6  7  1  0  0  0
  6  8  1  0  0  0
  6 11  1  0  0  0
  8  9  1  0  0  0
  8 39  1  0  0  0
  9 10  2  0  0  0
 11 16  2  0  0  0
 11 12  1  0  0  0
 12 13  2  0  0  0
 12 40  1  0  0  0
 13 14  1  0  0  0
 13 41  1  0  0  0
 14 15  2  0  0  0
 14 42  1  0  0  0
 15 16  1  0  0  0
 15 17  1  0  0  0
 16 43  1  0  0  0
 17 18  1  0  0  0
 17 44  1  0  0  0
 18 19  2  0  0  0
 18 20  1  0  0  0
 20 21  1  0  0  0
 20 45  1  0  0  0
 21 26  2  0  0  0
 21 22  1  0  0  0
 22 23  2  0  0  0
 22 46  1  0  0  0
 23 24  1  0  0  0
 23 47  1  0  0  0
 24 25  2  0  0  0
 24 27  1  0  0  0
 25 26  1  0  0  0
 25 48  1  0  0  0
 26 49  1  0  0  0
 28 29  2  0  0  0
 28 30  1  0  0  0
 30 31  1  0  0  0
 31 32  1  0  0  0
 31 50  1  0  0  0
 31 51  1  0  0  0
 32 52  1  0  0  0
 32 53  1  0  0  0
 32 54  1  0  0  0
 33 55  1  0  0  0
 33 56  1  0  0  0
 33 57  1  0  0  0
M  END
> <i_i_glide_confnum>
4

> <i_i_glide_lignum>
4485

> <i_i_glide_posenum>
324

> <i_i_glide_rotatable_bonds>
9

> <i_m_Source_File_Index>
1124

> <b_m_subgroup_collapsed>
0

> <r_i_docking_score>
-6.06744

> <r_i_glide_ecoul>
-6.12845

> <r_i_glide_eff_state_penalty>
0

> <r_i_glide_einternal>
5.92921

> <r_i_glide_emodel>
-66.097

> <r_i_glide_energy>
-49.2374

> <r_i_glide_erotb>
0.460112

> <r_i_glide_esite>
-0.224184

> <r_i_glide_evdw>
-43.1089

> <r_i_glide_gscore>
-6.06744

> <r_i_glide_hbond>
-0.181592

> <r_i_glide_ligand_efficiency>
-0.189608

> <r_i_glide_ligand_efficiency_ln>
-1.35867

> <r_i_glide_ligand_efficiency_sa>
-0.601966

> <r_i_glide_lipo>
-2.17879

> <r_i_glide_metal>
0

> <r_i_glide_rewards>
-0.868278

> <s_i_glide_gridfile>
wee1_glide-grid

> <s_m_Source_File>
wee1_decoys_glide_SP.sdf

> <s_m_Source_Path>
/Users/zhangxujun/Desktop

> <s_m_entry_id>
1399

> <s_m_entry_name>
wee1_decoys_glide_SP.1124

> <s_m_subgroup_title>
wee1_decoys_glide_SP

> <s_m_subgroupid>
wee1_decoys_glide_SP


$$$$
