ZINC53631891_5572
                    3D
 Schrodinger Suite 2024-2.
 58 61  0  0  1  0            999 V2000
   -0.0870   48.7530   25.1347 C   0  0  0  0  0  0
   -1.0493   48.6255   23.9389 C   0  0  1  0  0  0
   -0.9582   47.6163   23.5343 H   0  0  0  0  0  0
   -2.4799   48.7441   24.4421 C   0  0  0  0  0  0
   -3.2403   49.8002   24.1596 C   0  0  0  0  0  0
   -2.7613   50.9663   23.3249 C   0  0  1  0  0  0
   -3.5250   51.1019   22.5572 H   0  0  0  0  0  0
   -2.7435   52.2611   24.2230 C   0  0  1  0  0  0
   -2.7487   53.1284   23.5587 H   0  0  0  0  0  0
   -4.0572   52.3098   25.0308 C   0  0  0  0  0  0
   -4.7722   51.1813   25.2515 C   0  0  0  0  0  0
   -4.4117   49.9454   24.8229 O   0  0  0  0  0  0
   -5.9275   51.0579   25.9740 N   0  0  0  0  0  0
   -4.4971   53.5449   25.5927 C   0  0  0  0  0  0
   -4.8954   54.5148   26.0807 N   0  0  0  0  0  0
   -1.4613   52.4012   25.0722 C   0  0  0  0  0  0
   -1.4391   52.0200   26.4205 C   0  0  0  0  0  0
   -0.2592   52.0758   27.1805 C   0  0  0  0  0  0
    0.9238   52.5049   26.5608 C   0  0  0  0  0  0
    0.9118   52.8962   25.2159 C   0  0  0  0  0  0
   -0.2758   52.8645   24.4865 C   0  0  0  0  0  0
    2.5050   53.5011   24.3637 Br  0  0  0  0  0  0
    2.0993   52.5636   27.2700 O   0  0  0  0  0  0
    2.2389   53.7280   28.0737 C   0  0  0  0  0  0
   -0.1862   51.7184   28.5156 O   0  0  0  0  0  0
   -1.3664   51.2971   29.1912 C   0  0  0  0  0  0
   -1.4707   50.7066   22.5089 C   0  0  0  0  0  0
   -1.1296   51.5223   21.6456 O   0  0  0  0  0  0
   -0.7716   49.5549   22.7966 N   0  0  0  0  0  0
    0.5102   49.3305   22.0982 C   0  0  0  0  0  0
    0.4157   49.0583   20.5749 C   0  0  0  0  0  0
    1.2285   50.0470   19.7661 C   0  0  0  0  0  0
    3.5263   51.3172   17.9018 H   0  0  0  0  0  0
    2.3003   49.8940   18.8879 C   0  0  0  0  0  0
    2.7044   51.1530   18.4801 N   0  0  0  0  0  0
    1.8933   52.1004   19.0586 C   0  0  0  0  0  0
    0.9931   51.4131   19.8408 N   0  3  0  0  0  0
   -0.0729   49.7687   25.5236 H   0  0  0  0  0  0
   -0.3790   48.0969   25.9560 H   0  0  0  0  0  0
    0.9362   48.4979   24.8618 H   0  0  0  0  0  0
   -2.8625   48.0049   25.1337 H   0  0  0  0  0  0
   -6.4203   51.8707   26.3125 H   0  0  0  0  0  0
   -6.2080   50.1567   26.3360 H   0  0  0  0  0  0
   -2.3494   51.6609   26.8709 H   0  0  0  0  0  0
   -0.2609   53.1772   23.4528 H   0  0  0  0  0  0
    2.2156   54.6355   27.4677 H   0  0  0  0  0  0
    1.4593   53.7972   28.8333 H   0  0  0  0  0  0
    3.1980   53.6986   28.5885 H   0  0  0  0  0  0
   -2.0896   52.0966   29.2814 H   0  0  0  0  0  0
   -1.8733   50.4967   28.6641 H   0  0  0  0  0  0
   -1.1229   50.9459   30.1951 H   0  0  0  0  0  0
    1.1625   50.1814   22.3054 H   0  0  0  0  0  0
    1.0323   48.4970   22.5669 H   0  0  0  0  0  0
    0.7355   48.0370   20.3723 H   0  0  0  0  0  0
   -0.6238   49.0864   20.2455 H   0  0  0  0  0  0
    2.8392   49.0214   18.5386 H   0  0  0  0  0  0
    1.9752   53.1762   18.9564 H   0  0  0  0  0  0
    0.2694   51.8247   20.4254 H   0  0  0  0  0  0
  1  2  1  0  0  0
  1 38  1  0  0  0
  1 39  1  0  0  0
  1 40  1  0  0  0
  2  3  1  0  0  0
  2 29  1  0  0  0
  2  4  1  0  0  0
  4  5  2  0  0  0
  4 41  1  0  0  0
  5 12  1  0  0  0
  5  6  1  0  0  0
  6  7  1  0  0  0
  6  8  1  0  0  0
  6 27  1  0  0  0
  8  9  1  0  0  0
  8 10  1  0  0  0
  8 16  1  0  0  0
 10 11  2  0  0  0
 10 14  1  0  0  0
 11 12  1  0  0  0
 11 13  1  0  0  0
 13 42  1  0  0  0
 13 43  1  0  0  0
 14 15  3  0  0  0
 16 21  2  0  0  0
 16 17  1  0  0  0
 17 18  2  0  0  0
 17 44  1  0  0  0
 18 19  1  0  0  0
 18 25  1  0  0  0
 19 20  2  0  0  0
 19 23  1  0  0  0
 20 21  1  0  0  0
 20 22  1  0  0  0
 21 45  1  0  0  0
 23 24  1  0  0  0
 24 46  1  0  0  0
 24 47  1  0  0  0
 24 48  1  0  0  0
 25 26  1  0  0  0
 26 49  1  0  0  0
 26 50  1  0  0  0
 26 51  1  0  0  0
 27 28  2  0  0  0
 27 29  1  0  0  0
 29 30  1  0  0  0
 30 31  1  0  0  0
 30 52  1  0  0  0
 30 53  1  0  0  0
 31 54  1  0  0  0
 31 55  1  0  0  0
 31 32  1  0  0  0
 32 34  2  0  0  0
 32 37  1  0  0  0
 33 35  1  0  0  0
 34 35  1  0  0  0
 34 56  1  0  0  0
 35 36  1  0  0  0
 36 57  1  0  0  0
 36 37  2  0  0  0
 37 58  1  0  0  0
M  CHG  1  37   1
M  END
> <i_i_glide_confnum>
2

> <i_i_glide_lignum>
5573

> <i_i_glide_posenum>
76

> <i_i_glide_rotatable_bonds>
7

> <i_m_Source_File_Index>
5295

> <b_m_subgroup_collapsed>
0

> <r_i_docking_score>
-3.96066

> <r_i_glide_ecoul>
-8.16391

> <r_i_glide_eff_state_penalty>
0

> <r_i_glide_einternal>
8.75597

> <r_i_glide_emodel>
-43.9407

> <r_i_glide_energy>
-37.1638

> <r_i_glide_erotb>
0.308998

> <r_i_glide_esite>
-0.133733

> <r_i_glide_evdw>
-28.9999

> <r_i_glide_gscore>
-3.96066

> <r_i_glide_hbond>
-0.320764

> <r_i_glide_ligand_efficiency>
-0.12002

> <r_i_glide_ligand_efficiency_ln>
-0.880829

> <r_i_glide_ligand_efficiency_sa>
-0.384968

> <r_i_glide_lipo>
-0.888658

> <r_i_glide_metal>
0

> <r_i_glide_rewards>
-0.251916

> <s_i_glide_gridfile>
wee1_glide-grid

> <s_m_Source_File>
wee1_decoys_glide_SP.sdf

> <s_m_Source_Path>
/Users/zhangxujun/Desktop

> <s_m_entry_id>
5570

> <s_m_entry_name>
wee1_decoys_glide_SP.5295

> <s_m_subgroup_title>
wee1_decoys_glide_SP

> <s_m_subgroupid>
wee1_decoys_glide_SP


$$$$
