ZINC20720219_2361
                    3D
 Schrodinger Suite 2024-2.
 58 63  0  0  1  0            999 V2000
   -1.5381   48.8378   23.3139 C   0  0  0  0  0  0
   -2.4650   49.8377   23.6039 C   0  0  0  0  0  0
   -2.4265   50.4783   24.8403 C   0  0  0  0  0  0
   -1.4628   50.1206   25.7887 C   0  0  0  0  0  0
   -0.5563   49.0899   25.4964 C   0  0  0  0  0  0
   -0.5829   48.4605   24.2557 C   0  0  0  0  0  0
   -1.4153   50.8835   27.1189 C   0  0  0  0  0  0
   -0.0545   50.9076   27.7045 N   0  0  0  0  0  0
    0.8418   52.3831   28.0145 S   0  0  0  0  0  0
   -0.0970   53.4085   28.4816 O   0  0  0  0  0  0
    2.0219   52.0202   28.8078 O   0  0  0  0  0  0
    1.4281   52.9109   26.4104 C   0  0  0  0  0  0
    0.6094   52.7691   25.2898 C   0  0  0  0  0  0
    1.0401   53.1722   24.0399 C   0  0  0  0  0  0
    2.2884   53.7553   23.9024 C   0  0  0  0  0  0
    3.1384   53.9261   25.0177 C   0  0  0  0  0  0
    2.6911   53.4905   26.2708 C   0  0  0  0  0  0
    4.4647   54.6337   24.8016 C   0  0  1  0  0  0
    4.2656   55.6964   24.8586 H   0  0  0  0  0  0
    5.6654   54.3886   25.6831 C   0  0  0  0  0  0
    6.7785   54.5274   24.9358 C   0  0  0  0  0  0
    6.4491   54.7024   23.4605 C   0  0  0  0  0  0
    5.0067   54.2143   23.4473 C   0  0  2  0  0  0
    5.0835   53.1276   23.4378 H   0  0  0  0  0  0
    4.0408   54.5335   22.2760 C   0  0  2  0  0  0
    3.9213   55.5920   22.0818 H   0  0  0  0  0  0
    2.6810   54.0998   22.5978 N   0  0  0  0  0  0
    4.5017   53.9222   20.9855 C   0  0  0  0  0  0
    4.1473   52.6925   20.4701 C   0  0  0  0  0  0
    4.7805   52.4969   19.2819 N   0  0  0  0  0  0
    4.7047   51.6175   18.7522 H   0  0  0  0  0  0
    5.5954   53.5645   18.9869 C   0  0  0  0  0  0
    5.4356   54.4953   20.0535 C   0  0  0  0  0  0
    6.1630   55.6969   20.0118 C   0  0  0  0  0  0
    7.0239   55.9310   18.9407 C   0  0  0  0  0  0
    7.1683   54.9964   17.9173 C   0  0  0  0  0  0
    6.4582   53.7943   17.9108 C   0  0  0  0  0  0
   -1.5631   48.3494   22.3510 H   0  0  0  0  0  0
   -3.2065   50.1189   22.8702 H   0  0  0  0  0  0
   -3.1400   51.2619   25.0563 H   0  0  0  0  0  0
    0.1770   48.7735   26.2240 H   0  0  0  0  0  0
    0.1354   47.6854   24.0293 H   0  0  0  0  0  0
   -1.7262   51.9165   26.9588 H   0  0  0  0  0  0
   -2.1094   50.4831   27.8565 H   0  0  0  0  0  0
    0.4406   50.0146   27.7704 H   0  0  0  0  0  0
   -0.3834   52.3733   25.3599 H   0  0  0  0  0  0
    0.3968   53.0368   23.1826 H   0  0  0  0  0  0
    3.3194   53.6172   27.1414 H   0  0  0  0  0  0
    5.6093   54.2647   26.7548 H   0  0  0  0  0  0
    7.7962   54.4968   25.2845 H   0  0  0  0  0  0
    7.0800   54.0784   22.8262 H   0  0  0  0  0  0
    6.5563   55.7310   23.1172 H   0  0  0  0  0  0
    2.0299   54.1344   21.8241 H   0  0  0  0  0  0
    3.4890   51.9292   20.8600 H   0  0  0  0  0  0
    6.0544   56.4287   20.7967 H   0  0  0  0  0  0
    7.5901   56.8506   18.8970 H   0  0  0  0  0  0
    7.8470   55.2100   17.1041 H   0  0  0  0  0  0
    6.5775   53.0734   17.1146 H   0  0  0  0  0  0
  1  6  2  0  0  0
  1  2  1  0  0  0
  1 38  1  0  0  0
  2  3  2  0  0  0
  2 39  1  0  0  0
  3  4  1  0  0  0
  3 40  1  0  0  0
  4  5  2  0  0  0
  4  7  1  0  0  0
  5  6  1  0  0  0
  5 41  1  0  0  0
  6 42  1  0  0  0
  7  8  1  0  0  0
  7 43  1  0  0  0
  7 44  1  0  0  0
  8  9  1  0  0  0
  8 45  1  0  0  0
  9 10  2  0  0  0
  9 11  2  0  0  0
  9 12  1  0  0  0
 12 17  2  0  0  0
 12 13  1  0  0  0
 13 14  2  0  0  0
 13 46  1  0  0  0
 14 15  1  0  0  0
 14 47  1  0  0  0
 15 27  1  0  0  0
 15 16  2  0  0  0
 16 17  1  0  0  0
 16 18  1  0  0  0
 17 48  1  0  0  0
 18 19  1  0  0  0
 18 23  1  0  0  0
 18 20  1  0  0  0
 20 21  2  0  0  0
 20 49  1  0  0  0
 21 22  1  0  0  0
 21 50  1  0  0  0
 22 23  1  0  0  0
 22 51  1  0  0  0
 22 52  1  0  0  0
 23 24  1  0  0  0
 23 25  1  0  0  0
 25 26  1  0  0  0
 25 27  1  0  0  0
 25 28  1  0  0  0
 27 53  1  0  0  0
 28 33  1  0  0  0
 28 29  2  0  0  0
 29 30  1  0  0  0
 29 54  1  0  0  0
 30 31  1  0  0  0
 30 32  1  0  0  0
 32 37  2  0  0  0
 32 33  1  0  0  0
 33 34  2  0  0  0
 34 35  1  0  0  0
 34 55  1  0  0  0
 35 36  2  0  0  0
 35 56  1  0  0  0
 36 37  1  0  0  0
 36 57  1  0  0  0
 37 58  1  0  0  0
M  END
> <i_i_glide_confnum>
20

> <i_i_glide_lignum>
2362

> <i_i_glide_posenum>
125

> <i_i_glide_rotatable_bonds>
5

> <i_m_Source_File_Index>
1195

> <b_m_subgroup_collapsed>
0

> <r_i_docking_score>
-5.81361

> <r_i_glide_ecoul>
-7.13673

> <r_i_glide_eff_state_penalty>
0

> <r_i_glide_einternal>
3.15406

> <r_i_glide_emodel>
-55.6993

> <r_i_glide_energy>
-40.8679

> <r_i_glide_erotb>
0.387194

> <r_i_glide_esite>
-0.159529

> <r_i_glide_evdw>
-33.7312

> <r_i_glide_gscore>
-5.81361

> <r_i_glide_hbond>
-0.36993

> <r_i_glide_ligand_efficiency>
-0.17617

> <r_i_glide_ligand_efficiency_ln>
-1.29292

> <r_i_glide_ligand_efficiency_sa>
-0.565071

> <r_i_glide_lipo>
-2.82009

> <r_i_glide_metal>
0

> <r_i_glide_rewards>
-0.0941801

> <s_i_glide_gridfile>
wee1_glide-grid

> <s_m_Source_File>
wee1_decoys_glide_SP.sdf

> <s_m_Source_Path>
/Users/zhangxujun/Desktop

> <s_m_entry_id>
1470

> <s_m_entry_name>
wee1_decoys_glide_SP.1195

> <s_m_subgroup_title>
wee1_decoys_glide_SP

> <s_m_subgroupid>
wee1_decoys_glide_SP


$$$$
