ZINC67064052_1412
                    3D
 Schrodinger Suite 2024-2.
 51 54  0  0  1  0            999 V2000
    4.3568   52.5048   29.6027 C   0  0  0  0  0  0
    2.9753   52.6079   29.5451 C   0  0  0  0  0  0
    2.3379   53.1385   28.4165 C   0  0  0  0  0  0
    3.1321   53.5729   27.3409 C   0  0  0  0  0  0
    4.5334   53.5172   27.4223 C   0  0  0  0  0  0
    5.1395   52.9757   28.5488 C   0  0  0  0  0  0
    5.3573   53.8946   26.3812 O   0  0  0  0  0  0
    4.7129   54.6675   25.3645 C   0  0  0  0  0  0
    3.3110   54.0980   25.0465 C   0  0  0  0  0  0
    2.5094   54.0969   26.2292 O   0  0  0  0  0  0
    0.8094   53.3068   28.3873 C   0  0  2  0  0  0
    0.6352   54.1149   27.6802 H   0  0  0  0  0  0
    0.1648   53.6841   29.7328 C   0  0  0  0  0  0
   -0.3277   52.3765   30.3173 C   0  0  0  0  0  0
   -0.7223   51.5423   29.1044 C   0  0  0  0  0  0
    0.0776   52.0871   27.9917 N   0  0  0  0  0  0
    0.1812   51.4995   26.7669 C   0  0  0  0  0  0
    0.6781   52.0608   25.7901 O   0  0  0  0  0  0
   -0.2044   50.2099   26.7075 N   0  0  0  0  0  0
   -0.0214   49.2510   25.6076 C   0  0  0  0  0  0
   -0.8164   49.5397   24.3148 C   0  0  0  0  0  0
   -0.8161   48.6879   23.4276 O   0  0  0  0  0  0
   -1.4645   50.7118   24.1725 N   0  0  0  0  0  0
   -2.2528   51.1066   23.0022 C   0  0  0  0  0  0
   -1.4052   51.4076   21.7784 C   0  0  0  0  0  0
   -0.0439   51.5544   21.5441 C   0  0  0  0  0  0
    0.1196   51.7608   20.1749 C   0  0  0  0  0  0
   -1.1511   51.7374   19.6283 C   0  0  0  0  0  0
   -2.0768   51.5395   20.6016 O   0  0  0  0  0  0
    4.8176   52.0720   30.4785 H   0  0  0  0  0  0
    2.4192   52.2647   30.3959 H   0  0  0  0  0  0
    6.2163   52.9070   28.5880 H   0  0  0  0  0  0
    4.6109   55.6964   25.7104 H   0  0  0  0  0  0
    5.3348   54.6763   24.4681 H   0  0  0  0  0  0
    2.8161   54.6856   24.2737 H   0  0  0  0  0  0
    3.4046   53.0760   24.6781 H   0  0  0  0  0  0
   -0.6450   54.3930   29.5866 H   0  0  0  0  0  0
    0.8620   54.1870   30.4058 H   0  0  0  0  0  0
   -1.1382   52.4980   31.0299 H   0  0  0  0  0  0
    0.4532   51.8641   30.8714 H   0  0  0  0  0  0
   -1.7878   51.6597   28.9063 H   0  0  0  0  0  0
   -0.4768   50.5098   29.3107 H   0  0  0  0  0  0
   -0.6873   49.8130   27.5095 H   0  0  0  0  0  0
   -0.3266   48.2727   25.9787 H   0  0  0  0  0  0
    1.0388   49.1797   25.3620 H   0  0  0  0  0  0
   -1.3811   51.3882   24.9179 H   0  0  0  0  0  0
   -2.8254   51.9905   23.2806 H   0  0  0  0  0  0
   -2.9888   50.3318   22.7876 H   0  0  0  0  0  0
    0.7402   51.4969   22.2867 H   0  0  0  0  0  0
    1.0519   51.9008   19.6481 H   0  0  0  0  0  0
   -1.5267   51.8421   18.6199 H   0  0  0  0  0  0
  1  6  2  0  0  0
  1  2  1  0  0  0
  1 30  1  0  0  0
  2  3  2  0  0  0
  2 31  1  0  0  0
  3  4  1  0  0  0
  3 11  1  0  0  0
  4 10  1  0  0  0
  4  5  2  0  0  0
  5  6  1  0  0  0
  5  7  1  0  0  0
  6 32  1  0  0  0
  7  8  1  0  0  0
  8  9  1  0  0  0
  8 33  1  0  0  0
  8 34  1  0  0  0
  9 10  1  0  0  0
  9 35  1  0  0  0
  9 36  1  0  0  0
 11 12  1  0  0  0
 11 16  1  0  0  0
 11 13  1  0  0  0
 13 14  1  0  0  0
 13 37  1  0  0  0
 13 38  1  0  0  0
 14 15  1  0  0  0
 14 39  1  0  0  0
 14 40  1  0  0  0
 15 16  1  0  0  0
 15 41  1  0  0  0
 15 42  1  0  0  0
 16 17  1  0  0  0
 17 18  2  0  0  0
 17 19  1  0  0  0
 19 20  1  0  0  0
 19 43  1  0  0  0
 20 21  1  0  0  0
 20 44  1  0  0  0
 20 45  1  0  0  0
 21 22  2  0  0  0
 21 23  1  0  0  0
 23 24  1  0  0  0
 23 46  1  0  0  0
 24 25  1  0  0  0
 24 47  1  0  0  0
 24 48  1  0  0  0
 25 29  1  0  0  0
 25 26  2  0  0  0
 26 27  1  0  0  0
 26 49  1  0  0  0
 27 28  2  0  0  0
 27 50  1  0  0  0
 28 29  1  0  0  0
 28 51  1  0  0  0
M  END
> <i_i_glide_confnum>
288

> <i_i_glide_lignum>
1413

> <i_i_glide_posenum>
316

> <i_i_glide_rotatable_bonds>
8

> <i_m_Source_File_Index>
2841

> <b_m_subgroup_collapsed>
0

> <r_i_docking_score>
-4.19668

> <r_i_glide_ecoul>
-3.11113

> <r_i_glide_eff_state_penalty>
0

> <r_i_glide_einternal>
2.27079

> <r_i_glide_emodel>
-46.4178

> <r_i_glide_energy>
-35.6261

> <r_i_glide_erotb>
0.916695

> <r_i_glide_esite>
-0.133527

> <r_i_glide_evdw>
-32.515

> <r_i_glide_gscore>
-4.19668

> <r_i_glide_hbond>
-0.16

> <r_i_glide_ligand_efficiency>
-0.149882

> <r_i_glide_ligand_efficiency_ln>
-0.968718

> <r_i_glide_ligand_efficiency_sa>
-0.455129

> <r_i_glide_lipo>
-1.8855

> <r_i_glide_metal>
0

> <r_i_glide_rewards>
-0.841937

> <s_i_glide_gridfile>
wee1_glide-grid

> <s_m_Source_File>
wee1_decoys_glide_SP.sdf

> <s_m_Source_Path>
/Users/zhangxujun/Desktop

> <s_m_entry_id>
3116

> <s_m_entry_name>
wee1_decoys_glide_SP.2841

> <s_m_subgroup_title>
wee1_decoys_glide_SP

> <s_m_subgroupid>
wee1_decoys_glide_SP


$$$$
