@<TRIPOS>MOLECULE
ZINC59862277_3340
48   50    1
SMALL
USER_CHARGES


@<TRIPOS>ATOM
      1 C1          6.3324   56.4460   19.0988 C.3       1 UNK         0.0000 
      2 C2          5.7348   55.1964   19.7304 C.ar      1 UNK         0.0000 
      3 C3          5.5706   55.1497   21.1166 C.ar      1 UNK         0.0000 
      4 C4          5.0015   54.0351   21.7571 C.ar      1 UNK         0.0000 
      5 C5          4.6232   52.9327   20.9625 C.ar      1 UNK         0.0000 
      6 C6          4.7774   52.9849   19.5793 C.ar      1 UNK         0.0000 
      7 C7          5.3289   54.1025   18.9526 C.ar      1 UNK         0.0000 
      8 C8          5.4980   54.0895   17.4403 C.3       1 UNK         0.0000 
      9 Br9         3.8909   51.3270   21.6817 Br        1 UNK         0.0000 
     10 N10         4.8683   54.0439   23.1865 N.am      1 UNK         0.0000 
     11 C11         3.5895   54.0969   23.7085 C.2       1 UNK         0.0000 
     12 O12         2.5733   54.1551   23.0053 O.2       1 UNK         0.0000 
     13 C13         3.5195   54.0922   25.1845 C.2       1 UNK         0.0000 
     14 C14         2.3099   53.7966   25.7560 C.2       1 UNK         0.0000 
     15 C15         1.8316   53.6940   27.1582 C.ar      1 UNK         0.0000 
     16 C16         1.9880   54.7132   28.1060 C.ar      1 UNK         0.0000 
     17 C17         1.4110   54.6152   29.3861 C.ar      1 UNK         0.0000 
     18 C18         0.6701   53.4722   29.7111 C.ar      1 UNK         0.0000 
     19 C19         0.4562   52.4750   28.7571 C.ar      1 UNK         0.0000 
     20 C20         1.0579   52.5821   27.4985 C.ar      1 UNK         0.0000 
     21 O21        -0.3719   51.4256   29.0822 O.3       1 UNK         0.0000 
     22 C22        -1.3674   51.0910   28.1175 C.3       1 UNK         0.0000 
     23 O23         0.1051   53.3440   30.9596 O.3       1 UNK         0.0000 
     24 O24         1.5044   55.5990   30.3533 O.3       1 UNK         0.0000 
     25 C25         1.9307   56.8968   29.9771 C.3       1 UNK         0.0000 
     26 C26         4.7704   54.3085   25.9381 C.2       1 UNK         0.0000 
     27 O27         4.7160   54.4857   27.1517 O.2       1 UNK         0.0000 
     28 N28         5.9106   54.3050   25.2691 N.2       1 UNK         0.0000 
     29 C29         6.0182   54.0969   23.9634 C.2       1 UNK         0.0000 
     30 O30         7.1043   53.9464   23.4035 O.2       1 UNK         0.0000 
     31 H31         7.3532   56.2561   18.7661 H         1 UNK         0.0000 
     32 H32         5.7476   56.7509   18.2306 H         1 UNK         0.0000 
     33 H33         6.3323   57.2917   19.7869 H         1 UNK         0.0000 
     34 H34         5.9051   55.9896   21.7055 H         1 UNK         0.0000 
     35 H35         4.4669   52.1341   18.9886 H         1 UNK         0.0000 
     36 H36         4.8060   54.7903   16.9731 H         1 UNK         0.0000 
     37 H37         6.5110   54.3883   17.1690 H         1 UNK         0.0000 
     38 H38         5.3343   53.0956   17.0187 H         1 UNK         0.0000 
     39 H39         1.4841   53.6097   25.0808 H         1 UNK         0.0000 
     40 H40         2.5457   55.5934   27.8265 H         1 UNK         0.0000 
     41 H41         0.8981   51.8018   26.7679 H         1 UNK         0.0000 
     42 H42        -2.1493   50.4984   28.5937 H         1 UNK         0.0000 
     43 H43        -1.8467   51.9749   27.6912 H         1 UNK         0.0000 
     44 H44        -0.9462   50.4963   27.3057 H         1 UNK         0.0000 
     45 H45        -0.3437   52.5017   31.0953 H         1 UNK         0.0000 
     46 H46         1.8491   57.5641   30.8353 H         1 UNK         0.0000 
     47 H47         1.3209   57.2975   29.1669 H         1 UNK         0.0000 
     48 H48         2.9748   56.8937   29.6689 H         1 UNK         0.0000 
@<TRIPOS>BOND
     1    1    2 1    
     2    1   31 1    
     3    1   32 1    
     4    1   33 1    
     5    2    7 ar   
     6    2    3 ar   
     7    3    4 ar   
     8    3   34 1    
     9    4    5 ar   
    10    4   10 1    
    11    5    6 ar   
    12    5    9 1    
    13    6    7 ar   
    14    6   35 1    
    15    7    8 1    
    16    8   36 1    
    17    8   37 1    
    18    8   38 1    
    19   10   29 am   BACKBONE|DICT|INTERRES
    20   10   11 am   BACKBONE|DICT|INTERRES
    21   11   12 2    
    22   11   13 1    
    23   13   14 2    
    24   13   26 1    
    25   14   15 1    
    26   14   39 1    
    27   15   20 ar   
    28   15   16 ar   
    29   16   17 ar   
    30   16   40 1    
    31   17   18 ar   
    32   17   24 1    
    33   18   19 ar   
    34   18   23 1    
    35   19   20 ar   
    36   19   21 1    
    37   20   41 1    
    38   21   22 1    
    39   22   42 1    
    40   22   43 1    
    41   22   44 1    
    42   23   45 1    
    43   24   25 1    
    44   25   46 1    
    45   25   47 1    
    46   25   48 1    
    47   26   27 2    
    48   26   28 1    
    49   28   29 1    
    50   29   30 2    
@<TRIPOS>SUBSTRUCTURE
     1 UNK         1 GROUP             0       ****    0 ROOT    
