@<TRIPOS>MOLECULE
ZINC08974444_3800
37   40    1
SMALL
USER_CHARGES


@<TRIPOS>ATOM
      1 C1          3.0500   53.5497   28.5289 C.ar      1 UNK         0.0000 
      2 C2          4.1765   53.8525   29.2853 C.ar      1 UNK         0.0000 
      3 C3          5.3419   54.2825   28.6579 C.ar      1 UNK         0.0000 
      4 C4          5.4030   54.4220   27.2697 C.ar      1 UNK         0.0000 
      5 C5          4.2615   54.1117   26.5040 C.ar      1 UNK         0.0000 
      6 C6          3.0966   53.6784   27.1447 C.ar      1 UNK         0.0000 
      7 C7          4.3118   54.2699   24.9926 C.3       1 UNK         0.0000 
      8 C8          5.7741   54.2692   24.4604 C.3       1 UNK         0.0000 
      9 H9          6.2472   53.2972   24.5985 H         1 UNK         0.0000 
     10 N10         6.5546   55.2767   25.1920 N.3       1 UNK         0.0000 
     11 C11         6.7042   54.8576   26.5909 C.3       1 UNK         0.0000 
     12 C12         5.8099   54.4827   22.9242 C.2       1 UNK         0.0000 
     13 O13         4.8336   54.0955   22.2804 O.2       1 UNK         0.0000 
     14 N14         6.9131   55.0234   22.3533 N.am      1 UNK         0.0000 
     15 C15         7.1010   55.3070   20.9998 C.2       1 UNK         0.0000 
     16 N16         8.2667   55.6979   20.5595 N.2       1 UNK         0.0000 
     17 C17         8.2372   55.9573   19.2184 C.ar      1 UNK         0.0000 
     18 C18         9.3279   56.3875   18.4462 C.ar      1 UNK         0.0000 
     19 C19         9.1378   56.6234   17.0833 C.ar      1 UNK         0.0000 
     20 C20         7.8923   56.4405   16.4875 C.ar      1 UNK         0.0000 
     21 C21         6.7899   56.0147   17.2271 C.ar      1 UNK         0.0000 
     22 C22         6.9753   55.7723   18.5946 C.ar      1 UNK         0.0000 
     23 S23         5.8200   55.2331   19.7886 S.3       1 UNK         0.0000 
     24 H24         2.1426   53.2123   29.0091 H         1 UNK         0.0000 
     25 H25         4.1539   53.7455   30.3588 H         1 UNK         0.0000 
     26 H26         6.2155   54.4982   29.2570 H         1 UNK         0.0000 
     27 H27         2.2198   53.4398   26.5608 H         1 UNK         0.0000 
     28 H28         3.7307   53.4682   24.5284 H         1 UNK         0.0000 
     29 H29         3.8177   55.2095   24.7405 H         1 UNK         0.0000 
     30 H30         6.0984   56.1766   25.1382 H         1 UNK         0.0000 
     31 H31         7.1049   55.6967   27.1549 H         1 UNK         0.0000 
     32 H32         7.4325   54.0483   26.6630 H         1 UNK         0.0000 
     33 H33         7.7063   55.1954   22.9607 H         1 UNK         0.0000 
     34 H34        10.3034   56.5292   18.8823 H         1 UNK         0.0000 
     35 H35         9.9702   56.9501   16.4765 H         1 UNK         0.0000 
     36 H36         7.7793   56.6300   15.4299 H         1 UNK         0.0000 
     37 H37         5.8250   55.8714   16.7592 H         1 UNK         0.0000 
@<TRIPOS>BOND
     1    1    6 ar   
     2    1    2 ar   
     3    1   24 1    
     4    2    3 ar   
     5    2   25 1    
     6    3    4 ar   
     7    3   26 1    
     8    4   11 1    
     9    4    5 ar   
    10    5    6 ar   
    11    5    7 1    
    12    6   27 1    
    13    7    8 1    
    14    7   28 1    
    15    7   29 1    
    16    8    9 1    
    17    8   10 1    
    18    8   12 1    
    19   10   11 1    
    20   10   30 1    
    21   11   31 1    
    22   11   32 1    
    23   12   13 2    
    24   12   14 am   BACKBONE|DICT|INTERRES
    25   14   15 am   BACKBONE|DICT|INTERRES
    26   14   33 1    
    27   15   23 1    
    28   15   16 2    
    29   16   17 1    
    30   17   22 ar   
    31   17   18 ar   
    32   18   19 ar   
    33   18   34 1    
    34   19   20 ar   
    35   19   35 1    
    36   20   21 ar   
    37   20   36 1    
    38   21   22 ar   
    39   21   37 1    
    40   22   23 1    
@<TRIPOS>SUBSTRUCTURE
     1 UNK         1 GROUP             0       ****    0 ROOT    
