ZINC13031436_2008
                    3D
 Schrodinger Suite 2024-2.
 47 50  0  0  1  0            999 V2000
    1.0021   47.6306   18.4403 C   0  0  0  0  0  0
   -0.0558   47.2927   19.4864 C   0  0  0  0  0  0
   -0.3921   45.9500   19.6670 C   0  0  0  0  0  0
   -1.3286   45.5525   20.6240 C   0  0  0  0  0  0
   -1.9780   46.5494   21.3642 C   0  0  0  0  0  0
   -1.6888   47.9101   21.1839 C   0  0  0  0  0  0
   -0.6931   48.2878   20.2537 C   0  0  0  0  0  0
   -0.2722   49.7480   20.0826 C   0  0  0  0  0  0
   -2.6482   49.1087   22.1577 S   0  0  0  0  0  0
   -2.9096   50.2026   21.2135 O   0  0  0  0  0  0
   -3.8519   48.3674   22.5517 O   0  0  0  0  0  0
   -1.4594   49.3368   23.4516 N   0  0  0  0  0  0
   -1.0699   50.5009   23.7877 C   0  0  0  0  0  0
   -0.1899   50.7888   24.8161 N   0  0  0  0  0  0
    0.2157   52.0980   24.9555 C   0  0  0  0  0  0
   -0.3505   52.9358   24.0809 C   0  0  0  0  0  0
   -1.5185   52.0964   23.0741 S   0  0  0  0  0  0
    1.2373   52.5037   25.9436 C   0  0  0  0  0  0
    1.1438   52.0994   27.2847 C   0  0  0  0  0  0
    2.1052   52.4961   28.2196 C   0  0  0  0  0  0
    3.1828   53.2754   27.8027 C   0  0  0  0  0  0
    3.2914   53.6951   26.4772 C   0  0  0  0  0  0
    2.3088   53.3263   25.5541 C   0  0  0  0  0  0
    4.4262   54.4168   26.1045 N   0  0  0  0  0  0
    5.5775   54.4965   26.8031 C   0  0  0  0  0  0
    6.5753   55.0895   26.3942 O   0  0  0  0  0  0
    5.4889   53.7655   28.1769 C   0  0  0  0  0  0
    4.1447   53.6611   28.7142 O   0  0  0  0  0  0
   -1.5985   44.0968   20.8742 C   0  0  0  0  0  0
   -2.4940   43.7932   21.6930 O   0  0  0  0  0  0
   -0.8946   43.2420   20.2852 O   0  5  0  0  0  0
    1.9306   47.9452   18.9185 H   0  0  0  0  0  0
    1.2196   46.7879   17.7829 H   0  0  0  0  0  0
    0.6621   48.4461   17.8014 H   0  0  0  0  0  0
    0.1171   45.2002   19.0765 H   0  0  0  0  0  0
   -2.7175   46.2605   22.0981 H   0  0  0  0  0  0
   -0.8932   50.2421   19.3363 H   0  0  0  0  0  0
   -0.3409   50.3001   21.0149 H   0  0  0  0  0  0
    0.7718   49.8462   19.7887 H   0  0  0  0  0  0
   -0.1789   53.9973   23.9813 H   0  0  0  0  0  0
    0.3176   51.4815   27.6093 H   0  0  0  0  0  0
    2.0233   52.1859   29.2508 H   0  0  0  0  0  0
    2.3987   53.6382   24.5231 H   0  0  0  0  0  0
    4.4750   54.8327   25.1870 H   0  0  0  0  0  0
    6.1549   54.2632   28.8817 H   0  0  0  0  0  0
    5.8710   52.7593   27.9972 H   0  0  0  0  0  0
    0.1530   50.0403   25.4007 H   0  0  0  0  0  0
  1  2  1  0  0  0
  1 32  1  0  0  0
  1 33  1  0  0  0
  1 34  1  0  0  0
  2  7  2  0  0  0
  2  3  1  0  0  0
  3  4  2  0  0  0
  3 35  1  0  0  0
  4  5  1  0  0  0
  4 29  1  0  0  0
  5  6  2  0  0  0
  5 36  1  0  0  0
  6  7  1  0  0  0
  6  9  1  0  0  0
  7  8  1  0  0  0
  8 37  1  0  0  0
  8 38  1  0  0  0
  8 39  1  0  0  0
  9 10  2  0  0  0
  9 11  2  0  0  0
  9 12  1  0  0  0
 12 13  2  0  0  0
 13 17  1  0  0  0
 13 14  1  0  0  0
 14 15  1  0  0  0
 14 47  1  0  0  0
 15 16  2  0  0  0
 15 18  1  0  0  0
 16 17  1  0  0  0
 16 40  1  0  0  0
 18 23  2  0  0  0
 18 19  1  0  0  0
 19 20  2  0  0  0
 19 41  1  0  0  0
 20 21  1  0  0  0
 20 42  1  0  0  0
 21 28  1  0  0  0
 21 22  2  0  0  0
 22 23  1  0  0  0
 22 24  1  0  0  0
 23 43  1  0  0  0
 24 25  1  0  0  0
 24 44  1  0  0  0
 25 26  2  0  0  0
 25 27  1  0  0  0
 27 28  1  0  0  0
 27 45  1  0  0  0
 27 46  1  0  0  0
 29 30  2  0  0  0
 29 31  1  0  0  0
M  CHG  1  31  -1
M  END
> <i_i_glide_confnum>
10

> <i_i_glide_lignum>
2009

> <i_i_glide_posenum>
319

> <i_i_glide_rotatable_bonds>
4

> <i_m_Source_File_Index>
5640

> <b_m_subgroup_collapsed>
0

> <r_i_docking_score>
-5.57223

> <r_i_glide_ecoul>
-8.13875

> <r_i_glide_eff_state_penalty>
0

> <r_i_glide_einternal>
6.49204

> <r_i_glide_emodel>
-59.3931

> <r_i_glide_energy>
-42.2921

> <r_i_glide_erotb>
0.28704

> <r_i_glide_esite>
-0.0558586

> <r_i_glide_evdw>
-34.1534

> <r_i_glide_gscore>
-5.57223

> <r_i_glide_hbond>
-0.591589

> <r_i_glide_ligand_efficiency>
-0.179749

> <r_i_glide_ligand_efficiency_ln>
-1.25671

> <r_i_glide_ligand_efficiency_sa>
-0.564661

> <r_i_glide_lipo>
-1.48623

> <r_i_glide_metal>
0

> <r_i_glide_rewards>
-0.797111

> <s_i_glide_gridfile>
wee1_glide-grid

> <s_m_Source_File>
wee1_decoys_glide_SP.sdf

> <s_m_Source_Path>
/Users/zhangxujun/Desktop

> <s_m_entry_id>
5915

> <s_m_entry_name>
wee1_decoys_glide_SP.5640

> <s_m_subgroup_title>
wee1_decoys_glide_SP

> <s_m_subgroupid>
wee1_decoys_glide_SP


$$$$
