@<TRIPOS>MOLECULE
ZINC65061852_761
58   61    1
SMALL
USER_CHARGES


@<TRIPOS>ATOM
      1 C1          0.3069   49.8415   26.6924 C.3       1 UNK         0.0000 
      2 C2         -0.1624   50.1057   25.2434 C.3       1 UNK         0.0000 
      3 H3          0.5274   49.5739   24.5879 H         1 UNK         0.0000 
      4 C4         -1.6201   49.5672   25.0095 C.3       1 UNK         0.0000 
      5 C5         -2.2808   49.9517   23.6585 C.3       1 UNK         0.0000 
      6 C6         -1.5156   49.3235   22.4802 C.3       1 UNK         0.0000 
      7 N7         -1.3804   47.8465   22.6292 N.pl3     1 UNK         0.0000 
      8 C8         -1.0296   47.2963   23.9748 C.3       1 UNK         0.0000 
      9 C9         -1.7462   48.0289   25.1300 C.3       1 UNK         0.0000 
     10 S10        -2.0519   46.7793   21.3680 S.o2      1 UNK         0.0000 
     11 O11        -2.0964   45.3926   21.8547 O.2       1 UNK         0.0000 
     12 O12        -3.2349   47.4232   20.7868 O.2       1 UNK         0.0000 
     13 C13        -0.7697   46.8500   20.0827 C.2       1 UNK         0.0000 
     14 C14         0.1189   47.8972   19.8352 C.2       1 UNK         0.0000 
     15 C15         0.9827   47.6377   18.7644 C.2       1 UNK         0.0000 
     16 C16         0.7321   46.4092   18.1674 C.2       1 UNK         0.0000 
     17 S17        -0.5645   45.5534   18.9409 S.3       1 UNK         0.0000 
     18 C18        -0.0307   51.6091   24.9184 C.2       1 UNK         0.0000 
     19 O19        -0.6535   52.4438   25.5803 O.2       1 UNK         0.0000 
     20 N20         0.7333   51.9491   23.8641 N.am      1 UNK         0.0000 
     21 C21         0.7753   53.2972   23.3024 C.3       1 UNK         0.0000 
     22 C22         1.6647   54.2911   24.0685 C.3       1 UNK         0.0000 
     23 C23         3.1606   54.1236   23.9216 C.2       1 UNK         0.0000 
     24 C24         4.1274   54.1206   24.8536 C.2       1 UNK         0.0000 
     25 C25         4.0546   54.2096   26.3208 C.2       1 UNK         0.0000 
     26 C26         5.1696   54.2485   27.0766 C.2       1 UNK         0.0000 
     27 C27         6.4458   54.2001   26.3784 C.2       1 UNK         0.0000 
     28 C28         6.5373   54.1327   25.0199 C.2       1 UNK         0.0000 
     29 C29         5.3804   54.0970   24.2362 C.2       1 UNK         0.0000 
     30 N30         5.2574   54.0511   22.9303 N.pl3     1 UNK         0.0000 
     31 C31         3.8304   54.0334   22.5639 C.3       1 UNK         0.0000 
     32 Cl32        5.0924   54.3850   28.8355 Cl        1 UNK         0.0000 
     33 H33         1.2136   50.3808   26.9548 H         1 UNK         0.0000 
     34 H34        -0.4572   50.1279   27.4135 H         1 UNK         0.0000 
     35 H35         0.5067   48.7834   26.8629 H         1 UNK         0.0000 
     36 H36        -2.2573   49.9948   25.7845 H         1 UNK         0.0000 
     37 H37        -3.3217   49.6189   23.6317 H         1 UNK         0.0000 
     38 H38        -2.3114   51.0323   23.5212 H         1 UNK         0.0000 
     39 H39        -2.0347   49.5328   21.5461 H         1 UNK         0.0000 
     40 H40        -0.5194   49.7517   22.3673 H         1 UNK         0.0000 
     41 H41        -1.2920   46.2389   24.0042 H         1 UNK         0.0000 
     42 H42         0.0535   47.3305   24.0833 H         1 UNK         0.0000 
     43 H43        -1.3413   47.6813   26.0805 H         1 UNK         0.0000 
     44 H44        -2.7971   47.7407   25.1422 H         1 UNK         0.0000 
     45 H45         0.1562   48.8128   20.4073 H         1 UNK         0.0000 
     46 H46         1.7542   48.3205   18.4294 H         1 UNK         0.0000 
     47 H47         1.2421   45.9745   17.3210 H         1 UNK         0.0000 
     48 H48         1.2424   51.2240   23.3762 H         1 UNK         0.0000 
     49 H49        -0.2428   53.6860   23.2852 H         1 UNK         0.0000 
     50 H50         1.0887   53.2296   22.2599 H         1 UNK         0.0000 
     51 H51         1.3850   54.3151   25.1199 H         1 UNK         0.0000 
     52 H52         1.4820   55.2937   23.6854 H         1 UNK         0.0000 
     53 H53         3.1014   54.2426   26.8315 H         1 UNK         0.0000 
     54 H54         7.3499   54.2075   26.9728 H         1 UNK         0.0000 
     55 H55         7.5044   54.0943   24.5428 H         1 UNK         0.0000 
     56 H56         3.6307   54.8867   21.9117 H         1 UNK         0.0000 
     57 H57         3.6311   53.1013   22.0327 H         1 UNK         0.0000 
     58 H58         6.0262   54.0305   22.2640 H         1 UNK         0.0000 
@<TRIPOS>BOND
     1    1    2 1    
     2    1   33 1    
     3    1   34 1    
     4    1   35 1    
     5    2    3 1    
     6    2    4 1    
     7    2   18 1    
     8    4    9 1    
     9    4    5 1    
    10    4   36 1    
    11    5    6 1    
    12    5   37 1    
    13    5   38 1    
    14    6    7 1    
    15    6   39 1    
    16    6   40 1    
    17    7    8 1    
    18    7   10 1    
    19    8    9 1    
    20    8   41 1    
    21    8   42 1    
    22    9   43 1    
    23    9   44 1    
    24   10   11 2    
    25   10   12 2    
    26   10   13 1    
    27   13   17 1    
    28   13   14 2    
    29   14   15 1    
    30   14   45 1    
    31   15   16 2    
    32   15   46 1    
    33   16   17 1    
    34   16   47 1    
    35   18   19 2    
    36   18   20 am   BACKBONE|DICT|INTERRES
    37   20   21 1    
    38   20   48 1    
    39   21   22 1    
    40   21   49 1    
    41   21   50 1    
    42   22   23 1    
    43   22   51 1    
    44   22   52 1    
    45   23   31 1    
    46   23   24 2    
    47   24   29 1    
    48   24   25 1    
    49   25   26 2    
    50   25   53 1    
    51   26   27 1    
    52   26   32 1    
    53   27   28 2    
    54   27   54 1    
    55   28   29 1    
    56   28   55 1    
    57   29   30 2    
    58   30   31 1    
    59   30   58 1    
    60   31   56 1    
    61   31   57 1    
@<TRIPOS>SUBSTRUCTURE
     1 UNK         1 GROUP             0       ****    0 ROOT    
