ZINC37885383_3882
                    3D
 Schrodinger Suite 2024-2.
 26 27  0  0  1  0            999 V2000
    4.3137   54.3486   25.1846 C   0  0  0  0  0  0
    5.4851   54.5505   25.9073 C   0  0  0  0  0  0
    5.4655   54.4965   27.2977 C   0  0  0  0  0  0
    4.2689   54.2614   27.9735 C   0  0  0  0  0  0
    3.0781   54.0497   27.2524 C   0  0  0  0  0  0
    3.1126   54.0966   25.8459 C   0  0  0  0  0  0
    1.6904   53.8804   24.8803 Cl  0  0  0  0  0  0
    1.8633   53.8310   27.9240 N   0  0  0  0  0  0
    1.6759   52.4956   28.5031 C   0  0  2  0  0  0
    2.6362   51.9908   28.6344 H   0  0  0  0  0  0
    0.7919   51.6314   27.5963 C   0  0  0  0  0  0
   -0.5274   51.9783   27.9879 O   0  0  0  0  0  0
   -0.5400   52.0962   29.4075 C   0  0  0  0  0  0
    0.8846   52.4969   29.8211 C   0  0  2  0  0  0
    1.2870   51.6964   30.4399 H   0  0  0  0  0  0
    0.9296   53.6799   30.6046 O   0  0  0  0  0  0
    4.3043   54.2653   29.7041 Cl  0  0  0  0  0  0
    7.1044   54.9292   24.9916 Br  0  0  0  0  0  0
    4.3357   54.3957   24.1051 H   0  0  0  0  0  0
    6.3753   54.6612   27.8566 H   0  0  0  0  0  0
    1.0475   54.1663   27.4302 H   0  0  0  0  0  0
    0.9396   50.5579   27.7276 H   0  0  0  0  0  0
    0.9381   51.8036   26.5309 H   0  0  0  0  0  0
   -1.2955   52.8252   29.6951 H   0  0  0  0  0  0
   -0.8392   51.1459   29.8535 H   0  0  0  0  0  0
    0.3565   53.5570   31.3676 H   0  0  0  0  0  0
  1  6  2  0  0  0
  1  2  1  0  0  0
  1 19  1  0  0  0
  2  3  2  0  0  0
  2 18  1  0  0  0
  3  4  1  0  0  0
  3 20  1  0  0  0
  4  5  2  0  0  0
  4 17  1  0  0  0
  5  6  1  0  0  0
  5  8  1  0  0  0
  6  7  1  0  0  0
  8  9  1  0  0  0
  8 21  1  0  0  0
  9 10  1  0  0  0
  9 14  1  0  0  0
  9 11  1  0  0  0
 11 12  1  0  0  0
 11 22  1  0  0  0
 11 23  1  0  0  0
 12 13  1  0  0  0
 13 14  1  0  0  0
 13 24  1  0  0  0
 13 25  1  0  0  0
 14 15  1  0  0  0
 14 16  1  0  0  0
 16 26  1  0  0  0
M  END
> <i_i_glide_confnum>
22

> <i_i_glide_lignum>
3883

> <i_i_glide_posenum>
163

> <i_i_glide_rotatable_bonds>
3

> <i_m_Source_File_Index>
5453

> <b_m_subgroup_collapsed>
0

> <r_i_docking_score>
-4.8545

> <r_i_glide_ecoul>
-2.01974

> <r_i_glide_eff_state_penalty>
0

> <r_i_glide_einternal>
0.970078

> <r_i_glide_emodel>
-42.1713

> <r_i_glide_energy>
-32.731

> <r_i_glide_erotb>
0.350928

> <r_i_glide_esite>
0

> <r_i_glide_evdw>
-30.7113

> <r_i_glide_gscore>
-4.8545

> <r_i_glide_hbond>
0

> <r_i_glide_ligand_efficiency>
-0.303406

> <r_i_glide_ligand_efficiency_ln>
-1.28678

> <r_i_glide_ligand_efficiency_sa>
-0.764536

> <r_i_glide_lipo>
-2.11237

> <r_i_glide_metal>
0

> <r_i_glide_rewards>
-1.25454

> <s_i_glide_gridfile>
wee1_glide-grid

> <s_m_Source_File>
wee1_decoys_glide_SP.sdf

> <s_m_Source_Path>
/Users/zhangxujun/Desktop

> <s_m_entry_id>
5728

> <s_m_entry_name>
wee1_decoys_glide_SP.5453

> <s_m_subgroup_title>
wee1_decoys_glide_SP

> <s_m_subgroupid>
wee1_decoys_glide_SP


$$$$
