@<TRIPOS>MOLECULE
ZINC05295854_5863
66   71    1
SMALL
USER_CHARGES


@<TRIPOS>ATOM
      1 C1          1.3251   52.2377   24.4512 C.3       1 UNK         0.0000 
      2 C2          0.2399   51.3428   23.7817 C.3       1 UNK         0.0000 
      3 C3          0.7278   49.8480   23.6953 C.3       1 UNK         0.0000 
      4 C4          1.3476   49.3965   22.3481 C.3       1 UNK         0.0000 
      5 C5          2.1549   50.5259   21.6805 C.3       1 UNK         0.0000 
      6 H6          2.9959   50.7728   22.3330 H         1 UNK         0.0000 
      7 C7          1.3266   51.8228   21.4593 C.3       1 UNK         0.0000 
      8 C8          0.0570   51.8289   22.3229 C.2       1 UNK         0.0000 
      9 C9         -1.1482   52.0964   21.7850 C.2       1 UNK         0.0000 
     10 C10        -2.4781   51.9537   22.4904 C.3       1 UNK         0.0000 
     11 C11        -2.3740   51.1320   23.8005 C.3       1 UNK         0.0000 
     12 H12        -2.2890   50.0805   23.5312 H         1 UNK         0.0000 
     13 C13        -1.1017   51.5242   24.6029 C.3       1 UNK         0.0000 
     14 H14        -1.2143   52.5877   24.8320 H         1 UNK         0.0000 
     15 C15        -1.0894   50.7589   25.9485 C.3       1 UNK         0.0000 
     16 C16        -2.3163   51.0740   26.8126 C.3       1 UNK         0.0000 
     17 C17        -3.6904   50.8577   26.1075 C.3       1 UNK         0.0000 
     18 C18        -3.7003   51.3200   24.6126 C.3       1 UNK         0.0000 
     19 H19        -3.9251   52.3867   24.5910 H         1 UNK         0.0000 
     20 C20        -4.8916   50.5561   23.9937 C.3       1 UNK         0.0000 
     21 C21        -5.0392   49.2450   24.7737 C.3       1 UNK         0.0000 
     22 H22        -6.0853   49.0933   25.0372 H         1 UNK         0.0000 
     23 C23        -4.1429   49.3521   26.0310 C.3       1 UNK         0.0000 
     24 O24        -3.1089   48.4472   25.6653 O.3       1 UNK         0.0000 
     25 C25        -3.5668   47.4900   24.7706 C.3       1 UNK         0.0000 
     26 O26        -4.5601   48.1215   24.0428 O.3       1 UNK         0.0000 
     27 C27        -4.1513   46.2867   25.5136 C.3       1 UNK         0.0000 
     28 C28        -2.4347   47.0840   23.8405 C.3       1 UNK         0.0000 
     29 C29        -4.8102   48.8320   27.3134 C.ar      1 UNK         0.0000 
     30 C30        -6.1277   48.6186   27.7022 C.ar      1 UNK         0.0000 
     31 C31        -6.0782   48.1748   29.0250 C.ar      1 UNK         0.0000 
     32 N32        -4.8490   48.0947   29.4707 N.2       1 UNK         0.0000 
     33 N33        -4.0957   48.5064   28.4409 N.pl3     1 UNK         0.0000 
     34 H34        -3.0701   48.4971   28.4816 H         1 UNK         0.0000 
     35 C35        -4.7334   51.7201   26.8826 C.3       1 UNK         0.0000 
     36 O36         2.7057   50.0749   20.4629 O.3       1 UNK         0.0000 
     37 H37         1.0397   53.2920   24.4324 H         1 UNK         0.0000 
     38 H38         1.4917   51.9720   25.4923 H         1 UNK         0.0000 
     39 H39         2.2992   52.1604   23.9723 H         1 UNK         0.0000 
     40 H40         1.4471   49.6472   24.4872 H         1 UNK         0.0000 
     41 H41        -0.0961   49.1619   23.8869 H         1 UNK         0.0000 
     42 H42         1.9563   48.4974   22.4755 H         1 UNK         0.0000 
     43 H43         0.5282   49.1175   21.6809 H         1 UNK         0.0000 
     44 H44         1.9337   52.7023   21.6722 H         1 UNK         0.0000 
     45 H45         1.0485   51.9145   20.4085 H         1 UNK         0.0000 
     46 H46        -1.1723   52.3915   20.7453 H         1 UNK         0.0000 
     47 H47        -2.8903   52.9476   22.6684 H         1 UNK         0.0000 
     48 H48        -3.1603   51.4538   21.8036 H         1 UNK         0.0000 
     49 H49        -0.9976   49.6849   25.8061 H         1 UNK         0.0000 
     50 H50        -0.2024   51.0181   26.5228 H         1 UNK         0.0000 
     51 H51        -2.2840   50.5599   27.7759 H         1 UNK         0.0000 
     52 H52        -2.2182   52.1325   27.0570 H         1 UNK         0.0000 
     53 H53        -5.8058   51.1426   24.0845 H         1 UNK         0.0000 
     54 H54        -4.7448   50.3748   22.9282 H         1 UNK         0.0000 
     55 H55        -5.0658   46.5540   26.0409 H         1 UNK         0.0000 
     56 H56        -4.4074   45.4989   24.8025 H         1 UNK         0.0000 
     57 H57        -3.4263   45.9040   26.2384 H         1 UNK         0.0000 
     58 H58        -1.5942   46.7026   24.4213 H         1 UNK         0.0000 
     59 H59        -2.7732   46.3154   23.1464 H         1 UNK         0.0000 
     60 H60        -2.0946   47.9360   23.2577 H         1 UNK         0.0000 
     61 H61        -7.0172   48.7702   27.1081 H         1 UNK         0.0000 
     62 H62        -6.9225   47.9136   29.6462 H         1 UNK         0.0000 
     63 H63        -4.5086   52.7841   26.8153 H         1 UNK         0.0000 
     64 H64        -5.7464   51.5805   26.5058 H         1 UNK         0.0000 
     65 H65        -4.7459   51.4719   27.9453 H         1 UNK         0.0000 
     66 H66         3.1583   49.2393   20.6106 H         1 UNK         0.0000 
@<TRIPOS>BOND
     1    1    2 1    
     2    1   37 1    
     3    1   38 1    
     4    1   39 1    
     5    2    8 1    
     6    2   13 1    
     7    2    3 1    
     8    3    4 1    
     9    3   40 1    
    10    3   41 1    
    11    4    5 1    
    12    4   42 1    
    13    4   43 1    
    14    5    6 1    
    15    5    7 1    
    16    5   36 1    
    17    7    8 1    
    18    7   44 1    
    19    7   45 1    
    20    8    9 2    
    21    9   10 1    
    22    9   46 1    
    23   10   11 1    
    24   10   47 1    
    25   10   48 1    
    26   11   12 1    
    27   11   18 1    
    28   11   13 1    
    29   13   14 1    
    30   13   15 1    
    31   15   16 1    
    32   15   49 1    
    33   15   50 1    
    34   16   17 1    
    35   16   51 1    
    36   16   52 1    
    37   17   23 1    
    38   17   18 1    
    39   17   35 1    
    40   18   19 1    
    41   18   20 1    
    42   20   21 1    
    43   20   53 1    
    44   20   54 1    
    45   21   22 1    
    46   21   26 1    
    47   21   23 1    
    48   23   24 1    
    49   23   29 1    
    50   24   25 1    
    51   25   26 1    
    52   25   27 1    
    53   25   28 1    
    54   27   55 1    
    55   27   56 1    
    56   27   57 1    
    57   28   58 1    
    58   28   59 1    
    59   28   60 1    
    60   29   33 ar   
    61   29   30 ar   
    62   30   31 ar   
    63   30   61 1    
    64   31   32 ar   
    65   31   62 1    
    66   32   33 ar   
    67   33   34 1    
    68   35   63 1    
    69   35   64 1    
    70   35   65 1    
    71   36   66 1    
@<TRIPOS>SUBSTRUCTURE
     1 UNK         1 GROUP             0       ****    0 ROOT    
