@<TRIPOS>MOLECULE
ZINC36557273_6002
72   76    1
SMALL
USER_CHARGES


@<TRIPOS>ATOM
      1 C1          0.1358   52.2618   30.2939 C.3       1 UNK         0.0000 
      2 C2          0.6680   53.4840   31.0510 C.2       1 UNK         0.0000 
      3 O3          0.3018   53.6997   32.2015 O.2       1 UNK         0.0000 
      4 O4          1.5346   54.3260   30.4057 O.3       1 UNK         0.0000 
      5 C5          2.0182   54.0632   29.1435 C.ar      1 UNK         0.0000 
      6 C6          1.2479   54.4052   28.0504 C.ar      1 UNK         0.0000 
      7 C7          1.6921   54.0965   26.7739 C.ar      1 UNK         0.0000 
      8 C8          2.9234   53.5363   26.5164 C.ar      1 UNK         0.0000 
      9 C9          3.7487   53.2668   27.6198 C.ar      1 UNK         0.0000 
     10 C10         3.2824   53.5020   28.9323 C.ar      1 UNK         0.0000 
     11 O11         4.0136   53.1864   30.0442 O.3       1 UNK         0.0000 
     12 C12         4.3510   51.8172   30.1454 C.3       1 UNK         0.0000 
     13 C13         3.2463   53.1313   25.0628 C.3       1 UNK         0.0000 
     14 H14         3.5033   52.1029   25.2403 H         1 UNK         0.0000 
     15 C15         4.3184   53.9914   24.3296 C.3       1 UNK         0.0000 
     16 H16         3.7903   54.9364   24.1697 H         1 UNK         0.0000 
     17 C17         5.6519   54.3925   24.9499 C.3       1 UNK         0.0000 
     18 C18         6.3848   54.8951   23.7054 C.2       1 UNK         0.0000 
     19 C19         5.7870   54.4603   22.5720 C.2       1 UNK         0.0000 
     20 C20         4.7291   53.4476   22.9515 C.3       1 UNK         0.0000 
     21 H21         5.2599   52.4967   22.8924 H         1 UNK         0.0000 
     22 C22         3.5075   53.1315   22.1053 C.ar      1 UNK         0.0000 
     23 C23         3.6152   52.8939   20.7292 C.ar      1 UNK         0.0000 
     24 C24         2.5366   52.3970   19.9893 C.ar      1 UNK         0.0000 
     25 C25         1.3298   52.1174   20.6463 C.ar      1 UNK         0.0000 
     26 C26         1.2022   52.3644   22.0098 C.ar      1 UNK         0.0000 
     27 C27         2.2720   52.8786   22.7410 C.ar      1 UNK         0.0000 
     28 N28         2.0981   53.0004   24.1394 N.pl3     1 UNK         0.0000 
     29 N29         2.7592   52.1980   18.6135 N.am      1 UNK         0.0000 
     30 C30         1.8640   52.0213   17.6176 C.2       1 UNK         0.0000 
     31 O31         0.6540   51.8354   17.7775 O.2       1 UNK         0.0000 
     32 C32         2.4425   52.0635   16.2239 C.ar      1 UNK         0.0000 
     33 C33         3.5140   52.9098   15.9052 C.ar      1 UNK         0.0000 
     34 C34         4.0089   52.9569   14.6055 C.ar      1 UNK         0.0000 
     35 C35         3.4516   52.1669   13.5897 C.ar      1 UNK         0.0000 
     36 C36         2.3883   51.3112   13.9204 C.ar      1 UNK         0.0000 
     37 C37         1.8873   51.2654   15.2188 C.ar      1 UNK         0.0000 
     38 C38         4.0102   52.2770   12.1473 C.3       1 UNK         0.0000 
     39 C39         3.8238   53.7276   11.6334 C.3       1 UNK         0.0000 
     40 C40         3.2982   51.3362   11.1380 C.3       1 UNK         0.0000 
     41 C41         5.5167   51.9167   12.1326 C.3       1 UNK         0.0000 
     42 H42        -0.4810   52.5743   29.4543 H         1 UNK         0.0000 
     43 H43         0.9553   51.6506   29.9213 H         1 UNK         0.0000 
     44 H44        -0.4822   51.6502   30.9556 H         1 UNK         0.0000 
     45 H45         0.3004   54.8870   28.1886 H         1 UNK         0.0000 
     46 H46         1.1054   54.3397   25.9143 H         1 UNK         0.0000 
     47 H47         4.7188   52.8172   27.4643 H         1 UNK         0.0000 
     48 H48         4.7298   51.6120   31.1463 H         1 UNK         0.0000 
     49 H49         3.4756   51.1934   29.9844 H         1 UNK         0.0000 
     50 H50         5.1041   51.5337   29.4128 H         1 UNK         0.0000 
     51 H51         5.5098   55.1781   25.6931 H         1 UNK         0.0000 
     52 H52         6.1537   53.5613   25.4478 H         1 UNK         0.0000 
     53 H53         7.2459   55.5452   23.7650 H         1 UNK         0.0000 
     54 H54         6.0962   54.6507   21.5543 H         1 UNK         0.0000 
     55 H55         4.5625   53.0653   20.2392 H         1 UNK         0.0000 
     56 H56         0.4783   51.7051   20.1293 H         1 UNK         0.0000 
     57 H57         0.2667   52.1335   22.4974 H         1 UNK         0.0000 
     58 H58         1.2719   52.6150   24.5707 H         1 UNK         0.0000 
     59 H59         3.7252   52.2371   18.3272 H         1 UNK         0.0000 
     60 H60         3.9628   53.5483   16.6525 H         1 UNK         0.0000 
     61 H61         4.8268   53.6297   14.3893 H         1 UNK         0.0000 
     62 H62         1.9249   50.6716   13.1864 H         1 UNK         0.0000 
     63 H63         1.0676   50.5951   15.4388 H         1 UNK         0.0000 
     64 H64         4.1581   53.8388   10.5981 H         1 UNK         0.0000 
     65 H65         4.3880   54.4521   12.2222 H         1 UNK         0.0000 
     66 H66         2.7731   54.0262   11.6679 H         1 UNK         0.0000 
     67 H67         3.4261   50.2853   11.4070 H         1 UNK         0.0000 
     68 H68         2.2273   51.5385   11.0785 H         1 UNK         0.0000 
     69 H69         3.6979   51.4553   10.1282 H         1 UNK         0.0000 
     70 H70         5.6887   50.9020   12.4978 H         1 UNK         0.0000 
     71 H71         5.9324   51.9751   11.1248 H         1 UNK         0.0000 
     72 H72         6.1082   52.5882   12.7551 H         1 UNK         0.0000 
@<TRIPOS>BOND
     1    1    2 1    
     2    1   42 1    
     3    1   43 1    
     4    1   44 1    
     5    2    3 2    
     6    2    4 1    
     7    4    5 1    
     8    5   10 ar   
     9    5    6 ar   
    10    6    7 ar   
    11    6   45 1    
    12    7    8 ar   
    13    7   46 1    
    14    8    9 ar   
    15    8   13 1    
    16    9   10 ar   
    17    9   47 1    
    18   10   11 1    
    19   11   12 1    
    20   12   48 1    
    21   12   49 1    
    22   12   50 1    
    23   13   14 1    
    24   13   28 1    
    25   13   15 1    
    26   15   16 1    
    27   15   20 1    
    28   15   17 1    
    29   17   18 1    
    30   17   51 1    
    31   17   52 1    
    32   18   19 2    
    33   18   53 1    
    34   19   20 1    
    35   19   54 1    
    36   20   21 1    
    37   20   22 1    
    38   22   27 ar   
    39   22   23 ar   
    40   23   24 ar   
    41   23   55 1    
    42   24   25 ar   
    43   24   29 1    
    44   25   26 ar   
    45   25   56 1    
    46   26   27 ar   
    47   26   57 1    
    48   27   28 1    
    49   28   58 1    
    50   29   30 am   BACKBONE|DICT|INTERRES
    51   29   59 1    
    52   30   31 2    
    53   30   32 1    
    54   32   37 ar   
    55   32   33 ar   
    56   33   34 ar   
    57   33   60 1    
    58   34   35 ar   
    59   34   61 1    
    60   35   36 ar   
    61   35   38 1    
    62   36   37 ar   
    63   36   62 1    
    64   37   63 1    
    65   38   39 1    
    66   38   40 1    
    67   38   41 1    
    68   39   64 1    
    69   39   65 1    
    70   39   66 1    
    71   40   67 1    
    72   40   68 1    
    73   40   69 1    
    74   41   70 1    
    75   41   71 1    
    76   41   72 1    
@<TRIPOS>SUBSTRUCTURE
     1 UNK         1 GROUP             0       ****    0 ROOT    
