ZINC66644341_1405
                    3D
 Schrodinger Suite 2024-2.
 56 58  0  0  1  0            999 V2000
    1.5473   56.8966   29.1390 C   0  0  0  0  0  0
    2.0493   55.5922   29.3240 O   0  0  0  0  0  0
    1.3945   54.6908   30.0816 C   0  0  0  0  0  0
    0.3043   54.8966   30.6104 O   0  0  0  0  0  0
    2.1600   53.5256   30.2393 N   0  0  0  0  0  0
    1.8050   52.4847   31.2087 C   0  0  0  0  0  0
    3.1462   51.8641   31.5901 C   0  0  0  0  0  0
    3.8868   51.8974   30.2602 C   0  0  0  0  0  0
    3.5035   53.2649   29.6630 C   0  0  1  0  0  0
    4.1813   54.0239   30.0618 H   0  0  0  0  0  0
    3.6051   53.2961   28.1226 C   0  0  0  0  0  0
    4.7226   53.4099   27.6199 O   0  0  0  0  0  0
    2.4367   53.2054   27.4491 N   0  0  0  0  0  0
    2.2303   53.1912   26.0640 C   0  0  0  0  0  0
    3.0921   53.8071   25.1470 C   0  0  0  0  0  0
    2.8827   53.6429   23.7809 C   0  0  0  0  0  0
    1.8251   52.8398   23.3275 C   0  0  0  0  0  0
    0.9140   52.3123   24.2446 C   0  0  0  0  0  0
    1.1076   52.4964   25.6096 C   0  0  0  0  0  0
    1.6103   52.4970   21.9821 N   0  0  0  0  0  0
    2.4861   52.4968   20.9490 C   0  0  0  0  0  0
    3.6562   52.8666   21.0752 O   0  0  0  0  0  0
    2.0060   51.9809   19.7761 N   0  0  0  0  0  0
    2.8953   51.8969   18.6046 C   0  0  0  0  0  0
    2.9665   53.2024   17.7904 C   0  0  0  0  0  0
    1.7425   53.4431   16.8863 C   0  0  0  0  0  0
    0.3678   53.3564   17.5803 C   0  0  0  0  0  0
    0.0205   51.9605   18.1400 C   0  0  0  0  0  0
    0.5824   51.6377   19.5446 C   0  0  0  0  0  0
    2.2265   57.4315   28.4817 H   0  0  0  0  0  0
    1.4780   57.4379   30.0842 H   0  0  0  0  0  0
    0.5740   56.8955   28.6554 H   0  0  0  0  0  0
    1.2767   52.8634   32.0864 H   0  0  0  0  0  0
    1.1590   51.7532   30.7195 H   0  0  0  0  0  0
    3.6690   52.4967   32.3032 H   0  0  0  0  0  0
    3.0648   50.8970   32.0817 H   0  0  0  0  0  0
    4.9635   51.7653   30.3752 H   0  0  0  0  0  0
    3.5237   51.0990   29.6114 H   0  0  0  0  0  0
    1.6162   53.0305   28.0092 H   0  0  0  0  0  0
    3.9393   54.3893   25.4777 H   0  0  0  0  0  0
    3.5750   54.1127   23.0985 H   0  0  0  0  0  0
    0.0782   51.7134   23.9107 H   0  0  0  0  0  0
    0.4217   52.0331   26.3051 H   0  0  0  0  0  0
    0.7052   52.1030   21.7851 H   0  0  0  0  0  0
    3.9045   51.6965   18.9595 H   0  0  0  0  0  0
    2.6833   51.0018   18.0176 H   0  0  0  0  0  0
    3.1208   54.0541   18.4569 H   0  0  0  0  0  0
    3.8505   53.1585   17.1529 H   0  0  0  0  0  0
    1.8439   54.4253   16.4244 H   0  0  0  0  0  0
    1.7679   52.7286   16.0631 H   0  0  0  0  0  0
   -0.3936   53.6395   16.8536 H   0  0  0  0  0  0
    0.3043   54.0968   18.3767 H   0  0  0  0  0  0
    0.3483   51.1963   17.4338 H   0  0  0  0  0  0
   -1.0635   51.8467   18.1797 H   0  0  0  0  0  0
    0.5002   50.5544   19.6536 H   0  0  0  0  0  0
   -0.0676   52.1186   20.2746 H   0  0  0  0  0  0
  1  2  1  0  0  0
  1 30  1  0  0  0
  1 31  1  0  0  0
  1 32  1  0  0  0
  2  3  1  0  0  0
  3  4  2  0  0  0
  3  5  1  0  0  0
  5  9  1  0  0  0
  5  6  1  0  0  0
  6  7  1  0  0  0
  6 33  1  0  0  0
  6 34  1  0  0  0
  7  8  1  0  0  0
  7 35  1  0  0  0
  7 36  1  0  0  0
  8  9  1  0  0  0
  8 37  1  0  0  0
  8 38  1  0  0  0
  9 10  1  0  0  0
  9 11  1  0  0  0
 11 12  2  0  0  0
 11 13  1  0  0  0
 13 14  1  0  0  0
 13 39  1  0  0  0
 14 19  2  0  0  0
 14 15  1  0  0  0
 15 16  2  0  0  0
 15 40  1  0  0  0
 16 17  1  0  0  0
 16 41  1  0  0  0
 17 18  2  0  0  0
 17 20  1  0  0  0
 18 19  1  0  0  0
 18 42  1  0  0  0
 19 43  1  0  0  0
 20 21  1  0  0  0
 20 44  1  0  0  0
 21 22  2  0  0  0
 21 23  1  0  0  0
 23 29  1  0  0  0
 23 24  1  0  0  0
 24 25  1  0  0  0
 24 45  1  0  0  0
 24 46  1  0  0  0
 25 26  1  0  0  0
 25 47  1  0  0  0
 25 48  1  0  0  0
 26 27  1  0  0  0
 26 49  1  0  0  0
 26 50  1  0  0  0
 27 28  1  0  0  0
 27 51  1  0  0  0
 27 52  1  0  0  0
 28 29  1  0  0  0
 28 53  1  0  0  0
 28 54  1  0  0  0
 29 55  1  0  0  0
 29 56  1  0  0  0
M  END
> <i_i_glide_confnum>
232

> <i_i_glide_lignum>
1406

> <i_i_glide_posenum>
360

> <i_i_glide_rotatable_bonds>
8

> <i_m_Source_File_Index>
4812

> <b_m_subgroup_collapsed>
0

> <r_i_docking_score>
-4.05984

> <r_i_glide_ecoul>
0.858353

> <r_i_glide_eff_state_penalty>
0

> <r_i_glide_einternal>
10.8065

> <r_i_glide_emodel>
-40.6591

> <r_i_glide_energy>
-36.3294

> <r_i_glide_erotb>
0.903831

> <r_i_glide_esite>
-0.0426284

> <r_i_glide_evdw>
-37.1878

> <r_i_glide_gscore>
-4.05984

> <r_i_glide_hbond>
0

> <r_i_glide_ligand_efficiency>
-0.144994

> <r_i_glide_ligand_efficiency_ln>
-0.937129

> <r_i_glide_ligand_efficiency_sa>
-0.440288

> <r_i_glide_lipo>
-1.78481

> <r_i_glide_metal>
0

> <r_i_glide_rewards>
-1.40559

> <s_i_glide_gridfile>
wee1_glide-grid

> <s_m_Source_File>
wee1_decoys_glide_SP.sdf

> <s_m_Source_Path>
/Users/zhangxujun/Desktop

> <s_m_entry_id>
5087

> <s_m_entry_name>
wee1_decoys_glide_SP.4812

> <s_m_subgroup_title>
wee1_decoys_glide_SP

> <s_m_subgroupid>
wee1_decoys_glide_SP


$$$$
