@<TRIPOS>MOLECULE
ZINC39011980_757
34   36    1
SMALL
USER_CHARGES


@<TRIPOS>ATOM
      1 C1          3.6883   54.0966   24.1599 C.ar      1 UNK         0.0000 
      2 C2          4.3005   54.4964   25.3463 C.ar      1 UNK         0.0000 
      3 C3          5.6789   54.6880   25.3825 C.ar      1 UNK         0.0000 
      4 C4          6.4411   54.4959   24.2362 C.ar      1 UNK         0.0000 
      5 C5          5.8309   54.0871   23.0557 C.ar      1 UNK         0.0000 
      6 C6          4.4477   53.8547   23.0053 C.ar      1 UNK         0.0000 
      7 C7          3.7413   53.4184   21.6999 C.3       1 UNK         0.0000 
      8 H8          3.1043   54.2496   21.4082 H         1 UNK         0.0000 
      9 N9          4.6422   53.1748   20.6101 N.2       1 UNK         0.0000 
     10 N10         4.3048   52.0965   20.0684 N.pl3     1 UNK         0.0000 
     11 C11         3.2154   51.4353   20.6072 C.2       1 UNK         0.0000 
     12 S12         2.5222   50.0995   19.8811 S.2       1 UNK         0.0000 
     13 N13         2.9561   52.1808   21.7365 N.pl3     1 UNK         0.0000 
     14 N14         1.9077   52.0264   22.6281 N.2       1 UNK         0.0000 
     15 C15         1.6053   50.8645   23.0806 C.2       1 UNK         0.0000 
     16 C16         0.4775   50.5787   23.9853 C.ar      1 UNK         0.0000 
     17 C17         0.1864   49.2303   24.2388 C.ar      1 UNK         0.0000 
     18 C18        -0.8801   48.8621   25.0537 C.ar      1 UNK         0.0000 
     19 C19        -1.6447   49.8395   25.6813 C.ar      1 UNK         0.0000 
     20 C20        -1.3777   51.1880   25.4518 C.ar      1 UNK         0.0000 
     21 C21        -0.3333   51.5620   24.5953 C.ar      1 UNK         0.0000 
     22 O22        -0.1176   52.8965   24.3581 O.3       1 UNK         0.0000 
     23 Br23       -2.4672   52.4964   26.3126 Br        1 UNK         0.0000 
     24 Br24       -1.3145   47.0227   25.2758 Br        1 UNK         0.0000 
     25 Cl25        6.4514   55.1794   26.8460 Cl        1 UNK         0.0000 
     26 H26         2.6161   53.9756   24.1535 H         1 UNK         0.0000 
     27 H27         3.7050   54.6607   26.2326 H         1 UNK         0.0000 
     28 H28         7.5044   54.6681   24.2561 H         1 UNK         0.0000 
     29 H29         6.4514   53.9709   22.1826 H         1 UNK         0.0000 
     30 H30         2.1894   49.9857   22.8144 H         1 UNK         0.0000 
     31 H31         0.7714   48.4420   23.7855 H         1 UNK         0.0000 
     32 H32        -2.4472   49.5449   26.3438 H         1 UNK         0.0000 
     33 H33         0.5793   52.9962   23.7003 H         1 UNK         0.0000 
     34 H34         4.7814   51.7830   19.2214 H         1 UNK         0.0000 
@<TRIPOS>BOND
     1    1    6 ar   
     2    1    2 ar   
     3    1   26 1    
     4    2    3 ar   
     5    2   27 1    
     6    3    4 ar   
     7    3   25 1    
     8    4    5 ar   
     9    4   28 1    
    10    5    6 ar   
    11    5   29 1    
    12    6    7 1    
    13    7    8 1    
    14    7   13 1    
    15    7    9 1    
    16    9   10 2    
    17   10   11 1    
    18   10   34 1    
    19   11   12 2    
    20   11   13 1    
    21   13   14 1    
    22   14   15 2    
    23   15   16 1    
    24   15   30 1    
    25   16   21 ar   
    26   16   17 ar   
    27   17   18 ar   
    28   17   31 1    
    29   18   19 ar   
    30   18   24 1    
    31   19   20 ar   
    32   19   32 1    
    33   20   21 ar   
    34   20   23 1    
    35   21   22 1    
    36   22   33 1    
@<TRIPOS>SUBSTRUCTURE
     1 UNK         1 GROUP             0       ****    0 ROOT    
