@<TRIPOS>MOLECULE
ZINC13131537_2910
75   78    1
SMALL
USER_CHARGES


@<TRIPOS>ATOM
      1 C1         -2.6050   51.7718   23.4015 C.3       1 UNK         0.0000 
      2 C2         -1.5630   51.5227   22.3074 C.3       1 UNK         0.0000 
      3 O3         -0.3146   52.0548   22.7305 O.3       1 UNK         0.0000 
      4 C4          0.7432   52.0967   21.8968 C.2       1 UNK         0.0000 
      5 O5          0.7080   51.7049   20.7262 O.2       1 UNK         0.0000 
      6 C6          1.9435   52.7069   22.5196 C.2       1 UNK         0.0000 
      7 C7          2.1359   53.0249   23.9034 C.2       1 UNK         0.0000 
      8 C8          3.3312   53.6966   24.1572 C.2       1 UNK         0.0000 
      9 S9          4.3236   53.8294   22.7618 S.3       1 UNK         0.0000 
     10 C10         3.1026   53.0536   21.7845 C.2       1 UNK         0.0000 
     11 N11         3.2481   52.8971   20.4022 N.am      1 UNK         0.0000 
     12 C12         4.3029   53.2070   19.6183 C.2       1 UNK         0.0000 
     13 O13         5.4279   53.4881   20.0308 O.2       1 UNK         0.0000 
     14 C14         3.9785   53.2301   18.0978 C.3       1 UNK         0.0000 
     15 H15         3.3167   52.3896   17.8715 H         1 UNK         0.0000 
     16 C16         3.3059   54.5428   17.6491 C.3       1 UNK         0.0000 
     17 N17         5.2211   52.8967   17.2920 N.4       1 UNK         0.0000 
     18 C18         6.4584   53.8245   17.1856 C.3       1 UNK         0.0000 
     19 C19         7.6902   52.9012   17.0254 C.3       1 UNK         0.0000 
     20 C20         9.0828   53.5337   17.2688 C.3       1 UNK         0.0000 
     21 C21         9.1764   54.6231   18.3655 C.3       1 UNK         0.0000 
     22 C22         9.1380   56.0804   17.8487 C.3       1 UNK         0.0000 
     23 C23         7.8158   56.5926   17.2297 C.3       1 UNK         0.0000 
     24 C24         7.3852   55.9104   15.9078 C.3       1 UNK         0.0000 
     25 C25         6.2688   54.8496   16.0431 C.3       1 UNK         0.0000 
     26 C26         3.7024   54.3065   25.4975 C.3       1 UNK         0.0000 
     27 N27         3.0398   53.6026   26.6061 N.3       1 UNK         0.0000 
     28 C28         1.5950   53.4985   26.3684 C.3       1 UNK         0.0000 
     29 C29         1.1883   52.7504   25.0762 C.3       1 UNK         0.0000 
     30 C30         3.3103   54.3495   27.8471 C.3       1 UNK         0.0000 
     31 C31         2.9407   53.5939   29.1198 C.ar      1 UNK         0.0000 
     32 C32         1.6358   53.6368   29.6256 C.ar      1 UNK         0.0000 
     33 C33         1.2962   52.8837   30.7469 C.ar      1 UNK         0.0000 
     34 C34         2.2707   52.1103   31.3742 C.ar      1 UNK         0.0000 
     35 C35         3.5789   52.0966   30.8955 C.ar      1 UNK         0.0000 
     36 C36         3.9044   52.8032   29.7444 C.ar      1 UNK         0.0000 
     37 H37        -3.5737   51.3631   23.1131 H         1 UNK         0.0000 
     38 H38        -2.3110   51.2981   24.3398 H         1 UNK         0.0000 
     39 H39        -2.7328   52.8384   23.5892 H         1 UNK         0.0000 
     40 H40        -1.8820   51.9964   21.3768 H         1 UNK         0.0000 
     41 H41        -1.4644   50.4526   22.1167 H         1 UNK         0.0000 
     42 H42         2.4050   52.5826   19.9399 H         1 UNK         0.0000 
     43 H43         2.3098   54.6413   18.0816 H         1 UNK         0.0000 
     44 H44         3.8764   55.4237   17.9482 H         1 UNK         0.0000 
     45 H45         3.1679   54.5712   16.5678 H         1 UNK         0.0000 
     46 H46         4.9162   52.6850   16.3534 H         1 UNK         0.0000 
     47 H47         6.4926   54.3391   18.1387 H         1 UNK         0.0000 
     48 H48         7.6791   52.4449   16.0342 H         1 UNK         0.0000 
     49 H49         7.5895   52.0545   17.7044 H         1 UNK         0.0000 
     50 H50         9.4930   53.9116   16.3325 H         1 UNK         0.0000 
     51 H51         9.7621   52.7226   17.5398 H         1 UNK         0.0000 
     52 H52        10.1324   54.4968   18.8765 H         1 UNK         0.0000 
     53 H53         8.4371   54.4690   19.1519 H         1 UNK         0.0000 
     54 H54         9.9462   56.2254   17.1300 H         1 UNK         0.0000 
     55 H55         9.3892   56.7345   18.6856 H         1 UNK         0.0000 
     56 H56         7.9506   57.6561   17.0255 H         1 UNK         0.0000 
     57 H57         7.0121   56.5619   17.9666 H         1 UNK         0.0000 
     58 H58         8.2503   55.4939   15.3929 H         1 UNK         0.0000 
     59 H59         7.0206   56.6817   15.2272 H         1 UNK         0.0000 
     60 H60         5.3366   55.3910   16.1825 H         1 UNK         0.0000 
     61 H61         6.1591   54.3276   15.0912 H         1 UNK         0.0000 
     62 H62         4.7824   54.2526   25.6478 H         1 UNK         0.0000 
     63 H63         3.4185   55.3585   25.4775 H         1 UNK         0.0000 
     64 H64         1.1004   52.9914   27.1957 H         1 UNK         0.0000 
     65 H65         1.1733   54.4966   26.3700 H         1 UNK         0.0000 
     66 H66         0.1405   52.9725   24.8856 H         1 UNK         0.0000 
     67 H67         1.1923   51.6804   25.2865 H         1 UNK         0.0000 
     68 H68         4.3776   54.5737   27.8993 H         1 UNK         0.0000 
     69 H69         2.7881   55.3074   27.8342 H         1 UNK         0.0000 
     70 H70         0.8804   54.2403   29.1434 H         1 UNK         0.0000 
     71 H71         0.2869   52.8992   31.1361 H         1 UNK         0.0000 
     72 H72         2.0132   51.5486   32.2604 H         1 UNK         0.0000 
     73 H73         4.3345   51.5135   31.4010 H         1 UNK         0.0000 
     74 H74         4.9092   52.7501   29.3483 H         1 UNK         0.0000 
     75 H75         5.5042   51.9890   17.6817 H         1 UNK         0.0000 
@<TRIPOS>BOND
     1    1    2 1    
     2    1   37 1    
     3    1   38 1    
     4    1   39 1    
     5    2    3 1    
     6    2   40 1    
     7    2   41 1    
     8    3    4 1    
     9    4    5 2    
    10    4    6 1    
    11    6   10 2    
    12    6    7 1    
    13    7   29 1    
    14    7    8 2    
    15    8    9 1    
    16    8   26 1    
    17    9   10 1    
    18   10   11 am   BACKBONE|DICT|INTERRES
    19   11   12 am   BACKBONE|DICT|INTERRES
    20   11   42 1    
    21   12   13 2    
    22   12   14 1    
    23   14   15 1    
    24   14   16 1    
    25   14   17 1    
    26   16   43 1    
    27   16   44 1    
    28   16   45 1    
    29   17   18 1    
    30   17   46 1    
    31   17   75 1    
    32   18   25 1    
    33   18   19 1    
    34   18   47 1    
    35   19   20 1    
    36   19   48 1    
    37   19   49 1    
    38   20   21 1    
    39   20   50 1    
    40   20   51 1    
    41   21   22 1    
    42   21   52 1    
    43   21   53 1    
    44   22   23 1    
    45   22   54 1    
    46   22   55 1    
    47   23   24 1    
    48   23   56 1    
    49   23   57 1    
    50   24   25 1    
    51   24   58 1    
    52   24   59 1    
    53   25   60 1    
    54   25   61 1    
    55   26   27 1    
    56   26   62 1    
    57   26   63 1    
    58   27   28 1    
    59   27   30 1    
    60   28   29 1    
    61   28   64 1    
    62   28   65 1    
    63   29   66 1    
    64   29   67 1    
    65   30   31 1    
    66   30   68 1    
    67   30   69 1    
    68   31   36 ar   
    69   31   32 ar   
    70   32   33 ar   
    71   32   70 1    
    72   33   34 ar   
    73   33   71 1    
    74   34   35 ar   
    75   34   72 1    
    76   35   36 ar   
    77   35   73 1    
    78   36   74 1    
@<TRIPOS>SUBSTRUCTURE
     1 UNK         1 GROUP             0       ****    0 ROOT    
