@<TRIPOS>MOLECULE
ZINC62353513_1916
27   28    1
SMALL
USER_CHARGES


@<TRIPOS>ATOM
      1 C1          6.3024   54.8961   27.6947 C.3       1 UNK         0.0000 
      2 C2          5.4962   54.5407   26.4574 C.ar      1 UNK         0.0000 
      3 C3          6.1281   54.7052   25.2220 C.ar      1 UNK         0.0000 
      4 C4          5.4360   54.4967   24.0363 C.ar      1 UNK         0.0000 
      5 C5          4.1024   54.1018   24.0692 C.ar      1 UNK         0.0000 
      6 C6          3.4513   53.9249   25.2899 C.ar      1 UNK         0.0000 
      7 C7          4.1415   54.1360   26.5029 C.ar      1 UNK         0.0000 
      8 N8          3.4160   54.0055   27.7082 N.am      1 UNK         0.0000 
      9 C9          3.6873   53.1725   28.7364 C.2       1 UNK         0.0000 
     10 O10         4.7514   52.5665   28.8813 O.2       1 UNK         0.0000 
     11 C11         2.5901   53.0113   29.6736 C.2       1 UNK         0.0000 
     12 C12         1.2531   53.4140   29.5035 C.2       1 UNK         0.0000 
     13 S13         0.3041   52.9059   30.8675 S.3       1 UNK         0.0000 
     14 C14         1.7384   52.2010   31.5196 C.2       1 UNK         0.0000 
     15 N15         2.8183   52.3387   30.7935 N.2       1 UNK         0.0000 
     16 N16         2.1085   53.5330   25.2563 N.pl3     1 UNK         0.0000 
     17 Br17        6.3054   54.8140   22.3752 Br        1 UNK         0.0000 
     18 H18         7.0189   55.6812   27.4618 H         1 UNK         0.0000 
     19 H19         5.6736   55.2915   28.4926 H         1 UNK         0.0000 
     20 H20         6.8468   54.0285   28.0679 H         1 UNK         0.0000 
     21 H21         7.1581   55.0253   25.1696 H         1 UNK         0.0000 
     22 H22         3.5758   53.9497   23.1382 H         1 UNK         0.0000 
     23 H23         2.4918   54.4059   27.6867 H         1 UNK         0.0000 
     24 H24         0.7844   53.9391   28.6835 H         1 UNK         0.0000 
     25 H25         1.7169   51.6968   32.4751 H         1 UNK         0.0000 
     26 H26         1.7170   53.4432   24.3297 H         1 UNK         0.0000 
     27 H27         1.8667   52.8026   25.9100 H         1 UNK         0.0000 
@<TRIPOS>BOND
     1    1    2 1    
     2    1   18 1    
     3    1   19 1    
     4    1   20 1    
     5    2    7 ar   
     6    2    3 ar   
     7    3    4 ar   
     8    3   21 1    
     9    4    5 ar   
    10    4   17 1    
    11    5    6 ar   
    12    5   22 1    
    13    6    7 ar   
    14    6   16 1    
    15    7    8 1    
    16    8    9 am   BACKBONE|DICT|INTERRES
    17    8   23 1    
    18    9   10 2    
    19    9   11 1    
    20   11   15 1    
    21   11   12 2    
    22   12   13 1    
    23   12   24 1    
    24   13   14 1    
    25   14   15 2    
    26   14   25 1    
    27   16   26 1    
    28   16   27 1    
@<TRIPOS>SUBSTRUCTURE
     1 UNK         1 GROUP             0       ****    0 ROOT    
