@<TRIPOS>MOLECULE
ZINC02250282_5973
56   60    1
SMALL
USER_CHARGES


@<TRIPOS>ATOM
      1 C1          3.0210   53.2301   17.5040 C.3       1 UNK         0.0000 
      2 O2          3.8186   54.3804   17.7611 O.3       1 UNK         0.0000 
      3 C3          3.4973   55.6026   17.2005 C.ar      1 UNK         0.0000 
      4 C4          2.3914   55.7658   16.3454 C.ar      1 UNK         0.0000 
      5 C5          2.1016   57.0010   15.7727 C.ar      1 UNK         0.0000 
      6 C6          2.9169   58.0943   16.0367 C.ar      1 UNK         0.0000 
      7 C7          4.0128   57.9528   16.8815 C.ar      1 UNK         0.0000 
      8 C8          4.3135   56.7227   17.4857 C.ar      1 UNK         0.0000 
      9 C9          5.4663   56.7259   18.4273 C.2       1 UNK         0.0000 
     10 C10         5.8914   55.7403   19.2521 C.2       1 UNK         0.0000 
     11 C11         7.0225   55.9048   20.1552 C.2       1 UNK         0.0000 
     12 O12         7.9903   56.4966   19.6817 O.2       1 UNK         0.0000 
     13 N13         7.1043   55.4883   21.4179 N.2       1 UNK         0.0000 
     14 C14         6.1724   54.8966   22.0626 C.ar      1 UNK         0.0000 
     15 N15         5.0208   54.4660   21.6812 N.2       1 UNK         0.0000 
     16 N16         4.3892   53.9190   22.7661 N.pl3     1 UNK         0.0000 
     17 C17         2.9368   53.6582   22.7515 C.3       1 UNK         0.0000 
     18 H18         2.4686   54.5520   22.3359 H         1 UNK         0.0000 
     19 C19         2.4149   53.5218   24.1961 C.2       1 UNK         0.0000 
     20 C20         3.2348   53.7336   25.2711 C.2       1 UNK         0.0000 
     21 N21         4.5598   54.0968   25.1447 N.2       1 UNK         0.0000 
     22 C22         5.0501   54.1802   23.9633 C.ar      1 UNK         0.0000 
     23 N23         6.2936   54.6158   23.4656 N.pl3     1 UNK         0.0000 
     24 C24         2.7408   53.5389   26.6714 C.ar      1 UNK         0.0000 
     25 C25         1.6657   52.6717   26.9331 C.ar      1 UNK         0.0000 
     26 C26         1.1962   52.4763   28.2267 C.ar      1 UNK         0.0000 
     27 C27         1.7899   53.1556   29.2829 C.ar      1 UNK         0.0000 
     28 C28         2.8497   54.0308   29.0527 C.ar      1 UNK         0.0000 
     29 C29         3.3203   54.2188   27.7547 C.ar      1 UNK         0.0000 
     30 Cl30        1.2008   52.8966   30.8817 Cl        1 UNK         0.0000 
     31 C31         2.4400   52.5185   21.8415 C.ar      1 UNK         0.0000 
     32 C32         1.0621   52.2888   21.7361 C.ar      1 UNK         0.0000 
     33 C33         0.5715   51.2707   20.9237 C.ar      1 UNK         0.0000 
     34 C34         1.4573   50.4795   20.2003 C.ar      1 UNK         0.0000 
     35 C35         2.8279   50.7018   20.2818 C.ar      1 UNK         0.0000 
     36 C36         3.3207   51.7149   21.1016 C.ar      1 UNK         0.0000 
     37 F37         0.9799   49.4903   19.4121 F         1 UNK         0.0000 
     38 H38         3.4711   52.3692   17.9982 H         1 UNK         0.0000 
     39 H39         2.0111   53.3510   17.8987 H         1 UNK         0.0000 
     40 H40         2.9713   53.0018   16.4383 H         1 UNK         0.0000 
     41 H41         1.7396   54.9391   16.1103 H         1 UNK         0.0000 
     42 H42         1.2468   57.1096   15.1219 H         1 UNK         0.0000 
     43 H43         2.6976   59.0581   15.5996 H         1 UNK         0.0000 
     44 H44         4.6155   58.8297   17.0799 H         1 UNK         0.0000 
     45 H45         6.0199   57.6564   18.4508 H         1 UNK         0.0000 
     46 H46         5.4180   54.7770   19.2940 H         1 UNK         0.0000 
     47 H47         1.3738   53.2894   24.3508 H         1 UNK         0.0000 
     48 H48         7.0732   54.9033   24.0312 H         1 UNK         0.0000 
     49 H49         1.1976   52.1096   26.1392 H         1 UNK         0.0000 
     50 H50         0.3786   51.7929   28.4082 H         1 UNK         0.0000 
     51 H51         3.3123   54.5629   29.8698 H         1 UNK         0.0000 
     52 H52         4.1447   54.8973   27.5899 H         1 UNK         0.0000 
     53 H53         0.3634   52.8970   22.2889 H         1 UNK         0.0000 
     54 H54        -0.4907   51.0934   20.8511 H         1 UNK         0.0000 
     55 H55         3.5044   50.0970   19.6960 H         1 UNK         0.0000 
     56 H56         4.3881   51.8748   21.1435 H         1 UNK         0.0000 
@<TRIPOS>BOND
     1    1    2 1    
     2    1   38 1    
     3    1   39 1    
     4    1   40 1    
     5    2    3 1    
     6    3    8 ar   
     7    3    4 ar   
     8    4    5 ar   
     9    4   41 1    
    10    5    6 ar   
    11    5   42 1    
    12    6    7 ar   
    13    6   43 1    
    14    7    8 ar   
    15    7   44 1    
    16    8    9 1    
    17    9   10 2    
    18    9   45 1    
    19   10   11 1    
    20   10   46 1    
    21   11   12 2    
    22   11   13 1    
    23   13   14 1    
    24   14   23 ar   
    25   14   15 ar   
    26   15   16 ar   
    27   16   22 ar   
    28   16   17 1    
    29   17   18 1    
    30   17   19 1    
    31   17   31 1    
    32   19   20 2    
    33   19   47 1    
    34   20   21 1    
    35   20   24 1    
    36   21   22 2    
    37   22   23 ar   
    38   23   48 1    
    39   24   29 ar   
    40   24   25 ar   
    41   25   26 ar   
    42   25   49 1    
    43   26   27 ar   
    44   26   50 1    
    45   27   28 ar   
    46   27   30 1    
    47   28   29 ar   
    48   28   51 1    
    49   29   52 1    
    50   31   36 ar   
    51   31   32 ar   
    52   32   33 ar   
    53   32   53 1    
    54   33   34 ar   
    55   33   54 1    
    56   34   35 ar   
    57   34   37 1    
    58   35   36 ar   
    59   35   55 1    
    60   36   56 1    
@<TRIPOS>SUBSTRUCTURE
     1 UNK         1 GROUP             0       ****    0 ROOT    
