@<TRIPOS>MOLECULE
ZINC54430854_2567
47   48    1
SMALL
USER_CHARGES


@<TRIPOS>ATOM
      1 C1          4.8614   54.3342   20.1921 C.3       1 UNK         0.0000 
      2 C2          5.0676   54.3993   21.7017 C.ar      1 UNK         0.0000 
      3 C3          6.2986   54.8486   22.1943 C.ar      1 UNK         0.0000 
      4 C4          6.5416   54.8933   23.5651 C.ar      1 UNK         0.0000 
      5 C5          5.5598   54.5004   24.4785 C.ar      1 UNK         0.0000 
      6 C6          4.3105   54.0971   23.9848 C.ar      1 UNK         0.0000 
      7 C7          4.0570   54.0114   22.6038 C.ar      1 UNK         0.0000 
      8 N8          2.8240   53.5579   22.0833 N.am      1 UNK         0.0000 
      9 C9          1.9143   52.7496   22.6703 C.2       1 UNK         0.0000 
     10 O10         2.0221   52.2566   23.7936 O.2       1 UNK         0.0000 
     11 N11         0.8730   52.4972   21.8550 N.am      1 UNK         0.0000 
     12 C12        -0.1151   51.4164   22.0203 C.3       1 UNK         0.0000 
     13 H13        -0.7812   51.5355   21.1647 H         1 UNK         0.0000 
     14 C14         0.5320   50.0206   21.8723 C.3       1 UNK         0.0000 
     15 C15        -0.9825   51.5610   23.2764 C.2       1 UNK         0.0000 
     16 C16        -1.2365   52.6802   24.0666 C.2       1 UNK         0.0000 
     17 C17        -2.0751   52.4532   25.1594 C.2       1 UNK         0.0000 
     18 C18        -2.5168   51.1442   25.2692 C.2       1 UNK         0.0000 
     19 S19        -1.8811   50.2186   23.9436 S.3       1 UNK         0.0000 
     20 C20        -3.3989   50.5104   26.3177 C.3       1 UNK         0.0000 
     21 C21         5.8471   54.5402   25.9592 C.2       1 UNK         0.0000 
     22 O22         6.7060   55.2976   26.4125 O.2       1 UNK         0.0000 
     23 N23         5.1365   53.6968   26.7281 N.am      1 UNK         0.0000 
     24 C24         5.1976   53.5976   28.1905 C.3       1 UNK         0.0000 
     25 C25         3.8124   53.7278   28.8561 C.3       1 UNK         0.0000 
     26 F26         2.9891   52.7619   28.4479 F         1 UNK         0.0000 
     27 F27         3.2362   54.8961   28.5692 F         1 UNK         0.0000 
     28 F28         3.9034   53.6431   30.1821 F         1 UNK         0.0000 
     29 H29         5.7062   54.7474   19.6393 H         1 UNK         0.0000 
     30 H30         4.7140   53.3005   19.8745 H         1 UNK         0.0000 
     31 H31         3.9695   54.8957   19.9036 H         1 UNK         0.0000 
     32 H32         7.0811   55.1541   21.5155 H         1 UNK         0.0000 
     33 H33         7.5019   55.2368   23.9127 H         1 UNK         0.0000 
     34 H34         3.5304   53.8436   24.6836 H         1 UNK         0.0000 
     35 H35         2.6463   53.8178   21.1213 H         1 UNK         0.0000 
     36 H36         0.7514   53.0970   21.0512 H         1 UNK         0.0000 
     37 H37        -0.2196   49.2388   21.7563 H         1 UNK         0.0000 
     38 H38         1.1795   49.9747   20.9949 H         1 UNK         0.0000 
     39 H39         1.1434   49.7691   22.7418 H         1 UNK         0.0000 
     40 H40        -0.7971   53.6473   23.8647 H         1 UNK         0.0000 
     41 H41        -2.3440   53.2236   25.8680 H         1 UNK         0.0000 
     42 H42        -2.8778   49.7069   26.8440 H         1 UNK         0.0000 
     43 H43        -3.7184   51.2284   27.0738 H         1 UNK         0.0000 
     44 H44        -4.2993   50.0767   25.8795 H         1 UNK         0.0000 
     45 H45         4.5944   52.9863   26.2550 H         1 UNK         0.0000 
     46 H46         5.8685   54.3477   28.6198 H         1 UNK         0.0000 
     47 H47         5.6330   52.6312   28.4518 H         1 UNK         0.0000 
@<TRIPOS>BOND
     1    1    2 1    
     2    1   29 1    
     3    1   30 1    
     4    1   31 1    
     5    2    7 ar   
     6    2    3 ar   
     7    3    4 ar   
     8    3   32 1    
     9    4    5 ar   
    10    4   33 1    
    11    5    6 ar   
    12    5   21 1    
    13    6    7 ar   
    14    6   34 1    
    15    7    8 1    
    16    8    9 am   BACKBONE|DICT|INTERRES
    17    8   35 1    
    18    9   10 2    
    19    9   11 am   BACKBONE|DICT|INTERRES
    20   11   12 1    
    21   11   36 1    
    22   12   13 1    
    23   12   14 1    
    24   12   15 1    
    25   14   37 1    
    26   14   38 1    
    27   14   39 1    
    28   15   19 1    
    29   15   16 2    
    30   16   17 1    
    31   16   40 1    
    32   17   18 2    
    33   17   41 1    
    34   18   19 1    
    35   18   20 1    
    36   20   42 1    
    37   20   43 1    
    38   20   44 1    
    39   21   22 2    
    40   21   23 am   BACKBONE|DICT|INTERRES
    41   23   24 1    
    42   23   45 1    
    43   24   25 1    
    44   24   46 1    
    45   24   47 1    
    46   25   26 1    
    47   25   27 1    
    48   25   28 1    
@<TRIPOS>SUBSTRUCTURE
     1 UNK         1 GROUP             0       ****    0 ROOT    
