ZINC63709806_406
                    3D
 Schrodinger Suite 2024-2.
 68 72  0  0  1  0            999 V2000
    5.0268   54.4979   29.2706 C   0  0  0  0  0  0
    3.7916   54.0100   29.7824 O   0  0  0  0  0  0
    2.8587   53.4792   28.9076 C   0  0  0  0  0  0
    3.0302   53.4621   27.5151 C   0  0  0  0  0  0
    2.0519   52.9212   26.6894 C   0  0  0  0  0  0
    0.8854   52.3581   27.2115 C   0  0  0  0  0  0
    0.7024   52.3917   28.6047 C   0  0  0  0  0  0
    1.6771   52.9544   29.4535 C   0  0  0  0  0  0
    1.5498   53.0301   30.8273 O   0  0  0  0  0  0
    0.3025   52.7334   31.4414 C   0  0  0  0  0  0
   -0.1513   51.7803   26.2282 C   0  0  2  0  0  0
   -0.5531   52.6727   25.7527 H   0  0  0  0  0  0
   -1.3235   50.9838   26.8754 C   0  0  0  0  0  0
   -2.3556   50.4411   25.8497 C   0  0  2  0  0  0
   -2.9881   49.7258   26.3785 H   0  0  0  0  0  0
   -1.5640   49.6491   24.8961 N   0  0  0  0  0  0
   -0.5010   50.4009   24.2424 C   0  0  1  0  0  0
   -0.9587   51.2432   23.7221 H   0  0  0  0  0  0
    0.4722   50.9489   25.1813 N   0  0  0  0  0  0
    0.0658   49.3665   23.2398 C   0  0  1  0  0  0
    1.0170   48.9197   23.5334 H   0  0  0  0  0  0
   -1.0585   48.3068   23.2056 C   0  0  0  0  0  0
   -2.2113   48.9391   23.8293 N   0  0  0  0  0  0
    0.2084   50.0706   21.8684 C   0  0  0  0  0  0
   -0.7528   50.6122   21.3185 O   0  0  0  0  0  0
    1.4359   50.0605   21.3224 N   0  0  0  0  0  0
    1.8027   50.7281   20.0715 C   0  0  0  0  0  0
    1.8388   52.2724   20.1604 C   0  0  0  0  0  0
    2.7460   52.8411   21.2405 C   0  0  0  0  0  0
    3.9160   53.4992   21.1402 C   0  0  0  0  0  0
    4.7080   53.8876   19.9616 C   0  0  0  0  0  0
    5.8527   54.5870   20.1038 C   0  0  0  0  0  0
    6.3039   54.8967   21.4560 C   0  0  0  0  0  0
    5.6052   54.4974   22.5529 C   0  0  0  0  0  0
    4.3720   53.8529   22.4104 C   0  0  0  0  0  0
    3.5058   53.5070   23.3264 N   0  3  0  0  0  0
    2.3661   52.8130   22.7070 C   0  0  0  0  0  0
   -3.3026   51.5300   25.2519 C   0  0  0  0  0  0
   -3.9974   52.1078   26.2350 F   0  0  0  0  0  0
   -2.6783   52.5161   24.6027 F   0  0  0  0  0  0
   -4.1990   51.0076   24.4138 F   0  0  0  0  0  0
    5.6180   54.9165   30.0831 H   0  0  0  0  0  0
    5.6109   53.6986   28.8148 H   0  0  0  0  0  0
    4.8793   55.2875   28.5331 H   0  0  0  0  0  0
    3.9179   53.8622   27.0513 H   0  0  0  0  0  0
    2.2056   52.9187   25.6227 H   0  0  0  0  0  0
   -0.1890   51.9707   29.0413 H   0  0  0  0  0  0
    0.3825   52.8927   32.5152 H   0  0  0  0  0  0
   -0.4940   53.3773   31.0763 H   0  0  0  0  0  0
    0.0055   51.6969   31.2907 H   0  0  0  0  0  0
   -1.8349   51.5531   27.6493 H   0  0  0  0  0  0
   -0.8560   50.1280   27.3600 H   0  0  0  0  0  0
    0.9004   50.1582   25.6395 H   0  0  0  0  0  0
   -1.3323   47.9884   22.1986 H   0  0  0  0  0  0
   -0.7690   47.4250   23.7809 H   0  0  0  0  0  0
   -2.7350   48.2043   24.2866 H   0  0  0  0  0  0
    2.1706   49.5506   21.7880 H   0  0  0  0  0  0
    1.1312   50.4139   19.2691 H   0  0  0  0  0  0
    2.7969   50.3711   19.7944 H   0  0  0  0  0  0
    0.8302   52.6661   20.3168 H   0  0  0  0  0  0
    2.1467   52.6732   19.1941 H   0  0  0  0  0  0
    4.3903   53.6393   18.9562 H   0  0  0  0  0  0
    6.4363   54.8810   19.2427 H   0  0  0  0  0  0
    7.2483   55.4060   21.5905 H   0  0  0  0  0  0
    6.0042   54.7292   23.5285 H   0  0  0  0  0  0
    2.3124   51.8100   23.1330 H   0  0  0  0  0  0
    1.4552   53.3669   22.9406 H   0  0  0  0  0  0
    3.6099   53.6608   24.3250 H   0  0  0  0  0  0
  1  2  1  0  0  0
  1 42  1  0  0  0
  1 43  1  0  0  0
  1 44  1  0  0  0
  2  3  1  0  0  0
  3  8  2  0  0  0
  3  4  1  0  0  0
  4  5  2  0  0  0
  4 45  1  0  0  0
  5  6  1  0  0  0
  5 46  1  0  0  0
  6  7  2  0  0  0
  6 11  1  0  0  0
  7  8  1  0  0  0
  7 47  1  0  0  0
  8  9  1  0  0  0
  9 10  1  0  0  0
 10 48  1  0  0  0
 10 49  1  0  0  0
 10 50  1  0  0  0
 11 12  1  0  0  0
 11 19  1  0  0  0
 11 13  1  0  0  0
 13 14  1  0  0  0
 13 51  1  0  0  0
 13 52  1  0  0  0
 14 15  1  0  0  0
 14 16  1  0  0  0
 14 38  1  0  0  0
 16 23  1  0  0  0
 16 17  1  0  0  0
 17 18  1  0  0  0
 17 19  1  0  0  0
 17 20  1  0  0  0
 19 53  1  0  0  0
 20 21  1  0  0  0
 20 22  1  0  0  0
 20 24  1  0  0  0
 22 23  1  0  0  0
 22 54  1  0  0  0
 22 55  1  0  0  0
 23 56  1  0  0  0
 24 25  2  0  0  0
 24 26  1  0  0  0
 26 27  1  0  0  0
 26 57  1  0  0  0
 27 28  1  0  0  0
 27 58  1  0  0  0
 27 59  1  0  0  0
 28 29  1  0  0  0
 28 60  1  0  0  0
 28 61  1  0  0  0
 29 37  1  0  0  0
 29 30  2  0  0  0
 30 35  1  0  0  0
 30 31  1  0  0  0
 31 32  2  0  0  0
 31 62  1  0  0  0
 32 33  1  0  0  0
 32 63  1  0  0  0
 33 34  2  0  0  0
 33 64  1  0  0  0
 34 35  1  0  0  0
 34 65  1  0  0  0
 35 36  2  0  0  0
 36 37  1  0  0  0
 36 68  1  0  0  0
 37 66  1  0  0  0
 37 67  1  0  0  0
 38 39  1  0  0  0
 38 40  1  0  0  0
 38 41  1  0  0  0
M  CHG  1  36   1
M  END
> <i_i_glide_confnum>
60

> <i_i_glide_lignum>
407

> <i_i_glide_posenum>
155

> <i_i_glide_rotatable_bonds>
9

> <i_m_Source_File_Index>
108

> <b_m_subgroup_collapsed>
0

> <r_i_docking_score>
-5.00155

> <r_i_glide_ecoul>
-7.52695

> <r_i_glide_eff_state_penalty>
0

> <r_i_glide_einternal>
1.98984

> <r_i_glide_emodel>
-63.797

> <r_i_glide_energy>
-46.8976

> <r_i_glide_erotb>
0.381917

> <r_i_glide_esite>
-0.0516675

> <r_i_glide_evdw>
-39.3706

> <r_i_glide_gscore>
-5.00155

> <r_i_glide_hbond>
-0.247253

> <r_i_glide_ligand_efficiency>
-0.135177

> <r_i_glide_ligand_efficiency_ln>
-1.08472

> <r_i_glide_ligand_efficiency_sa>
-0.45044

> <r_i_glide_lipo>
-1.86303

> <r_i_glide_metal>
0

> <r_i_glide_rewards>
-0.123946

> <s_i_glide_gridfile>
wee1_glide-grid

> <s_m_Source_File>
wee1_decoys_glide_SP.sdf

> <s_m_Source_Path>
/Users/zhangxujun/Desktop

> <s_m_entry_id>
383

> <s_m_entry_name>
wee1_decoys_glide_SP.108

> <s_m_subgroup_title>
wee1_decoys_glide_SP

> <s_m_subgroupid>
wee1_decoys_glide_SP


$$$$
