ZINC12561014_2659
                    3D
 Schrodinger Suite 2024-2.
 45 48  0  0  1  0            999 V2000
    3.0105   54.0110   28.5989 C   0  0  0  0  0  0
    4.1996   54.1793   29.3035 C   0  0  0  0  0  0
    5.3863   54.4267   28.6207 C   0  0  0  0  0  0
    5.3900   54.4965   27.2304 C   0  0  0  0  0  0
    4.2003   54.3135   26.4975 C   0  0  0  0  0  0
    3.0167   54.0747   27.2052 C   0  0  0  0  0  0
    4.2314   54.3056   24.9744 C   0  0  0  0  0  0
    5.5726   54.8703   24.4481 C   0  0  1  0  0  0
    5.5429   55.9583   24.4833 H   0  0  0  0  0  0
    6.7518   54.3798   25.3003 C   0  0  0  0  0  0
    6.5985   54.8252   26.6454 O   0  0  0  0  0  0
    5.8292   54.4971   22.9685 C   0  0  0  0  0  0
    5.2549   53.5396   22.4492 O   0  0  0  0  0  0
    6.7045   55.2964   22.3197 N   0  0  0  0  0  0
    7.0163   55.2964   20.9523 C   0  0  0  0  0  0
    8.3044   55.6969   20.6079 C   0  0  0  0  0  0
    8.7046   55.6936   19.2772 C   0  0  0  0  0  0
    7.8238   55.2679   18.2875 C   0  0  0  0  0  0
    6.5285   54.8660   18.6174 C   0  0  0  0  0  0
    6.1173   54.8978   19.9496 C   0  0  0  0  0  0
    8.3864   55.2548   16.5925 S   0  0  0  0  0  0
    7.4026   54.5322   15.7804 O   0  0  0  0  0  0
    8.7764   56.6328   16.2768 O   0  0  0  0  0  0
    9.8878   54.3183   16.6155 N   0  0  0  0  0  0
   10.0037   52.9584   16.4765 C   0  0  0  0  0  0
   11.0983   52.3782   16.0538 N   0  0  0  0  0  0
   10.9789   51.0646   16.0140 C   0  0  0  0  0  0
    9.7560   50.5456   16.4273 C   0  0  0  0  0  0
    8.7105   51.8620   16.8814 S   0  0  0  0  0  0
    2.0866   53.8178   29.1263 H   0  0  0  0  0  0
    4.2089   54.1233   30.3825 H   0  0  0  0  0  0
    6.3041   54.5627   29.1713 H   0  0  0  0  0  0
    2.0912   53.9219   26.6668 H   0  0  0  0  0  0
    4.0345   53.2938   24.6246 H   0  0  0  0  0  0
    3.4063   54.9323   24.6330 H   0  0  0  0  0  0
    7.7024   54.7697   24.9357 H   0  0  0  0  0  0
    6.8004   53.2958   25.3092 H   0  0  0  0  0  0
    7.3006   55.8741   22.8936 H   0  0  0  0  0  0
    9.0124   56.0060   21.3648 H   0  0  0  0  0  0
    9.7077   56.0055   19.0185 H   0  0  0  0  0  0
    5.8396   54.5360   17.8509 H   0  0  0  0  0  0
    5.1088   54.5924   20.1894 H   0  0  0  0  0  0
   10.7090   54.8921   16.7165 H   0  0  0  0  0  0
   11.8154   50.4735   15.6687 H   0  0  0  0  0  0
    9.4389   49.5160   16.4843 H   0  0  0  0  0  0
  1  6  2  0  0  0
  1  2  1  0  0  0
  1 30  1  0  0  0
  2  3  2  0  0  0
  2 31  1  0  0  0
  3  4  1  0  0  0
  3 32  1  0  0  0
  4 11  1  0  0  0
  4  5  2  0  0  0
  5  6  1  0  0  0
  5  7  1  0  0  0
  6 33  1  0  0  0
  7  8  1  0  0  0
  7 34  1  0  0  0
  7 35  1  0  0  0
  8  9  1  0  0  0
  8 10  1  0  0  0
  8 12  1  0  0  0
 10 11  1  0  0  0
 10 36  1  0  0  0
 10 37  1  0  0  0
 12 13  2  0  0  0
 12 14  1  0  0  0
 14 15  1  0  0  0
 14 38  1  0  0  0
 15 20  2  0  0  0
 15 16  1  0  0  0
 16 17  2  0  0  0
 16 39  1  0  0  0
 17 18  1  0  0  0
 17 40  1  0  0  0
 18 19  2  0  0  0
 18 21  1  0  0  0
 19 20  1  0  0  0
 19 41  1  0  0  0
 20 42  1  0  0  0
 21 22  2  0  0  0
 21 23  2  0  0  0
 21 24  1  0  0  0
 24 25  1  0  0  0
 24 43  1  0  0  0
 25 29  1  0  0  0
 25 26  2  0  0  0
 26 27  1  0  0  0
 27 28  2  0  0  0
 27 44  1  0  0  0
 28 29  1  0  0  0
 28 45  1  0  0  0
M  END
> <i_i_glide_confnum>
7

> <i_i_glide_lignum>
2660

> <i_i_glide_posenum>
240

> <i_i_glide_rotatable_bonds>
6

> <i_m_Source_File_Index>
2992

> <b_m_subgroup_collapsed>
0

> <r_i_docking_score>
-5.01478

> <r_i_glide_ecoul>
-1.73898

> <r_i_glide_eff_state_penalty>
0

> <r_i_glide_einternal>
4.07799

> <r_i_glide_emodel>
-54.0232

> <r_i_glide_energy>
-44.0791

> <r_i_glide_erotb>
0.686342

> <r_i_glide_esite>
0

> <r_i_glide_evdw>
-42.3402

> <r_i_glide_gscore>
-5.01478

> <r_i_glide_hbond>
-0.116327

> <r_i_glide_ligand_efficiency>
-0.179099

> <r_i_glide_ligand_efficiency_ln>
-1.15756

> <r_i_glide_ligand_efficiency_sa>
-0.543851

> <r_i_glide_lipo>
-3.05749

> <r_i_glide_metal>
0

> <r_i_glide_rewards>
-0.149447

> <s_i_glide_gridfile>
wee1_glide-grid

> <s_m_Source_File>
wee1_decoys_glide_SP.sdf

> <s_m_Source_Path>
/Users/zhangxujun/Desktop

> <s_m_entry_id>
3267

> <s_m_entry_name>
wee1_decoys_glide_SP.2992

> <s_m_subgroup_title>
wee1_decoys_glide_SP

> <s_m_subgroupid>
wee1_decoys_glide_SP


$$$$
