ZINC20560238_829
                    3D
 Schrodinger Suite 2024-2.
 68 71  0  0  1  0            999 V2000
   -6.1218   53.3583   25.1540 C   0  0  0  0  0  0
   -4.7773   53.6217   25.8500 C   0  0  0  0  0  0
   -3.9021   52.4986   25.7480 O   0  0  0  0  0  0
   -3.1784   52.2744   24.6205 C   0  0  0  0  0  0
   -3.2056   53.0580   23.6728 O   0  0  0  0  0  0
   -2.3978   51.0063   24.6325 C   0  0  0  0  0  0
   -1.6111   50.5738   23.6058 C   0  0  0  0  0  0
   -0.9706   49.3716   23.6811 N   0  0  0  0  0  0
   -1.1649   48.4245   24.6252 C   0  0  0  0  0  0
   -0.7662   47.2737   24.4814 O   0  0  0  0  0  0
   -1.9139   48.8327   25.6815 N   0  0  0  0  0  0
   -2.2969   50.2420   25.9745 C   0  0  1  0  0  0
   -3.2554   50.2314   26.4982 H   0  0  0  0  0  0
   -1.3391   50.8968   26.9916 C   0  0  0  0  0  0
   -1.8133   51.2972   28.2471 C   0  0  0  0  0  0
   -0.9236   51.7221   29.2330 C   0  0  0  0  0  0
    0.4415   51.7770   28.9677 C   0  0  0  0  0  0
    0.9226   51.3536   27.7336 C   0  0  0  0  0  0
    0.0393   50.9335   26.7428 C   0  0  0  0  0  0
    1.4061   52.2651   30.0327 C   0  0  0  0  0  0
   -1.3450   51.2608   22.2546 C   0  0  0  0  0  0
   -0.1346   52.0949   22.1746 N   0  0  0  0  0  0
    1.1063   51.3146   22.0408 C   0  0  0  0  0  0
    2.3932   52.1893   22.0664 C   0  0  0  0  0  0
    2.4029   53.1893   23.1474 N   0  0  0  0  0  0
    1.1620   53.9579   23.1253 C   0  0  0  0  0  0
   -0.0465   53.0348   23.2946 C   0  0  0  0  0  0
    3.5368   53.7175   23.7420 C   0  0  0  0  0  0
    4.6846   53.9613   22.9782 C   0  0  0  0  0  0
    5.8277   54.4916   23.5705 C   0  0  0  0  0  0
    5.8214   54.8240   24.9269 C   0  0  0  0  0  0
    4.6830   54.6023   25.6935 C   0  0  0  0  0  0
    3.5420   54.0496   25.1149 C   0  0  0  0  0  0
    2.3819   53.6976   26.0367 C   0  0  0  0  0  0
    7.0618   55.3635   25.5899 C   0  0  0  0  0  0
   -6.7972   54.2053   25.2759 H   0  0  0  0  0  0
   -5.9942   53.1930   24.0844 H   0  0  0  0  0  0
   -6.6124   52.4775   25.5701 H   0  0  0  0  0  0
   -4.9614   53.8142   26.9008 H   0  0  0  0  0  0
   -4.3056   54.5231   25.4533 H   0  0  0  0  0  0
   -0.3627   49.0784   22.9337 H   0  0  0  0  0  0
   -1.8301   48.2566   26.5184 H   0  0  0  0  0  0
   -2.8648   51.2309   28.4838 H   0  0  0  0  0  0
   -1.2882   52.0155   30.2070 H   0  0  0  0  0  0
    1.9846   51.3412   27.5485 H   0  0  0  0  0  0
    0.4371   50.5882   25.8009 H   0  0  0  0  0  0
    1.5846   53.3333   29.9178 H   0  0  0  0  0  0
    2.3612   51.7425   29.9618 H   0  0  0  0  0  0
    1.0171   52.0841   31.0350 H   0  0  0  0  0  0
   -1.3207   50.4959   21.4757 H   0  0  0  0  0  0
   -2.2043   51.8568   21.9569 H   0  0  0  0  0  0
    1.1968   50.6520   22.9024 H   0  0  0  0  0  0
    1.0924   50.7201   21.1265 H   0  0  0  0  0  0
    2.4410   52.7412   21.1265 H   0  0  0  0  0  0
    3.2854   51.5628   22.1020 H   0  0  0  0  0  0
    1.1066   54.4938   22.1814 H   0  0  0  0  0  0
    1.1591   54.7376   23.8850 H   0  0  0  0  0  0
   -0.9333   53.6630   23.3197 H   0  0  0  0  0  0
    0.0432   52.5259   24.2555 H   0  0  0  0  0  0
    4.6946   53.7290   21.9235 H   0  0  0  0  0  0
    6.7129   54.6555   22.9724 H   0  0  0  0  0  0
    4.6968   54.8333   26.7497 H   0  0  0  0  0  0
    2.6955   53.6212   27.0785 H   0  0  0  0  0  0
    1.5507   54.3969   25.9703 H   0  0  0  0  0  0
    2.0023   52.7213   25.7451 H   0  0  0  0  0  0
    7.0804   56.4496   25.5707 H   0  0  0  0  0  0
    7.1462   55.0068   26.6186 H   0  0  0  0  0  0
    7.9053   54.9710   25.0417 H   0  0  0  0  0  0
  1  2  1  0  0  0
  1 36  1  0  0  0
  1 37  1  0  0  0
  1 38  1  0  0  0
  2  3  1  0  0  0
  2 39  1  0  0  0
  2 40  1  0  0  0
  3  4  1  0  0  0
  4  5  2  0  0  0
  4  6  1  0  0  0
  6 12  1  0  0  0
  6  7  2  0  0  0
  7  8  1  0  0  0
  7 21  1  0  0  0
  8  9  1  0  0  0
  8 41  1  0  0  0
  9 10  2  0  0  0
  9 11  1  0  0  0
 11 12  1  0  0  0
 11 42  1  0  0  0
 12 13  1  0  0  0
 12 14  1  0  0  0
 14 19  2  0  0  0
 14 15  1  0  0  0
 15 16  2  0  0  0
 15 43  1  0  0  0
 16 17  1  0  0  0
 16 44  1  0  0  0
 17 18  2  0  0  0
 17 20  1  0  0  0
 18 19  1  0  0  0
 18 45  1  0  0  0
 19 46  1  0  0  0
 20 47  1  0  0  0
 20 48  1  0  0  0
 20 49  1  0  0  0
 21 22  1  0  0  0
 21 50  1  0  0  0
 21 51  1  0  0  0
 22 27  1  0  0  0
 22 23  1  0  0  0
 23 24  1  0  0  0
 23 52  1  0  0  0
 23 53  1  0  0  0
 24 25  1  0  0  0
 24 54  1  0  0  0
 24 55  1  0  0  0
 25 26  1  0  0  0
 25 28  1  0  0  0
 26 27  1  0  0  0
 26 56  1  0  0  0
 26 57  1  0  0  0
 27 58  1  0  0  0
 27 59  1  0  0  0
 28 33  2  0  0  0
 28 29  1  0  0  0
 29 30  2  0  0  0
 29 60  1  0  0  0
 30 31  1  0  0  0
 30 61  1  0  0  0
 31 32  2  0  0  0
 31 35  1  0  0  0
 32 33  1  0  0  0
 32 62  1  0  0  0
 33 34  1  0  0  0
 34 63  1  0  0  0
 34 64  1  0  0  0
 34 65  1  0  0  0
 35 66  1  0  0  0
 35 67  1  0  0  0
 35 68  1  0  0  0
M  END
> <i_i_glide_confnum>
124

> <i_i_glide_lignum>
830

> <i_i_glide_posenum>
24

> <i_i_glide_rotatable_bonds>
7

> <i_m_Source_File_Index>
2072

> <b_m_subgroup_collapsed>
0

> <r_i_docking_score>
-5.18908

> <r_i_glide_ecoul>
-2.9258

> <r_i_glide_eff_state_penalty>
0

> <r_i_glide_einternal>
10.0965

> <r_i_glide_emodel>
-49.8029

> <r_i_glide_energy>
-41.6356

> <r_i_glide_erotb>
0.564858

> <r_i_glide_esite>
-0.15634

> <r_i_glide_evdw>
-38.7098

> <r_i_glide_gscore>
-5.18908

> <r_i_glide_hbond>
-0.165763

> <r_i_glide_ligand_efficiency>
-0.15262

> <r_i_glide_ligand_efficiency_ln>
-1.14641

> <r_i_glide_ligand_efficiency_sa>
-0.49443

> <r_i_glide_lipo>
-2.40626

> <r_i_glide_metal>
0

> <r_i_glide_rewards>
-0.651216

> <s_i_glide_gridfile>
wee1_glide-grid

> <s_m_Source_File>
wee1_decoys_glide_SP.sdf

> <s_m_Source_Path>
/Users/zhangxujun/Desktop

> <s_m_entry_id>
2347

> <s_m_entry_name>
wee1_decoys_glide_SP.2072

> <s_m_subgroup_title>
wee1_decoys_glide_SP

> <s_m_subgroupid>
wee1_decoys_glide_SP


$$$$
