@<TRIPOS>MOLECULE
ZINC59403776_1340
50   53    1
SMALL
USER_CHARGES


@<TRIPOS>ATOM
      1 C1          1.6930   52.8082   28.1331 C.ar      1 UNK         0.0000 
      2 C2          2.4428   53.2279   27.0339 C.ar      1 UNK         0.0000 
      3 C3          3.7610   53.6959   27.2235 C.ar      1 UNK         0.0000 
      4 C4          4.2524   53.7379   28.5723 C.ar      1 UNK         0.0000 
      5 C5          3.5045   53.3012   29.6703 C.ar      1 UNK         0.0000 
      6 C6          2.2171   52.8375   29.4199 C.ar      1 UNK         0.0000 
      7 F7          1.4656   52.3996   30.4540 F         1 UNK         0.0000 
      8 N8          5.5232   54.2563   28.5220 N.pl3     1 UNK         0.0000 
      9 H9          6.1493   54.4467   29.2933 H         1 UNK         0.0000 
     10 C10         5.8737   54.4958   27.2255 C.ar      1 UNK         0.0000 
     11 C11         4.8470   54.1413   26.3607 C.ar      1 UNK         0.0000 
     12 C12         4.9746   54.2332   24.8939 C.2       1 UNK         0.0000 
     13 C13         3.9217   54.0965   24.0532 C.2       1 UNK         0.0000 
     14 C14         3.9965   54.1223   22.5266 C.3       1 UNK         0.0000 
     15 N15         5.3615   54.6971   22.0819 N.4       1 UNK         0.0000 
     16 C16         6.5145   54.0341   22.8634 C.3       1 UNK         0.0000 
     17 C17         6.3844   54.4669   24.3337 C.3       1 UNK         0.0000 
     18 C18         5.5553   54.6500   20.5424 C.3       1 UNK         0.0000 
     19 C19         6.4660   55.8144   20.1075 C.2       1 UNK         0.0000 
     20 O20         6.7043   56.7454   20.8821 O.2       1 UNK         0.0000 
     21 N21         6.9590   55.7807   18.8580 N.am      1 UNK         0.0000 
     22 C22         7.8125   56.8386   18.3132 C.3       1 UNK         0.0000 
     23 H23         7.4195   57.8299   18.5639 H         1 UNK         0.0000 
     24 C24         7.8802   56.7593   16.7733 C.3       1 UNK         0.0000 
     25 C25         8.9481   57.7535   16.2858 C.3       1 UNK         0.0000 
     26 S26        10.2988   57.6796   17.5854 S.o2      1 UNK         0.0000 
     27 O27        10.5458   59.0357   18.0864 O.2       1 UNK         0.0000 
     28 O28        11.4048   56.8388   17.1205 O.2       1 UNK         0.0000 
     29 C29         9.2623   56.7234   18.8153 C.3       1 UNK         0.0000 
     30 H30         0.6902   52.4314   27.9870 H         1 UNK         0.0000 
     31 H31         1.9982   53.1453   26.0578 H         1 UNK         0.0000 
     32 H32         3.9025   53.2956   30.6715 H         1 UNK         0.0000 
     33 H33         6.8570   54.8963   27.0299 H         1 UNK         0.0000 
     34 H34         2.9423   53.9548   24.4681 H         1 UNK         0.0000 
     35 H35         3.2296   54.7648   22.0882 H         1 UNK         0.0000 
     36 H36         3.9103   53.1132   22.1183 H         1 UNK         0.0000 
     37 H37         6.4286   52.9547   22.7252 H         1 UNK         0.0000 
     38 H38         7.4578   54.4086   22.4602 H         1 UNK         0.0000 
     39 H39         7.1382   53.9428   24.9211 H         1 UNK         0.0000 
     40 H40         6.6111   55.5318   24.4039 H         1 UNK         0.0000 
     41 H41         4.5675   54.8043   20.1046 H         1 UNK         0.0000 
     42 H42         5.9043   53.6567   20.2604 H         1 UNK         0.0000 
     43 H43         6.7072   55.0265   18.2349 H         1 UNK         0.0000 
     44 H44         6.9066   56.9710   16.3267 H         1 UNK         0.0000 
     45 H45         8.1311   55.7444   16.4576 H         1 UNK         0.0000 
     46 H46         8.5259   58.7581   16.3226 H         1 UNK         0.0000 
     47 H47         9.3645   57.6023   15.2910 H         1 UNK         0.0000 
     48 H48         9.5623   55.6910   18.6335 H         1 UNK         0.0000 
     49 H49         9.5078   56.8971   19.8613 H         1 UNK         0.0000 
     50 H50         5.3829   55.6832   22.3132 H         1 UNK         0.0000 
@<TRIPOS>BOND
     1    1    6 ar   
     2    1    2 ar   
     3    1   30 1    
     4    2    3 ar   
     5    2   31 1    
     6    3   11 ar   
     7    3    4 ar   
     8    4    5 ar   
     9    4    8 ar   
    10    5    6 ar   
    11    5   32 1    
    12    6    7 1    
    13    8    9 1    
    14    8   10 ar   
    15   10   11 ar   
    16   10   33 1    
    17   11   12 1    
    18   12   17 1    
    19   12   13 2    
    20   13   14 1    
    21   13   34 1    
    22   14   15 1    
    23   14   35 1    
    24   14   36 1    
    25   15   16 1    
    26   15   18 1    
    27   15   50 1    
    28   16   17 1    
    29   16   37 1    
    30   16   38 1    
    31   17   39 1    
    32   17   40 1    
    33   18   19 1    
    34   18   41 1    
    35   18   42 1    
    36   19   20 2    
    37   19   21 am   BACKBONE|DICT|INTERRES
    38   21   22 1    
    39   21   43 1    
    40   22   23 1    
    41   22   29 1    
    42   22   24 1    
    43   24   25 1    
    44   24   44 1    
    45   24   45 1    
    46   25   26 1    
    47   25   46 1    
    48   25   47 1    
    49   26   27 2    
    50   26   28 2    
    51   26   29 1    
    52   29   48 1    
    53   29   49 1    
@<TRIPOS>SUBSTRUCTURE
     1 UNK         1 GROUP             0       ****    0 ROOT    
