@<TRIPOS>MOLECULE
ZINC62788338_1919
38   39    1
SMALL
USER_CHARGES


@<TRIPOS>ATOM
      1 C1          5.2217   54.2737   20.3851 C.3       1 UNK         0.0000 
      2 N2          3.9042   53.6842   20.5956 N.am      1 UNK         0.0000 
      3 C3          3.4257   53.2200   21.7641 C.2       1 UNK         0.0000 
      4 O4          4.0936   53.2968   22.7958 O.2       1 UNK         0.0000 
      5 C5          1.9673   52.6324   21.7804 C.3       1 UNK         0.0000 
      6 H6          1.3802   53.5081   22.0608 H         1 UNK         0.0000 
      7 C7          1.4716   52.1448   20.3805 C.3       1 UNK         0.0000 
      8 C8          2.1273   50.8228   19.9363 C.3       1 UNK         0.0000 
      9 C9          2.0225   49.7691   21.0458 C.3       1 UNK         0.0000 
     10 C10         2.4646   50.3136   22.4194 C.3       1 UNK         0.0000 
     11 N11         1.7546   51.5564   22.7907 N.pl3     1 UNK         0.0000 
     12 C12         1.2713   51.7341   24.0954 C.ar      1 UNK         0.0000 
     13 C13         1.7637   52.7999   24.8683 C.ar      1 UNK         0.0000 
     14 C14         1.4994   52.8960   26.2326 C.ar      1 UNK         0.0000 
     15 C15         0.6778   51.9620   26.8480 C.ar      1 UNK         0.0000 
     16 C16         0.1157   50.9372   26.0980 C.ar      1 UNK         0.0000 
     17 C17         0.3853   50.8082   24.7237 C.ar      1 UNK         0.0000 
     18 C18        -0.3507   49.7270   24.0194 C.2       1 UNK         0.0000 
     19 S19        -1.4436   50.0285   22.8019 S.2       1 UNK         0.0000 
     20 N20        -0.0954   48.4841   24.4904 N.pl3     1 UNK         0.0000 
     21 Cl21        2.2238   54.1435   27.1769 Cl        1 UNK         0.0000 
     22 H22         5.1256   55.1906   19.8026 H         1 UNK         0.0000 
     23 H23         5.8495   53.5811   19.8226 H         1 UNK         0.0000 
     24 H24         5.7338   54.5197   21.3169 H         1 UNK         0.0000 
     25 H25         3.3015   53.6325   19.7865 H         1 UNK         0.0000 
     26 H26         0.3890   52.0172   20.4253 H         1 UNK         0.0000 
     27 H27         1.6173   52.8979   19.6078 H         1 UNK         0.0000 
     28 H28         1.6671   50.4553   19.0182 H         1 UNK         0.0000 
     29 H29         3.1792   50.9935   19.6971 H         1 UNK         0.0000 
     30 H30         1.0128   49.3655   21.1093 H         1 UNK         0.0000 
     31 H31         2.6472   48.9132   20.7869 H         1 UNK         0.0000 
     32 H32         2.3015   49.5406   23.1707 H         1 UNK         0.0000 
     33 H33         3.5360   50.4988   22.4110 H         1 UNK         0.0000 
     34 H34         2.4187   53.5375   24.4398 H         1 UNK         0.0000 
     35 H35         0.4679   52.0304   27.9054 H         1 UNK         0.0000 
     36 H36        -0.5469   50.2438   26.6017 H         1 UNK         0.0000 
     37 H37         0.5567   48.3532   25.2518 H         1 UNK         0.0000 
     38 H38        -0.5972   47.6967   24.1098 H         1 UNK         0.0000 
@<TRIPOS>BOND
     1    1    2 1    
     2    1   22 1    
     3    1   23 1    
     4    1   24 1    
     5    2    3 am   BACKBONE|DICT|INTERRES
     6    2   25 1    
     7    3    4 2    
     8    3    5 1    
     9    5    6 1    
    10    5   11 1    
    11    5    7 1    
    12    7    8 1    
    13    7   26 1    
    14    7   27 1    
    15    8    9 1    
    16    8   28 1    
    17    8   29 1    
    18    9   10 1    
    19    9   30 1    
    20    9   31 1    
    21   10   11 1    
    22   10   32 1    
    23   10   33 1    
    24   11   12 1    
    25   12   17 ar   
    26   12   13 ar   
    27   13   14 ar   
    28   13   34 1    
    29   14   15 ar   
    30   14   21 1    
    31   15   16 ar   
    32   15   35 1    
    33   16   17 ar   
    34   16   36 1    
    35   17   18 1    
    36   18   19 2    
    37   18   20 1    
    38   20   37 1    
    39   20   38 1    
@<TRIPOS>SUBSTRUCTURE
     1 UNK         1 GROUP             0       ****    0 ROOT    
