@<TRIPOS>MOLECULE
ZINC08670971_5426
70   75    1
SMALL
USER_CHARGES


@<TRIPOS>ATOM
      1 C1          1.9246   55.6020   29.6620 C.3       1 UNK         0.0000 
      2 C2          1.6924   54.2084   29.0895 C.ar      1 UNK         0.0000 
      3 C3          0.5658   54.0042   28.2920 C.ar      1 UNK         0.0000 
      4 C4          0.3074   52.7541   27.6807 C.ar      1 UNK         0.0000 
      5 C5         -0.8038   52.4971   26.8416 C.ar      1 UNK         0.0000 
      6 C6         -0.9652   51.2549   26.2168 C.ar      1 UNK         0.0000 
      7 C7         -0.0073   50.2535   26.4821 C.ar      1 UNK         0.0000 
      8 N8          1.0570   50.4971   27.2817 N.ar      1 UNK         0.0000 
      9 C9          1.2210   51.6972   27.8882 C.ar      1 UNK         0.0000 
     10 C10         2.3370   51.9023   28.7287 C.ar      1 UNK         0.0000 
     11 C11         2.5798   53.1440   29.3185 C.ar      1 UNK         0.0000 
     12 C12         3.8372   53.2874   30.1663 C.3       1 UNK         0.0000 
     13 O13        -0.1745   49.0196   25.9167 O.3       1 UNK         0.0000 
     14 C14        -2.1733   51.0802   25.2657 C.3       1 UNK         0.0000 
     15 H15        -2.3745   52.0579   24.8252 H         1 UNK         0.0000 
     16 C16        -2.0169   50.1586   24.0422 C.ar      1 UNK         0.0000 
     17 N17        -2.8953   49.2631   23.6452 N.2       1 UNK         0.0000 
     18 N18        -2.3859   48.7032   22.4818 N.2       1 UNK         0.0000 
     19 N19        -1.1865   49.3007   22.1620 N.2       1 UNK         0.0000 
     20 N20        -0.9693   50.1958   23.1368 N.pl3     1 UNK         0.0000 
     21 C21         0.2118   51.0727   23.1110 C.3       1 UNK         0.0000 
     22 C22         1.4201   50.5553   22.3064 C.3       1 UNK         0.0000 
     23 C23         2.2307   51.8256   22.0635 C.3       1 UNK         0.0000 
     24 C24         1.1756   52.8942   21.7757 C.3       1 UNK         0.0000 
     25 C25        -0.0889   52.4712   22.5398 C.3       1 UNK         0.0000 
     26 C26        -3.4059   49.4968   26.8836 C.3       1 UNK         0.0000 
     27 C27        -4.7073   48.7963   27.2374 C.ar      1 UNK         0.0000 
     28 C28        -4.9897   48.4725   28.5701 C.ar      1 UNK         0.0000 
     29 C29        -6.1863   47.8252   28.8843 C.ar      1 UNK         0.0000 
     30 C30        -7.0647   47.5107   27.8449 C.ar      1 UNK         0.0000 
     31 N31        -6.8030   47.7999   26.5439 N.ar      1 UNK         0.0000 
     32 C32        -5.6346   48.4289   26.2560 C.ar      1 UNK         0.0000 
     33 C33        -4.0937   51.9982   26.7543 C.3       1 UNK         0.0000 
     34 C34        -5.5742   51.8283   27.0018 C.2       1 UNK         0.0000 
     35 C35        -6.7079   51.9576   26.2098 C.2       1 UNK         0.0000 
     36 C36        -7.8056   51.6784   27.0249 C.2       1 UNK         0.0000 
     37 C37        -7.2957   51.4079   28.2835 C.2       1 UNK         0.0000 
     38 O38        -5.9429   51.5093   28.2706 O.3       1 UNK         0.0000 
     39 H39         2.8965   55.9856   29.3497 H         1 UNK         0.0000 
     40 H40         1.9035   55.5828   30.7512 H         1 UNK         0.0000 
     41 H41         1.1730   56.3183   29.3267 H         1 UNK         0.0000 
     42 H42        -0.1025   54.8225   28.0837 H         1 UNK         0.0000 
     43 H43        -1.5139   53.2923   26.6710 H         1 UNK         0.0000 
     44 H44         3.0229   51.0855   28.8853 H         1 UNK         0.0000 
     45 H45         4.6868   52.8524   29.6373 H         1 UNK         0.0000 
     46 H46         4.1084   54.3183   30.3825 H         1 UNK         0.0000 
     47 H47         3.7295   52.7355   31.0997 H         1 UNK         0.0000 
     48 H48         0.3201   48.3362   26.3838 H         1 UNK         0.0000 
     49 H49         0.5617   51.1778   24.1337 H         1 UNK         0.0000 
     50 H50         1.9894   49.7916   22.8405 H         1 UNK         0.0000 
     51 H51         1.1245   50.1492   21.3369 H         1 UNK         0.0000 
     52 H52         2.7845   52.0935   22.9630 H         1 UNK         0.0000 
     53 H53         2.9497   51.7158   21.2502 H         1 UNK         0.0000 
     54 H54         1.5181   53.8855   22.0775 H         1 UNK         0.0000 
     55 H55         0.9736   52.9097   20.7030 H         1 UNK         0.0000 
     56 H56        -0.9293   52.4483   21.8435 H         1 UNK         0.0000 
     57 H57        -0.3269   53.1780   23.3376 H         1 UNK         0.0000 
     58 H58        -2.7497   48.7917   26.3732 H         1 UNK         0.0000 
     59 H59        -2.8956   49.8440   27.7811 H         1 UNK         0.0000 
     60 H60        -4.2852   48.7175   29.3543 H         1 UNK         0.0000 
     61 H61        -6.4225   47.5766   29.9092 H         1 UNK         0.0000 
     62 H62        -8.0020   47.0119   28.0449 H         1 UNK         0.0000 
     63 H63        -5.4542   48.6364   25.2118 H         1 UNK         0.0000 
     64 H64        -3.5071   52.0947   27.6693 H         1 UNK         0.0000 
     65 H65        -3.9114   52.8719   26.1288 H         1 UNK         0.0000 
     66 H66        -6.7361   52.2150   25.1602 H         1 UNK         0.0000 
     67 H67        -8.8458   51.6723   26.7331 H         1 UNK         0.0000 
     68 H68        -7.7448   51.1388   29.2285 H         1 UNK         0.0000 
     69 N69        -3.5148   50.7691   25.9998 N.4       1 UNK         0.0000 
     70 H70        -4.1700   50.5531   25.2623 H         1 UNK         0.0000 
@<TRIPOS>BOND
     1    1    2 1    
     2    1   39 1    
     3    1   40 1    
     4    1   41 1    
     5    2   11 ar   
     6    2    3 ar   
     7    3    4 ar   
     8    3   42 1    
     9    4    9 ar   
    10    4    5 ar   
    11    5    6 ar   
    12    5   43 1    
    13    6    7 ar   
    14    6   14 1    
    15    7    8 ar   
    16    7   13 1    
    17    8    9 ar   
    18    9   10 ar   
    19   10   11 ar   
    20   10   44 1    
    21   11   12 1    
    22   12   45 1    
    23   12   46 1    
    24   12   47 1    
    25   13   48 1    
    26   14   15 1    
    27   14   16 1    
    28   14   69 1    
    29   16   20 ar   
    30   16   17 ar   
    31   17   18 ar   
    32   18   19 ar   
    33   19   20 ar   
    34   20   21 1    
    35   21   25 1    
    36   21   22 1    
    37   21   49 1    
    38   22   23 1    
    39   22   50 1    
    40   22   51 1    
    41   23   24 1    
    42   23   52 1    
    43   23   53 1    
    44   24   25 1    
    45   24   54 1    
    46   24   55 1    
    47   25   56 1    
    48   25   57 1    
    49   26   27 1    
    50   26   58 1    
    51   26   59 1    
    52   26   69 1    
    53   27   32 ar   
    54   27   28 ar   
    55   28   29 ar   
    56   28   60 1    
    57   29   30 ar   
    58   29   61 1    
    59   30   31 ar   
    60   30   62 1    
    61   31   32 ar   
    62   32   63 1    
    63   33   34 1    
    64   33   64 1    
    65   33   65 1    
    66   33   69 1    
    67   34   38 1    
    68   34   35 2    
    69   35   36 1    
    70   35   66 1    
    71   36   37 2    
    72   36   67 1    
    73   37   38 1    
    74   37   68 1    
    75   69   70 1    
@<TRIPOS>SUBSTRUCTURE
     1 UNK         1 GROUP             0       ****    0 ROOT    
