ZINC40386815_701
                    3D
 Schrodinger Suite 2024-2.
 58 62  0  0  1  0            999 V2000
    0.6957   52.7953   31.9722 C   0  0  0  0  0  0
    0.9153   52.8707   30.5381 N   0  0  0  0  0  0
    0.1368   52.3028   29.5528 C   0  0  0  0  0  0
    0.7775   52.6109   28.3294 C   0  0  0  0  0  0
    0.6212   52.3562   26.9553 C   0  0  0  0  0  0
    1.4953   52.8952   26.0719 N   0  0  0  0  0  0
    2.5366   53.6310   26.5447 C   0  0  0  0  0  0
    2.7983   53.8833   27.8583 N   0  0  0  0  0  0
    1.9098   53.3895   28.7267 C   0  0  0  0  0  0
    1.9888   53.5474   30.0816 N   0  0  0  0  0  0
    3.4381   54.0967   25.5902 N   0  0  0  0  0  0
    4.7078   54.7795   25.8847 C   0  0  0  0  0  0
    5.8366   54.3538   24.9217 C   0  0  0  0  0  0
    5.4778   54.6218   23.5279 N   0  0  0  0  0  0
    4.2063   53.9882   23.1672 C   0  0  0  0  0  0
    3.0756   54.2535   24.1696 C   0  0  0  0  0  0
    6.5414   54.1897   22.6241 C   0  0  0  0  0  0
    6.5638   54.8969   21.2647 C   0  0  0  0  0  0
    7.6606   55.6972   20.9490 C   0  0  0  0  0  0
    7.7782   56.2592   19.6806 C   0  0  0  0  0  0
    6.7930   56.0256   18.7261 C   0  0  0  0  0  0
    5.7034   55.2126   19.0197 C   0  0  0  0  0  0
    5.6004   54.6314   20.2814 C   0  0  0  0  0  0
    6.9057   56.5774   17.4972 F   0  0  0  0  0  0
   -0.4232   51.4694   26.3783 C   0  0  0  0  0  0
   -1.7772   51.6753   26.6538 C   0  0  0  0  0  0
   -2.7434   50.8225   26.1249 C   0  0  0  0  0  0
   -2.3699   49.7557   25.3001 C   0  0  0  0  0  0
   -1.0165   49.5458   25.0207 C   0  0  0  0  0  0
   -0.0546   50.3986   25.5518 C   0  0  0  0  0  0
   -3.4298   48.8099   24.7328 C   0  0  0  0  0  0
   -4.4579   48.6690   25.5717 F   0  0  0  0  0  0
   -2.9330   47.5938   24.4873 F   0  0  0  0  0  0
   -3.8886   49.3132   23.5863 F   0  0  0  0  0  0
   -0.9918   51.5708   29.7678 N   0  0  0  0  0  0
   -0.2409   53.2969   32.2161 H   0  0  0  0  0  0
    0.6352   51.7482   32.2689 H   0  0  0  0  0  0
    1.5032   53.2640   32.5187 H   0  0  0  0  0  0
    4.5453   55.8530   25.8095 H   0  0  0  0  0  0
    5.0285   54.5925   26.9106 H   0  0  0  0  0  0
    6.7337   54.9183   25.1798 H   0  0  0  0  0  0
    6.0358   53.2968   25.0776 H   0  0  0  0  0  0
    4.3350   52.9062   23.1298 H   0  0  0  0  0  0
    3.8445   54.3549   22.2113 H   0  0  0  0  0  0
    2.2024   53.6703   23.8788 H   0  0  0  0  0  0
    2.7737   55.2966   24.0656 H   0  0  0  0  0  0
    7.5049   54.3597   23.1050 H   0  0  0  0  0  0
    6.4774   53.1102   22.4824 H   0  0  0  0  0  0
    8.4387   55.8756   21.6777 H   0  0  0  0  0  0
    8.6308   56.8723   19.4344 H   0  0  0  0  0  0
    4.9570   55.0117   18.2654 H   0  0  0  0  0  0
    4.7895   53.9433   20.4618 H   0  0  0  0  0  0
   -2.0823   52.4966   27.2826 H   0  0  0  0  0  0
   -3.7844   50.9930   26.3563 H   0  0  0  0  0  0
   -0.7035   48.7193   24.3973 H   0  0  0  0  0  0
    0.9853   50.2151   25.3269 H   0  0  0  0  0  0
   -1.4040   51.0209   29.0235 H   0  0  0  0  0  0
   -1.2917   51.3096   30.7024 H   0  0  0  0  0  0
  1  2  1  0  0  0
  1 36  1  0  0  0
  1 37  1  0  0  0
  1 38  1  0  0  0
  2 10  1  0  0  0
  2  3  1  0  0  0
  3  4  2  0  0  0
  3 35  1  0  0  0
  4  9  1  0  0  0
  4  5  1  0  0  0
  5  6  2  0  0  0
  5 25  1  0  0  0
  6  7  1  0  0  0
  7  8  2  0  0  0
  7 11  1  0  0  0
  8  9  1  0  0  0
  9 10  2  0  0  0
 11 16  1  0  0  0
 11 12  1  0  0  0
 12 13  1  0  0  0
 12 39  1  0  0  0
 12 40  1  0  0  0
 13 14  1  0  0  0
 13 41  1  0  0  0
 13 42  1  0  0  0
 14 15  1  0  0  0
 14 17  1  0  0  0
 15 16  1  0  0  0
 15 43  1  0  0  0
 15 44  1  0  0  0
 16 45  1  0  0  0
 16 46  1  0  0  0
 17 18  1  0  0  0
 17 47  1  0  0  0
 17 48  1  0  0  0
 18 23  2  0  0  0
 18 19  1  0  0  0
 19 20  2  0  0  0
 19 49  1  0  0  0
 20 21  1  0  0  0
 20 50  1  0  0  0
 21 22  2  0  0  0
 21 24  1  0  0  0
 22 23  1  0  0  0
 22 51  1  0  0  0
 23 52  1  0  0  0
 25 30  2  0  0  0
 25 26  1  0  0  0
 26 27  2  0  0  0
 26 53  1  0  0  0
 27 28  1  0  0  0
 27 54  1  0  0  0
 28 29  2  0  0  0
 28 31  1  0  0  0
 29 30  1  0  0  0
 29 55  1  0  0  0
 30 56  1  0  0  0
 31 32  1  0  0  0
 31 33  1  0  0  0
 31 34  1  0  0  0
 35 57  1  0  0  0
 35 58  1  0  0  0
M  END
> <i_i_glide_confnum>
50

> <i_i_glide_lignum>
702

> <i_i_glide_posenum>
311

> <i_i_glide_rotatable_bonds>
5

> <i_m_Source_File_Index>
181

> <b_m_subgroup_collapsed>
0

> <r_i_docking_score>
-5.53301

> <r_i_glide_ecoul>
-4.1019

> <r_i_glide_eff_state_penalty>
0

> <r_i_glide_einternal>
2.25536

> <r_i_glide_emodel>
-56.0914

> <r_i_glide_energy>
-42.3287

> <r_i_glide_erotb>
0.344781

> <r_i_glide_esite>
-0.124708

> <r_i_glide_evdw>
-38.2268

> <r_i_glide_gscore>
-5.53301

> <r_i_glide_hbond>
-0.166113

> <r_i_glide_ligand_efficiency>
-0.158086

> <r_i_glide_ligand_efficiency_ln>
-1.21462

> <r_i_glide_ligand_efficiency_sa>
-0.51711

> <r_i_glide_lipo>
-2.14535

> <r_i_glide_metal>
0

> <r_i_glide_rewards>
-0.915005

> <s_i_glide_gridfile>
wee1_glide-grid

> <s_m_Source_File>
wee1_decoys_glide_SP.sdf

> <s_m_Source_Path>
/Users/zhangxujun/Desktop

> <s_m_entry_id>
456

> <s_m_entry_name>
wee1_decoys_glide_SP.181

> <s_m_subgroup_title>
wee1_decoys_glide_SP

> <s_m_subgroupid>
wee1_decoys_glide_SP


$$$$
