ZINC24095366_5151
                    3D
 Schrodinger Suite 2024-2.
 60 64  0  0  1  0            999 V2000
   -7.1137   50.6436   25.5253 C   0  0  0  0  0  0
   -7.7843   50.6219   26.7456 C   0  0  0  0  0  0
   -7.0592   50.6029   27.9343 C   0  0  0  0  0  0
   -5.6650   50.6058   27.9016 C   0  0  0  0  0  0
   -4.9614   50.6530   26.6782 C   0  0  0  0  0  0
   -5.7196   50.6519   25.4950 C   0  0  0  0  0  0
   -3.4218   50.6253   26.6904 C   0  0  2  0  0  0
   -2.8742   50.8615   28.1254 C   0  0  0  0  0  0
   -3.7113   50.0970   29.1594 C   0  0  0  0  0  0
   -5.0478   50.6059   29.1390 O   0  0  0  0  0  0
   -2.8035   51.6751   25.7763 C   0  0  0  0  0  0
   -2.8984   52.8966   25.9148 O   0  0  0  0  0  0
   -2.0166   50.9929   24.9199 N   0  0  0  0  0  0
   -2.1117   49.6456   25.0154 C   0  0  0  0  0  0
   -1.7446   48.8037   24.1968 O   0  0  0  0  0  0
   -2.8843   49.4332   26.0821 N   0  0  0  0  0  0
   -0.9709   51.6565   24.1298 C   0  0  0  0  0  0
    0.4728   51.2866   24.5505 C   0  0  2  0  0  0
    0.4842   50.8115   25.5340 H   0  0  0  0  0  0
    1.3994   52.5114   24.6022 C   0  0  0  0  0  0
    1.1473   53.2678   25.7936 O   0  0  0  0  0  0
    2.0372   53.0235   26.8893 C   0  0  0  0  0  0
    3.4048   53.6963   26.6856 C   0  0  0  0  0  0
    3.6641   54.4945   25.5651 C   0  0  0  0  0  0
    4.9241   55.0414   25.3790 C   0  0  0  0  0  0
    5.9077   54.8393   26.3331 C   0  0  0  0  0  0
    5.6670   54.0660   27.4633 C   0  0  0  0  0  0
    4.4152   53.4829   27.6328 C   0  0  0  0  0  0
    7.1044   55.4172   26.1520 F   0  0  0  0  0  0
    1.3492   53.3748   28.2133 C   0  0  0  0  0  0
    0.6249   52.3853   28.8897 C   0  0  0  0  0  0
    0.1170   52.6361   30.1618 C   0  0  0  0  0  0
    0.3380   53.8737   30.7591 C   0  0  0  0  0  0
    1.0232   54.8789   30.0817 C   0  0  0  0  0  0
    1.5175   54.6347   28.8036 C   0  0  0  0  0  0
   -0.0956   54.0968   32.0178 F   0  0  0  0  0  0
    0.9657   50.3325   23.6315 O   0  0  0  0  0  0
   -7.6730   50.6510   24.6010 H   0  0  0  0  0  0
   -8.8640   50.6144   26.7706 H   0  0  0  0  0  0
   -7.5761   50.5813   28.8823 H   0  0  0  0  0  0
   -5.2216   50.6577   24.5362 H   0  0  0  0  0  0
   -1.8284   50.5644   28.2124 H   0  0  0  0  0  0
   -2.9521   51.9092   28.4100 H   0  0  0  0  0  0
   -3.2962   50.2249   30.1600 H   0  0  0  0  0  0
   -3.6987   49.0280   28.9380 H   0  0  0  0  0  0
   -2.7876   48.5923   26.6391 H   0  0  0  0  0  0
   -1.0897   52.7397   24.1925 H   0  0  0  0  0  0
   -1.1317   51.4433   23.0720 H   0  0  0  0  0  0
    1.2250   53.1469   23.7327 H   0  0  0  0  0  0
    2.4452   52.2072   24.5294 H   0  0  0  0  0  0
    2.2315   51.9523   26.9400 H   0  0  0  0  0  0
    2.9041   54.6887   24.8237 H   0  0  0  0  0  0
    5.1380   55.6418   24.5085 H   0  0  0  0  0  0
    6.4466   53.9172   28.1963 H   0  0  0  0  0  0
    4.2299   52.8662   28.5003 H   0  0  0  0  0  0
    0.4833   51.4092   28.4473 H   0  0  0  0  0  0
   -0.4252   51.8700   30.6999 H   0  0  0  0  0  0
    1.1779   55.8382   30.5541 H   0  0  0  0  0  0
    2.0669   55.4125   28.2927 H   0  0  0  0  0  0
    0.3773   49.5698   23.6452 H   0  0  0  0  0  0
  1  6  2  0  0  0
  1  2  1  0  0  0
  1 38  1  0  0  0
  2  3  2  0  0  0
  2 39  1  0  0  0
  3  4  1  0  0  0
  3 40  1  0  0  0
  4 10  1  0  0  0
  4  5  2  0  0  0
  5  6  1  0  0  0
  5  7  1  0  0  0
  6 41  1  0  0  0
  7 16  1  0  0  0
  7  8  1  0  0  0
  7 11  1  0  0  0
  8  9  1  0  0  0
  8 42  1  0  0  0
  8 43  1  0  0  0
  9 10  1  0  0  0
  9 44  1  0  0  0
  9 45  1  0  0  0
 11 12  2  0  0  0
 11 13  1  0  0  0
 13 14  1  0  0  0
 13 17  1  0  0  0
 14 15  2  0  0  0
 14 16  1  0  0  0
 16 46  1  0  0  0
 17 18  1  0  0  0
 17 47  1  0  0  0
 17 48  1  0  0  0
 18 19  1  0  0  0
 18 20  1  0  0  0
 18 37  1  0  0  0
 20 21  1  0  0  0
 20 49  1  0  0  0
 20 50  1  0  0  0
 21 22  1  0  0  0
 22 23  1  0  0  0
 22 30  1  0  0  0
 22 51  1  0  0  0
 23 28  2  0  0  0
 23 24  1  0  0  0
 24 25  2  0  0  0
 24 52  1  0  0  0
 25 26  1  0  0  0
 25 53  1  0  0  0
 26 27  2  0  0  0
 26 29  1  0  0  0
 27 28  1  0  0  0
 27 54  1  0  0  0
 28 55  1  0  0  0
 30 35  2  0  0  0
 30 31  1  0  0  0
 31 32  2  0  0  0
 31 56  1  0  0  0
 32 33  1  0  0  0
 32 57  1  0  0  0
 33 34  2  0  0  0
 33 36  1  0  0  0
 34 35  1  0  0  0
 34 58  1  0  0  0
 35 59  1  0  0  0
 37 60  1  0  0  0
M  END
> <i_i_glide_confnum>
61

> <i_i_glide_lignum>
5152

> <i_i_glide_posenum>
30

> <i_i_glide_rotatable_bonds>
8

> <i_m_Source_File_Index>
740

> <b_m_subgroup_collapsed>
0

> <r_i_docking_score>
-5.8461

> <r_i_glide_ecoul>
-6.45697

> <r_i_glide_eff_state_penalty>
0

> <r_i_glide_einternal>
7.07889

> <r_i_glide_emodel>
-59.3553

> <r_i_glide_energy>
-45.2437

> <r_i_glide_erotb>
0.500058

> <r_i_glide_esite>
-0.25753

> <r_i_glide_evdw>
-38.7867

> <r_i_glide_gscore>
-5.8461

> <r_i_glide_hbond>
-0.052695

> <r_i_glide_ligand_efficiency>
-0.162392

> <r_i_glide_ligand_efficiency_ln>
-1.27546

> <r_i_glide_ligand_efficiency_sa>
-0.536205

> <r_i_glide_lipo>
-2.99046

> <r_i_glide_metal>
0

> <r_i_glide_rewards>
-0.137591

> <s_i_glide_gridfile>
wee1_glide-grid

> <s_m_Source_File>
wee1_decoys_glide_SP.sdf

> <s_m_Source_Path>
/Users/zhangxujun/Desktop

> <s_m_entry_id>
1015

> <s_m_entry_name>
wee1_decoys_glide_SP.740

> <s_m_subgroup_title>
wee1_decoys_glide_SP

> <s_m_subgroupid>
wee1_decoys_glide_SP


$$$$
