ZINC02791081_2540
                    3D
 Schrodinger Suite 2024-2.
 45 48  0  0  1  0            999 V2000
    5.0629   54.4168   29.1132 C   0  0  0  0  0  0
    4.7422   54.3200   27.6358 C   0  0  0  0  0  0
    3.4344   54.0621   27.2256 C   0  0  0  0  0  0
    3.1341   53.9920   25.8680 C   0  0  0  0  0  0
    4.1400   54.1715   24.9103 C   0  0  0  0  0  0
    5.4528   54.4290   25.3362 C   0  0  0  0  0  0
    5.7526   54.4966   26.6922 C   0  0  0  0  0  0
    3.7918   54.1537   23.4419 C   0  0  0  0  0  0
    2.6706   54.4965   23.0617 O   0  0  0  0  0  0
    4.7593   53.6961   22.6199 N   0  0  0  0  0  0
    4.7028   53.8116   21.2377 C   0  0  0  0  0  0
    3.8755   53.0131   20.3471 C   0  0  0  0  0  0
    2.9784   51.9155   20.5460 C   0  0  0  0  0  0
    2.3458   51.3892   19.4104 C   0  0  0  0  0  0
    2.5823   51.9251   18.1474 C   0  0  0  0  0  0
    3.4184   52.9659   17.9270 N   0  0  0  0  0  0
    4.0330   53.4668   18.9970 C   0  0  0  0  0  0
    5.1484   54.7988   18.8344 S   0  0  0  0  0  0
    5.5146   54.7298   20.5411 C   0  0  0  0  0  0
    6.4838   55.6972   21.0337 C   0  0  0  0  0  0
    6.6652   56.7990   20.5176 O   0  0  0  0  0  0
    7.2153   55.2967   22.0719 N   0  0  0  0  0  0
    1.9415   51.3310   16.8960 C   0  0  0  0  0  0
    1.0960   50.3348   17.1695 F   0  0  0  0  0  0
    1.2788   52.2669   16.2145 F   0  0  0  0  0  0
    2.6710   51.2453   21.8889 C   0  0  0  0  0  0
    1.3448   50.5903   22.2174 C   0  0  0  0  0  0
    2.5892   49.7435   22.0564 C   0  0  0  0  0  0
    4.7023   53.5281   29.6323 H   0  0  0  0  0  0
    6.1374   54.4970   29.2818 H   0  0  0  0  0  0
    4.5697   55.2826   29.5543 H   0  0  0  0  0  0
    2.6489   53.9251   27.9548 H   0  0  0  0  0  0
    2.1131   53.8042   25.5664 H   0  0  0  0  0  0
    6.2498   54.5990   24.6277 H   0  0  0  0  0  0
    6.7645   54.7004   27.0099 H   0  0  0  0  0  0
    5.5717   53.2725   23.0376 H   0  0  0  0  0  0
    1.6827   50.5416   19.5008 H   0  0  0  0  0  0
    7.1049   54.3684   22.4398 H   0  0  0  0  0  0
    7.9621   55.8807   22.4218 H   0  0  0  0  0  0
    2.7050   50.9233   16.2341 H   0  0  0  0  0  0
    3.1041   51.7599   22.7309 H   0  0  0  0  0  0
    0.9328   50.7378   23.2161 H   0  0  0  0  0  0
    0.5616   50.5509   21.4601 H   0  0  0  0  0  0
    2.7036   49.1083   21.1773 H   0  0  0  0  0  0
    3.0405   49.2987   22.9430 H   0  0  0  0  0  0
  1  2  1  0  0  0
  1 29  1  0  0  0
  1 30  1  0  0  0
  1 31  1  0  0  0
  2  7  2  0  0  0
  2  3  1  0  0  0
  3  4  2  0  0  0
  3 32  1  0  0  0
  4  5  1  0  0  0
  4 33  1  0  0  0
  5  6  2  0  0  0
  5  8  1  0  0  0
  6  7  1  0  0  0
  6 34  1  0  0  0
  7 35  1  0  0  0
  8  9  2  0  0  0
  8 10  1  0  0  0
 10 11  1  0  0  0
 10 36  1  0  0  0
 11 19  2  0  0  0
 11 12  1  0  0  0
 12 17  2  0  0  0
 12 13  1  0  0  0
 13 14  2  0  0  0
 13 26  1  0  0  0
 14 15  1  0  0  0
 14 37  1  0  0  0
 15 16  2  0  0  0
 15 23  1  0  0  0
 16 17  1  0  0  0
 17 18  1  0  0  0
 18 19  1  0  0  0
 19 20  1  0  0  0
 20 21  2  0  0  0
 20 22  1  0  0  0
 22 38  1  0  0  0
 22 39  1  0  0  0
 23 24  1  0  0  0
 23 25  1  0  0  0
 23 40  1  0  0  0
 26 28  1  0  0  0
 26 27  1  0  0  0
 26 41  1  0  0  0
 27 28  1  0  0  0
 27 42  1  0  0  0
 27 43  1  0  0  0
 28 44  1  0  0  0
 28 45  1  0  0  0
M  END
> <i_i_glide_confnum>
9

> <i_i_glide_lignum>
2541

> <i_i_glide_posenum>
314

> <i_i_glide_rotatable_bonds>
6

> <i_m_Source_File_Index>
5206

> <b_m_subgroup_collapsed>
0

> <r_i_docking_score>
-6.21736

> <r_i_glide_ecoul>
-3.7882

> <r_i_glide_eff_state_penalty>
0

> <r_i_glide_einternal>
3.60176

> <r_i_glide_emodel>
-57.6559

> <r_i_glide_energy>
-43.0559

> <r_i_glide_erotb>
0.486861

> <r_i_glide_esite>
-0.0751998

> <r_i_glide_evdw>
-39.2677

> <r_i_glide_gscore>
-6.21736

> <r_i_glide_hbond>
-0.397192

> <r_i_glide_ligand_efficiency>
-0.222049

> <r_i_glide_ligand_efficiency_ln>
-1.43515

> <r_i_glide_ligand_efficiency_sa>
-0.674271

> <r_i_glide_lipo>
-2.38081

> <r_i_glide_metal>
0

> <r_i_glide_rewards>
-1.31941

> <s_i_glide_gridfile>
wee1_glide-grid

> <s_m_Source_File>
wee1_decoys_glide_SP.sdf

> <s_m_Source_Path>
/Users/zhangxujun/Desktop

> <s_m_entry_id>
5481

> <s_m_entry_name>
wee1_decoys_glide_SP.5206

> <s_m_subgroup_title>
wee1_decoys_glide_SP

> <s_m_subgroupid>
wee1_decoys_glide_SP


$$$$
