ZINC39511810_1739
                    3D
 Schrodinger Suite 2024-2.
 40 42  0  0  1  0            999 V2000
    2.4922   54.2310   23.3936 C   0  0  0  0  0  0
    1.5364   53.2807   23.0528 C   0  0  0  0  0  0
    1.0474   52.4138   24.0256 C   0  0  0  0  0  0
    1.5042   52.5017   25.3423 C   0  0  0  0  0  0
    2.4306   53.5025   25.7207 C   0  0  0  0  0  0
    2.9393   54.3312   24.7101 C   0  0  0  0  0  0
    3.0404   53.5731   26.9770 N   0  0  0  0  0  0
    4.4765   53.2968   27.1742 C   0  0  0  0  0  0
    5.1962   54.4353   27.9177 C   0  0  0  0  0  0
    4.4813   54.7927   29.2260 C   0  0  0  0  0  0
    2.9813   55.0066   28.9446 C   0  0  1  0  0  0
    2.8874   55.8229   28.2320 H   0  0  0  0  0  0
    2.2893   53.7782   28.2537 C   0  0  1  0  0  0
    0.7650   54.0693   28.1472 C   0  0  0  0  0  0
    0.0901   53.4989   29.4023 C   0  0  0  0  0  0
    0.9996   52.3866   29.9249 C   0  0  1  0  0  0
    0.5179   51.4349   29.6910 H   0  0  0  0  0  0
    2.2989   52.4763   29.1123 C   0  0  0  0  0  0
    1.1826   52.4968   31.3235 O   0  0  0  0  0  0
    2.3043   55.4799   30.0817 O   0  0  0  0  0  0
    1.0195   51.5839   26.2384 O   0  0  0  0  0  0
    2.8930   54.8855   22.6329 H   0  0  0  0  0  0
    1.1936   53.2043   22.0306 H   0  0  0  0  0  0
    0.3273   51.6588   23.7452 H   0  0  0  0  0  0
    3.6985   55.0617   24.9496 H   0  0  0  0  0  0
    4.9603   53.1408   26.2094 H   0  0  0  0  0  0
    4.5914   52.3682   27.7293 H   0  0  0  0  0  0
    5.2859   55.3014   27.2618 H   0  0  0  0  0  0
    6.2231   54.1367   28.1341 H   0  0  0  0  0  0
    4.9327   55.6747   29.6814 H   0  0  0  0  0  0
    4.6237   53.9893   29.9464 H   0  0  0  0  0  0
    0.3004   53.6095   27.2850 H   0  0  0  0  0  0
    0.5607   55.1341   28.0353 H   0  0  0  0  0  0
   -0.0434   54.2911   30.1405 H   0  0  0  0  0  0
   -0.8955   53.1030   29.1732 H   0  0  0  0  0  0
    3.1816   52.3791   29.7411 H   0  0  0  0  0  0
    2.3311   51.6117   28.4484 H   0  0  0  0  0  0
    0.3381   52.3460   31.7649 H   0  0  0  0  0  0
    1.4136   55.7266   29.8246 H   0  0  0  0  0  0
    0.4127   50.9499   25.8491 H   0  0  0  0  0  0
  1  6  2  0  0  0
  1  2  1  0  0  0
  1 22  1  0  0  0
  2  3  2  0  0  0
  2 23  1  0  0  0
  3  4  1  0  0  0
  3 24  1  0  0  0
  4  5  2  0  0  0
  4 21  1  0  0  0
  5  6  1  0  0  0
  5  7  1  0  0  0
  6 25  1  0  0  0
  7 13  1  0  0  0
  7  8  1  0  0  0
  8  9  1  0  0  0
  8 26  1  0  0  0
  8 27  1  0  0  0
  9 10  1  0  0  0
  9 28  1  0  0  0
  9 29  1  0  0  0
 10 11  1  0  0  0
 10 30  1  0  0  0
 10 31  1  0  0  0
 11 12  1  0  0  0
 11 13  1  0  0  0
 11 20  1  0  0  0
 13 18  1  0  0  0
 13 14  1  0  0  0
 14 15  1  0  0  0
 14 32  1  0  0  0
 14 33  1  0  0  0
 15 16  1  0  0  0
 15 34  1  0  0  0
 15 35  1  0  0  0
 16 17  1  0  0  0
 16 18  1  0  0  0
 16 19  1  0  0  0
 18 36  1  0  0  0
 18 37  1  0  0  0
 19 38  1  0  0  0
 20 39  1  0  0  0
 21 40  1  0  0  0
M  END
> <i_i_glide_confnum>
6

> <i_i_glide_lignum>
1740

> <i_i_glide_posenum>
48

> <i_i_glide_rotatable_bonds>
4

> <i_m_Source_File_Index>
4468

> <b_m_subgroup_collapsed>
0

> <r_i_docking_score>
-6.34965

> <r_i_glide_ecoul>
-5.16246

> <r_i_glide_eff_state_penalty>
0

> <r_i_glide_einternal>
8.9894

> <r_i_glide_emodel>
-38.0335

> <r_i_glide_energy>
-30.9715

> <r_i_glide_erotb>
0.25607

> <r_i_glide_esite>
0

> <r_i_glide_evdw>
-25.809

> <r_i_glide_gscore>
-6.34965

> <r_i_glide_hbond>
0

> <r_i_glide_ligand_efficiency>
-0.334192

> <r_i_glide_ligand_efficiency_ln>
-1.60977

> <r_i_glide_ligand_efficiency_sa>
-0.891758

> <r_i_glide_lipo>
-2.69755

> <r_i_glide_metal>
0

> <r_i_glide_rewards>
-1.84335

> <s_i_glide_gridfile>
wee1_glide-grid

> <s_m_Source_File>
wee1_decoys_glide_SP.sdf

> <s_m_Source_Path>
/Users/zhangxujun/Desktop

> <s_m_entry_id>
4743

> <s_m_entry_name>
wee1_decoys_glide_SP.4468

> <s_m_subgroup_title>
wee1_decoys_glide_SP

> <s_m_subgroupid>
wee1_decoys_glide_SP


$$$$
