@<TRIPOS>MOLECULE
ZINC19631798_2612
54   57    1
SMALL
USER_CHARGES


@<TRIPOS>ATOM
      1 C1          2.2657   54.4927   23.4199 C.3       1 UNK         0.0000 
      2 O2          1.4680   53.3406   23.6472 O.3       1 UNK         0.0000 
      3 C3          1.7521   52.1809   22.9464 C.ar      1 UNK         0.0000 
      4 C4          2.6449   52.1237   21.8604 C.ar      1 UNK         0.0000 
      5 C5          2.9129   50.9141   21.2188 C.ar      1 UNK         0.0000 
      6 C6          2.3045   49.7410   21.6598 C.ar      1 UNK         0.0000 
      7 C7          1.4134   49.7785   22.7298 C.ar      1 UNK         0.0000 
      8 C8          1.1166   50.9936   23.3523 C.ar      1 UNK         0.0000 
      9 N9          0.2005   50.9779   24.4091 N.am      1 UNK         0.0000 
     10 C10        -1.0392   51.5052   24.3469 C.2       1 UNK         0.0000 
     11 O11        -1.5399   52.0224   23.3450 O.2       1 UNK         0.0000 
     12 C12        -1.7754   51.3762   25.5796 C.2       1 UNK         0.0000 
     13 C13        -3.1310   51.0008   25.6240 C.2       1 UNK         0.0000 
     14 C14        -3.6371   50.9061   26.8978 C.2       1 UNK         0.0000 
     15 S15        -2.4771   51.2966   28.1093 S.3       1 UNK         0.0000 
     16 C16        -1.3015   51.7081   26.8703 C.2       1 UNK         0.0000 
     17 N17        -0.0753   52.3163   27.1441 N.am      1 UNK         0.0000 
     18 C18         0.3904   52.8455   28.2986 C.2       1 UNK         0.0000 
     19 O19        -0.2386   52.8588   29.3554 O.2       1 UNK         0.0000 
     20 C20         1.7361   53.6227   28.1936 C.3       1 UNK         0.0000 
     21 H21         1.3935   54.5992   27.8486 H         1 UNK         0.0000 
     22 C22         2.6737   53.0544   27.0857 C.3       1 UNK         0.0000 
     23 C23         4.0493   53.7062   27.1173 C.2       1 UNK         0.0000 
     24 C24         4.4874   54.4963   28.1139 C.2       1 UNK         0.0000 
     25 C25         3.6832   54.8047   29.3724 C.3       1 UNK         0.0000 
     26 C26         2.4787   53.8275   29.5630 C.3       1 UNK         0.0000 
     27 H27         1.8212   54.2810   30.3075 H         1 UNK         0.0000 
     28 C28         2.9570   52.4967   30.2235 C.2       1 UNK         0.0000 
     29 O29         3.9132   51.8667   29.7232 O.co2     1 UNK         0.0000 
     30 O30         2.3287   52.0977   31.2270 O.co2     1 UNK         0.0000 
     31 C31        -5.0784   50.4800   26.9284 C.3       1 UNK         0.0000 
     32 C32        -5.4729   50.6678   25.4536 C.3       1 UNK         0.0000 
     33 C33        -4.1809   50.5783   24.6239 C.3       1 UNK         0.0000 
     34 H34         1.9343   55.2904   24.0816 H         1 UNK         0.0000 
     35 H35         3.3178   54.3002   23.6361 H         1 UNK         0.0000 
     36 H36         2.1717   54.8474   22.3953 H         1 UNK         0.0000 
     37 H37         3.1410   53.0101   21.4962 H         1 UNK         0.0000 
     38 H38         3.5964   50.8859   20.3812 H         1 UNK         0.0000 
     39 H39         2.5272   48.8038   21.1700 H         1 UNK         0.0000 
     40 H40         0.9448   48.8655   23.0664 H         1 UNK         0.0000 
     41 H41         0.4611   50.4675   25.2403 H         1 UNK         0.0000 
     42 H42         0.5133   52.4569   26.3368 H         1 UNK         0.0000 
     43 H43         2.8234   51.9973   27.2817 H         1 UNK         0.0000 
     44 H44         2.2310   53.1281   26.0937 H         1 UNK         0.0000 
     45 H45         4.7180   53.5283   26.2874 H         1 UNK         0.0000 
     46 H46         5.4793   54.9152   28.0228 H         1 UNK         0.0000 
     47 H47         3.3168   55.8279   29.2864 H         1 UNK         0.0000 
     48 H48         4.3526   54.7935   30.2316 H         1 UNK         0.0000 
     49 H49        -5.1887   49.4442   27.2521 H         1 UNK         0.0000 
     50 H50        -5.6973   51.0992   27.5781 H         1 UNK         0.0000 
     51 H51        -6.2249   49.9464   25.1310 H         1 UNK         0.0000 
     52 H52        -5.9130   51.6581   25.3221 H         1 UNK         0.0000 
     53 H53        -4.2230   51.2103   23.7361 H         1 UNK         0.0000 
     54 H54        -4.0170   49.5526   24.2922 H         1 UNK         0.0000 
@<TRIPOS>BOND
     1    1    2 1    
     2    1   34 1    
     3    1   35 1    
     4    1   36 1    
     5    2    3 1    
     6    3    8 ar   
     7    3    4 ar   
     8    4    5 ar   
     9    4   37 1    
    10    5    6 ar   
    11    5   38 1    
    12    6    7 ar   
    13    6   39 1    
    14    7    8 ar   
    15    7   40 1    
    16    8    9 1    
    17    9   10 am   BACKBONE|DICT|INTERRES
    18    9   41 1    
    19   10   11 2    
    20   10   12 1    
    21   12   16 2    
    22   12   13 1    
    23   13   33 1    
    24   13   14 2    
    25   14   15 1    
    26   14   31 1    
    27   15   16 1    
    28   16   17 am   BACKBONE|DICT|INTERRES
    29   17   18 am   BACKBONE|DICT|INTERRES
    30   17   42 1    
    31   18   19 2    
    32   18   20 1    
    33   20   21 1    
    34   20   26 1    
    35   20   22 1    
    36   22   23 1    
    37   22   43 1    
    38   22   44 1    
    39   23   24 2    
    40   23   45 1    
    41   24   25 1    
    42   24   46 1    
    43   25   26 1    
    44   25   47 1    
    45   25   48 1    
    46   26   27 1    
    47   26   28 1    
    48   28   29 2    
    49   28   30 1    
    50   31   32 1    
    51   31   49 1    
    52   31   50 1    
    53   32   33 1    
    54   32   51 1    
    55   32   52 1    
    56   33   53 1    
    57   33   54 1    
@<TRIPOS>SUBSTRUCTURE
     1 UNK         1 GROUP             0       ****    0 ROOT    
