@<TRIPOS>MOLECULE
ZINC39687272_5556
79   83    1
SMALL
USER_CHARGES


@<TRIPOS>ATOM
      1 C1          0.0091   52.5399   30.8850 C.3       1 UNK         0.0000 
      2 C2          0.5538   52.7344   29.4826 C.ar      1 UNK         0.0000 
      3 C3          0.4475   51.6939   28.5649 C.ar      1 UNK         0.0000 
      4 C4          0.9398   51.8384   27.2728 C.ar      1 UNK         0.0000 
      5 C5          1.5029   53.0516   26.8379 C.ar      1 UNK         0.0000 
      6 C6          1.6488   54.0749   27.7929 C.ar      1 UNK         0.0000 
      7 C7          1.1730   53.9258   29.0978 C.ar      1 UNK         0.0000 
      8 F8          1.3168   54.9427   29.9802 F         1 UNK         0.0000 
      9 C9          1.9817   53.2798   25.4063 C.2       1 UNK         0.0000 
     10 O10         2.8944   54.0885   25.2162 O.2       1 UNK         0.0000 
     11 N11         1.4126   52.6095   24.3623 N.am      1 UNK         0.0000 
     12 C12         0.1802   51.8144   24.4069 C.3       1 UNK         0.0000 
     13 C13        -0.3007   51.7788   22.9430 C.3       1 UNK         0.0000 
     14 H14        -0.9262   52.6534   22.7546 H         1 UNK         0.0000 
     15 C15         1.0155   51.8540   22.1076 C.3       1 UNK         0.0000 
     16 C16         1.8437   52.8354   22.9746 C.3       1 UNK         0.0000 
     17 C17         0.8030   52.3286   20.6473 C.3       1 UNK         0.0000 
     18 C18         2.1320   52.5173   19.8809 C.3       1 UNK         0.0000 
     19 N19         2.8880   51.1720   19.8553 N.4       1 UNK         0.0000 
     20 C20         3.1065   50.5826   21.2658 C.3       1 UNK         0.0000 
     21 C21         1.7535   50.4801   21.9940 C.3       1 UNK         0.0000 
     22 C22        -1.2243   50.5423   22.7194 C.2       1 UNK         0.0000 
     23 O23        -1.2445   50.0008   21.6145 O.2       1 UNK         0.0000 
     24 N24        -1.9765   50.0938   23.7491 N.am      1 UNK         0.0000 
     25 C25        -2.8282   48.8872   23.7587 C.3       1 UNK         0.0000 
     26 H26        -2.1046   48.0754   23.7178 H         1 UNK         0.0000 
     27 C27        -3.5671   48.8153   25.1247 C.3       1 UNK         0.0000 
     28 C28        -4.2211   47.4810   25.4751 C.ar      1 UNK         0.0000 
     29 C29        -5.4422   47.1048   24.8778 C.ar      1 UNK         0.0000 
     30 C30        -6.0013   45.8624   25.1417 C.ar      1 UNK         0.0000 
     31 C31        -5.3622   44.9767   26.0008 C.ar      1 UNK         0.0000 
     32 C32        -4.1557   45.3228   26.5887 C.ar      1 UNK         0.0000 
     33 C33        -3.5650   46.5537   26.3175 C.ar      1 UNK         0.0000 
     34 C34        -3.8218   48.8270   22.5585 C.2       1 UNK         0.0000 
     35 O35        -4.4885   49.8406   22.3230 O.2       1 UNK         0.0000 
     36 N36        -3.9376   47.6823   21.8276 N.am      1 UNK         0.0000 
     37 C37        -4.5547   47.7262   20.4907 C.3       1 UNK         0.0000 
     38 C38        -3.3887   47.8330   19.4761 C.3       1 UNK         0.0000 
     39 C39        -2.3486   46.6991   19.6480 C.3       1 UNK         0.0000 
     40 C40        -1.9232   46.5242   21.1235 C.3       1 UNK         0.0000 
     41 C41        -3.1493   46.4595   22.0629 C.3       1 UNK         0.0000 
     42 H42        -0.4955   51.5810   31.0055 H         1 UNK         0.0000 
     43 H43         0.8049   52.6105   31.6259 H         1 UNK         0.0000 
     44 H44        -0.7232   53.3021   31.1250 H         1 UNK         0.0000 
     45 H45        -0.0126   50.7589   28.8538 H         1 UNK         0.0000 
     46 H46         0.8835   50.9688   26.6436 H         1 UNK         0.0000 
     47 H47         2.1197   55.0093   27.5312 H         1 UNK         0.0000 
     48 H48        -0.5991   52.2377   25.0456 H         1 UNK         0.0000 
     49 H49         0.4701   50.7967   24.6747 H         1 UNK         0.0000 
     50 H50         2.9191   52.8142   22.8023 H         1 UNK         0.0000 
     51 H51         1.5420   53.8531   22.7172 H         1 UNK         0.0000 
     52 H52         0.1285   51.6624   20.1074 H         1 UNK         0.0000 
     53 H53         0.3048   53.2959   20.6628 H         1 UNK         0.0000 
     54 H54         1.9698   52.8009   18.8398 H         1 UNK         0.0000 
     55 H55         2.7925   53.2528   20.3451 H         1 UNK         0.0000 
     56 H56         2.3585   50.5115   19.3032 H         1 UNK         0.0000 
     57 H57         3.5029   49.5890   21.1005 H         1 UNK         0.0000 
     58 H58         3.8563   51.1966   21.7663 H         1 UNK         0.0000 
     59 H59         1.9414   50.0744   22.9898 H         1 UNK         0.0000 
     60 H60         1.1520   49.7206   21.4986 H         1 UNK         0.0000 
     61 H61        -1.9517   50.5908   24.6263 H         1 UNK         0.0000 
     62 H62        -4.3420   49.5839   25.1589 H         1 UNK         0.0000 
     63 H63        -2.8834   49.0748   25.9364 H         1 UNK         0.0000 
     64 H64        -5.9532   47.7873   24.2127 H         1 UNK         0.0000 
     65 H65        -6.9412   45.5872   24.6870 H         1 UNK         0.0000 
     66 H66        -5.8132   44.0209   26.2204 H         1 UNK         0.0000 
     67 H67        -3.6925   44.6363   27.2809 H         1 UNK         0.0000 
     68 H68        -2.6246   46.8162   26.7842 H         1 UNK         0.0000 
     69 H69        -5.0998   46.7899   20.3512 H         1 UNK         0.0000 
     70 H70        -5.3222   48.4967   20.3975 H         1 UNK         0.0000 
     71 H71        -3.7839   47.8255   18.4600 H         1 UNK         0.0000 
     72 H72        -2.9014   48.8039   19.5892 H         1 UNK         0.0000 
     73 H73        -1.4754   46.9010   19.0259 H         1 UNK         0.0000 
     74 H74        -2.7800   45.7639   19.2847 H         1 UNK         0.0000 
     75 H75        -1.2705   47.3447   21.4248 H         1 UNK         0.0000 
     76 H76        -1.3231   45.6186   21.2349 H         1 UNK         0.0000 
     77 H77        -2.9479   46.2622   23.1151 H         1 UNK         0.0000 
     78 H78        -3.7870   45.6202   21.7824 H         1 UNK         0.0000 
     79 H79         3.7742   51.2686   19.3680 H         1 UNK         0.0000 
@<TRIPOS>BOND
     1    1    2 1    
     2    1   42 1    
     3    1   43 1    
     4    1   44 1    
     5    2    7 ar   
     6    2    3 ar   
     7    3    4 ar   
     8    3   45 1    
     9    4    5 ar   
    10    4   46 1    
    11    5    6 ar   
    12    5    9 1    
    13    6    7 ar   
    14    6   47 1    
    15    7    8 1    
    16    9   10 2    
    17    9   11 am   BACKBONE|DICT|INTERRES
    18   11   16 1    
    19   11   12 1    
    20   12   13 1    
    21   12   48 1    
    22   12   49 1    
    23   13   14 1    
    24   13   15 1    
    25   13   22 1    
    26   15   21 1    
    27   15   16 1    
    28   15   17 1    
    29   16   50 1    
    30   16   51 1    
    31   17   18 1    
    32   17   52 1    
    33   17   53 1    
    34   18   19 1    
    35   18   54 1    
    36   18   55 1    
    37   19   20 1    
    38   19   56 1    
    39   19   79 1    
    40   20   21 1    
    41   20   57 1    
    42   20   58 1    
    43   21   59 1    
    44   21   60 1    
    45   22   23 2    
    46   22   24 am   BACKBONE|DICT|INTERRES
    47   24   25 1    
    48   24   61 1    
    49   25   26 1    
    50   25   27 1    
    51   25   34 1    
    52   27   28 1    
    53   27   62 1    
    54   27   63 1    
    55   28   33 ar   
    56   28   29 ar   
    57   29   30 ar   
    58   29   64 1    
    59   30   31 ar   
    60   30   65 1    
    61   31   32 ar   
    62   31   66 1    
    63   32   33 ar   
    64   32   67 1    
    65   33   68 1    
    66   34   35 2    
    67   34   36 am   BACKBONE|DICT|INTERRES
    68   36   41 1    
    69   36   37 1    
    70   37   38 1    
    71   37   69 1    
    72   37   70 1    
    73   38   39 1    
    74   38   71 1    
    75   38   72 1    
    76   39   40 1    
    77   39   73 1    
    78   39   74 1    
    79   40   41 1    
    80   40   75 1    
    81   40   76 1    
    82   41   77 1    
    83   41   78 1    
@<TRIPOS>SUBSTRUCTURE
     1 UNK         1 GROUP             0       ****    0 ROOT    
