ZINC32528120_437
                    3D
 Schrodinger Suite 2024-2.
 48 51  0  0  1  0            999 V2000
    0.8459   52.9916   31.4532 C   0  0  0  0  0  0
    0.8478   54.1129   30.3930 C   0  0  0  0  0  0
    1.7715   53.9267   29.1541 C   0  0  2  0  0  0
    1.6016   54.8070   28.5306 H   0  0  0  0  0  0
    1.4247   52.6668   28.3276 C   0  0  0  0  0  0
    1.4951   51.5522   28.8447 O   0  0  0  0  0  0
    1.1018   52.8975   27.0382 N   0  0  0  0  0  0
    0.7045   51.9952   26.0715 C   0  0  0  0  0  0
    0.6694   52.3749   24.8268 N   0  0  0  0  0  0
    0.2386   51.3727   24.0167 C   0  0  0  0  0  0
    0.1064   51.4771   22.6250 C   0  0  0  0  0  0
   -0.3855   50.3770   21.9222 C   0  0  0  0  0  0
   -0.7496   49.1983   22.5803 C   0  0  0  0  0  0
   -0.5935   49.0602   23.9648 C   0  0  0  0  0  0
   -0.0995   50.1604   24.6757 C   0  0  0  0  0  0
    0.2007   50.3414   26.3966 S   0  0  0  0  0  0
   -1.4404   47.8613   21.6186 S   0  0  0  0  0  0
   -0.5404   47.6409   20.4818 O   0  0  0  0  0  0
   -1.7968   46.7764   22.5389 O   0  0  0  0  0  0
   -2.9270   48.5143   20.9859 N   0  0  0  0  0  0
    3.5562   54.0018   29.5565 S   0  0  0  0  0  0
    4.5121   54.0947   28.0611 C   0  0  0  0  0  0
    5.9021   54.0975   28.1497 C   0  0  0  0  0  0
    6.6617   54.1238   26.9825 C   0  0  0  0  0  0
    6.0072   54.1371   25.7266 C   0  0  0  0  0  0
    6.7032   54.1271   24.4923 C   0  0  0  0  0  0
    5.9953   54.1067   23.2927 C   0  0  0  0  0  0
    4.6032   54.0963   23.2876 C   0  0  0  0  0  0
    3.8894   54.1233   24.4837 C   0  0  0  0  0  0
    4.5790   54.1425   25.7207 C   0  0  0  0  0  0
    3.8567   54.1433   26.8744 N   0  0  0  0  0  0
    0.3140   53.3049   32.3528 H   0  0  0  0  0  0
    0.3367   52.0971   31.0937 H   0  0  0  0  0  0
    1.8543   52.7026   31.7480 H   0  0  0  0  0  0
    1.1155   55.0506   30.8823 H   0  0  0  0  0  0
   -0.1788   54.2650   30.0547 H   0  0  0  0  0  0
    1.2581   53.8306   26.6938 H   0  0  0  0  0  0
    0.3760   52.3871   22.1086 H   0  0  0  0  0  0
   -0.4957   50.4445   20.8477 H   0  0  0  0  0  0
   -0.8577   48.1453   24.4814 H   0  0  0  0  0  0
   -3.6186   48.7211   21.7094 H   0  0  0  0  0  0
   -2.7865   49.2779   20.3222 H   0  0  0  0  0  0
    6.3954   54.0812   29.1110 H   0  0  0  0  0  0
    7.7387   54.1136   27.0333 H   0  0  0  0  0  0
    7.7824   54.1173   24.4813 H   0  0  0  0  0  0
    6.5318   54.0969   22.3554 H   0  0  0  0  0  0
    4.0710   54.0777   22.3469 H   0  0  0  0  0  0
    2.8090   54.1181   24.4725 H   0  0  0  0  0  0
  1  2  1  0  0  0
  1 32  1  0  0  0
  1 33  1  0  0  0
  1 34  1  0  0  0
  2  3  1  0  0  0
  2 35  1  0  0  0
  2 36  1  0  0  0
  3  4  1  0  0  0
  3  5  1  0  0  0
  3 21  1  0  0  0
  5  6  2  0  0  0
  5  7  1  0  0  0
  7  8  1  0  0  0
  7 37  1  0  0  0
  8 16  1  0  0  0
  8  9  2  0  0  0
  9 10  1  0  0  0
 10 15  2  0  0  0
 10 11  1  0  0  0
 11 12  2  0  0  0
 11 38  1  0  0  0
 12 13  1  0  0  0
 12 39  1  0  0  0
 13 14  2  0  0  0
 13 17  1  0  0  0
 14 15  1  0  0  0
 14 40  1  0  0  0
 15 16  1  0  0  0
 17 18  2  0  0  0
 17 19  2  0  0  0
 17 20  1  0  0  0
 20 41  1  0  0  0
 20 42  1  0  0  0
 21 22  1  0  0  0
 22 31  2  0  0  0
 22 23  1  0  0  0
 23 24  2  0  0  0
 23 43  1  0  0  0
 24 25  1  0  0  0
 24 44  1  0  0  0
 25 30  2  0  0  0
 25 26  1  0  0  0
 26 27  2  0  0  0
 26 45  1  0  0  0
 27 28  1  0  0  0
 27 46  1  0  0  0
 28 29  2  0  0  0
 28 47  1  0  0  0
 29 30  1  0  0  0
 29 48  1  0  0  0
 30 31  1  0  0  0
M  END
> <i_i_glide_confnum>
1

> <i_i_glide_lignum>
438

> <i_i_glide_posenum>
306

> <i_i_glide_rotatable_bonds>
7

> <i_m_Source_File_Index>
1450

> <b_m_subgroup_collapsed>
0

> <r_i_docking_score>
-5.32883

> <r_i_glide_ecoul>
-1.69099

> <r_i_glide_eff_state_penalty>
0

> <r_i_glide_einternal>
1.85717

> <r_i_glide_emodel>
-63.8683

> <r_i_glide_energy>
-49.4218

> <r_i_glide_erotb>
0.382583

> <r_i_glide_esite>
-0.00383981

> <r_i_glide_evdw>
-47.7308

> <r_i_glide_gscore>
-5.32883

> <r_i_glide_hbond>
0

> <r_i_glide_ligand_efficiency>
-0.177628

> <r_i_glide_ligand_efficiency_ln>
-1.21077

> <r_i_glide_ligand_efficiency_sa>
-0.55193

> <r_i_glide_lipo>
-3.08463

> <r_i_glide_metal>
0

> <r_i_glide_rewards>
0.017247

> <s_i_glide_gridfile>
wee1_glide-grid

> <s_m_Source_File>
wee1_decoys_glide_SP.sdf

> <s_m_Source_Path>
/Users/zhangxujun/Desktop

> <s_m_entry_id>
1725

> <s_m_entry_name>
wee1_decoys_glide_SP.1450

> <s_m_subgroup_title>
wee1_decoys_glide_SP

> <s_m_subgroupid>
wee1_decoys_glide_SP


$$$$
