@<TRIPOS>MOLECULE
ZINC65074691_241
55   58    1
SMALL
USER_CHARGES


@<TRIPOS>ATOM
      1 C1         -3.7620   51.6020   26.8011 C.ar      1 UNK         0.0000 
      2 C2         -3.8386   52.6248   25.8578 C.ar      1 UNK         0.0000 
      3 C3         -3.0921   52.5379   24.6860 C.ar      1 UNK         0.0000 
      4 C4         -2.2694   51.4291   24.4664 C.ar      1 UNK         0.0000 
      5 C5         -2.1868   50.4106   25.4187 C.ar      1 UNK         0.0000 
      6 C6         -2.9426   50.4967   26.5844 C.ar      1 UNK         0.0000 
      7 S7         -1.2844   51.3379   22.9740 S.o2      1 UNK         0.0000 
      8 O8         -1.9307   52.1929   21.9714 O.2       1 UNK         0.0000 
      9 O9         -1.0250   49.9213   22.6921 O.2       1 UNK         0.0000 
     10 N10         0.2479   52.1090   23.4165 N.pl3     1 UNK         0.0000 
     11 C11         1.5358   51.3818   23.3429 C.3       1 UNK         0.0000 
     12 C12         2.5791   52.2167   22.5761 C.3       1 UNK         0.0000 
     13 C13         2.7966   53.6408   23.1758 C.3       1 UNK         0.0000 
     14 C14         1.4066   54.3257   23.2387 C.3       1 UNK         0.0000 
     15 C15         0.2612   53.5104   23.8837 C.3       1 UNK         0.0000 
     16 C16         3.5169   53.6663   24.5501 C.2       1 UNK         0.0000 
     17 N17         4.8282   53.9191   24.6880 N.pl3     1 UNK         0.0000 
     18 C18         5.7299   54.2973   23.6051 C.3       1 UNK         0.0000 
     19 C19         5.0340   54.0508   22.2634 C.3       1 UNK         0.0000 
     20 N20         3.6418   54.4832   22.3167 N.3       1 UNK         0.0000 
     21 N21         2.7678   53.4374   25.6377 N.pl3     1 UNK         0.0000 
     22 C22         3.1914   53.3947   27.0436 C.3       1 UNK         0.0000 
     23 C23         2.0498   53.0916   28.0124 C.ar      1 UNK         0.0000 
     24 C24         1.1919   52.0054   27.7857 C.ar      1 UNK         0.0000 
     25 C25         0.1665   51.7126   28.6861 C.ar      1 UNK         0.0000 
     26 C26        -0.0064   52.4940   29.8279 C.ar      1 UNK         0.0000 
     27 C27         0.8395   53.5783   30.0605 C.ar      1 UNK         0.0000 
     28 C28         1.8646   53.8761   29.1603 C.ar      1 UNK         0.0000 
     29 F29         2.6864   54.9197   29.4196 F         1 UNK         0.0000 
     30 H30        -4.3454   51.6608   27.7082 H         1 UNK         0.0000 
     31 H31        -4.4782   53.4773   26.0326 H         1 UNK         0.0000 
     32 H32        -3.1564   53.3303   23.9543 H         1 UNK         0.0000 
     33 H33        -1.5490   49.5518   25.2601 H         1 UNK         0.0000 
     34 H34        -2.8959   49.7012   27.3161 H         1 UNK         0.0000 
     35 H35         1.3785   50.4199   22.8534 H         1 UNK         0.0000 
     36 H36         1.8671   51.1598   24.3562 H         1 UNK         0.0000 
     37 H37         2.2313   52.3143   21.5454 H         1 UNK         0.0000 
     38 H38         3.5041   51.6587   22.4817 H         1 UNK         0.0000 
     39 H39         1.5043   55.2964   23.7235 H         1 UNK         0.0000 
     40 H40         1.1045   54.5209   22.2144 H         1 UNK         0.0000 
     41 H41        -0.7094   53.9633   23.6821 H         1 UNK         0.0000 
     42 H42         0.3445   53.4879   24.9662 H         1 UNK         0.0000 
     43 H43         5.9651   55.3530   23.7374 H         1 UNK         0.0000 
     44 H44         6.6552   53.7265   23.6902 H         1 UNK         0.0000 
     45 H45         5.5460   54.5975   21.4696 H         1 UNK         0.0000 
     46 H46         5.1089   53.0041   21.9675 H         1 UNK         0.0000 
     47 H47         3.2341   54.4962   21.3867 H         1 UNK         0.0000 
     48 H48         1.7896   53.2611   25.4661 H         1 UNK         0.0000 
     49 H49         3.6483   54.3613   27.2610 H         1 UNK         0.0000 
     50 H50         3.9698   52.6361   27.1350 H         1 UNK         0.0000 
     51 H51         1.3165   51.3751   26.9173 H         1 UNK         0.0000 
     52 H52        -0.4889   50.8709   28.5059 H         1 UNK         0.0000 
     53 H53        -0.7870   52.2513   30.5373 H         1 UNK         0.0000 
     54 H54         0.7064   54.1827   30.9460 H         1 UNK         0.0000 
     55 H55         5.1928   53.9063   25.6296 H         1 UNK         0.0000 
@<TRIPOS>BOND
     1    1    6 ar   
     2    1    2 ar   
     3    1   30 1    
     4    2    3 ar   
     5    2   31 1    
     6    3    4 ar   
     7    3   32 1    
     8    4    5 ar   
     9    4    7 1    
    10    5    6 ar   
    11    5   33 1    
    12    6   34 1    
    13    7    8 2    
    14    7    9 2    
    15    7   10 1    
    16   10   15 1    
    17   10   11 1    
    18   11   12 1    
    19   11   35 1    
    20   11   36 1    
    21   12   13 1    
    22   12   37 1    
    23   12   38 1    
    24   13   20 1    
    25   13   14 1    
    26   13   16 1    
    27   14   15 1    
    28   14   39 1    
    29   14   40 1    
    30   15   41 1    
    31   15   42 1    
    32   16   17 2    
    33   16   21 1    
    34   17   18 1    
    35   17   55 1    
    36   18   19 1    
    37   18   43 1    
    38   18   44 1    
    39   19   20 1    
    40   19   45 1    
    41   19   46 1    
    42   20   47 1    
    43   21   22 1    
    44   21   48 1    
    45   22   23 1    
    46   22   49 1    
    47   22   50 1    
    48   23   28 ar   
    49   23   24 ar   
    50   24   25 ar   
    51   24   51 1    
    52   25   26 ar   
    53   25   52 1    
    54   26   27 ar   
    55   26   53 1    
    56   27   28 ar   
    57   27   54 1    
    58   28   29 1    
@<TRIPOS>SUBSTRUCTURE
     1 UNK         1 GROUP             0       ****    0 ROOT    
