@<TRIPOS>MOLECULE
ZINC02837785_2284
52   56    1
SMALL
USER_CHARGES


@<TRIPOS>ATOM
      1 C1          6.7050   53.7048   26.2166 C.3       1 UNK         0.0000 
      2 O2          5.8283   54.7429   25.8100 O.3       1 UNK         0.0000 
      3 C3          4.9169   54.3925   24.8436 C.ar      1 UNK         0.0000 
      4 C4          5.3364   54.1354   23.5291 C.ar      1 UNK         0.0000 
      5 C5          4.4046   53.8619   22.5187 C.ar      1 UNK         0.0000 
      6 C6          3.0443   53.8835   22.8413 C.ar      1 UNK         0.0000 
      7 C7          2.6225   54.0915   24.1495 C.ar      1 UNK         0.0000 
      8 C8          3.5519   54.3308   25.1671 C.ar      1 UNK         0.0000 
      9 O9          3.1092   54.4972   26.4638 O.3       1 UNK         0.0000 
     10 C10         3.4315   53.4512   27.3796 C.3       1 UNK         0.0000 
     11 C11         2.2018   53.0662   28.1930 C.ar      1 UNK         0.0000 
     12 C12         1.2971   52.1289   27.6807 C.ar      1 UNK         0.0000 
     13 C13         0.1886   51.7326   28.4312 C.ar      1 UNK         0.0000 
     14 C14        -0.0265   52.2755   29.6974 C.ar      1 UNK         0.0000 
     15 C15         0.8662   53.2154   30.2118 C.ar      1 UNK         0.0000 
     16 C16         1.9783   53.6095   29.4652 C.ar      1 UNK         0.0000 
     17 F17         2.8479   54.4998   29.9966 F         1 UNK         0.0000 
     18 Cl18        0.9346   54.0172   24.4802 Cl        1 UNK         0.0000 
     19 C19         4.8622   53.4644   21.1038 C.3       1 UNK         0.0000 
     20 H20         5.8359   52.9915   21.2441 H         1 UNK         0.0000 
     21 C21         3.9355   52.4270   20.4323 C.ar      1 UNK         0.0000 
     22 C22         3.5656   51.2405   21.0927 C.ar      1 UNK         0.0000 
     23 C23         2.7045   50.3542   20.4594 C.ar      1 UNK         0.0000 
     24 C24         2.2009   50.6074   19.2175 C.ar      1 UNK         0.0000 
     25 C25         2.5198   51.7654   18.5228 C.ar      1 UNK         0.0000 
     26 C26         3.3960   52.6674   19.1411 C.ar      1 UNK         0.0000 
     27 O27         3.6820   53.8057   18.4188 O.3       1 UNK         0.0000 
     28 C28         4.5157   54.7270   18.9504 C.2       1 UNK         0.0000 
     29 C29         5.1051   54.6438   20.1608 C.2       1 UNK         0.0000 
     30 C30         5.9974   55.6725   20.5757 C.1       1 UNK         0.0000 
     31 N31         6.7068   56.5305   20.8818 N.1       1 UNK         0.0000 
     32 N32         4.6694   55.7259   18.0287 N.pl3     1 UNK         0.0000 
     33 O33         1.3706   49.5942   18.8567 O.3       1 UNK         0.0000 
     34 C34         1.5997   48.5828   19.8004 C.3       1 UNK         0.0000 
     35 O35         2.2024   49.1774   20.9173 O.3       1 UNK         0.0000 
     36 H36         7.4245   54.1014   26.9337 H         1 UNK         0.0000 
     37 H37         6.1648   52.8969   26.7110 H         1 UNK         0.0000 
     38 H38         7.2559   53.2950   25.3706 H         1 UNK         0.0000 
     39 H39         6.3909   54.1632   23.2966 H         1 UNK         0.0000 
     40 H40         2.3013   53.6984   22.0771 H         1 UNK         0.0000 
     41 H41         3.8074   52.5558   26.8820 H         1 UNK         0.0000 
     42 H42         4.2338   53.7865   28.0390 H         1 UNK         0.0000 
     43 H43         1.4548   51.6979   26.7019 H         1 UNK         0.0000 
     44 H44        -0.4982   50.9933   28.0403 H         1 UNK         0.0000 
     45 H45        -0.8769   51.9570   30.2851 H         1 UNK         0.0000 
     46 H46         0.7026   53.6285   31.1968 H         1 UNK         0.0000 
     47 H47         3.9374   51.0251   22.0813 H         1 UNK         0.0000 
     48 H48         2.1237   51.9647   17.5393 H         1 UNK         0.0000 
     49 H49         5.2041   56.5550   18.2437 H         1 UNK         0.0000 
     50 H50         4.4327   55.5599   17.0619 H         1 UNK         0.0000 
     51 H51         2.2818   47.8439   19.3730 H         1 UNK         0.0000 
     52 H52         0.6682   48.0859   20.0730 H         1 UNK         0.0000 
@<TRIPOS>BOND
     1    1    2 1    
     2    1   36 1    
     3    1   37 1    
     4    1   38 1    
     5    2    3 1    
     6    3    8 ar   
     7    3    4 ar   
     8    4    5 ar   
     9    4   39 1    
    10    5    6 ar   
    11    5   19 1    
    12    6    7 ar   
    13    6   40 1    
    14    7    8 ar   
    15    7   18 1    
    16    8    9 1    
    17    9   10 1    
    18   10   11 1    
    19   10   41 1    
    20   10   42 1    
    21   11   16 ar   
    22   11   12 ar   
    23   12   13 ar   
    24   12   43 1    
    25   13   14 ar   
    26   13   44 1    
    27   14   15 ar   
    28   14   45 1    
    29   15   16 ar   
    30   15   46 1    
    31   16   17 1    
    32   19   20 1    
    33   19   29 1    
    34   19   21 1    
    35   21   26 ar   
    36   21   22 ar   
    37   22   23 ar   
    38   22   47 1    
    39   23   35 1    
    40   23   24 ar   
    41   24   25 ar   
    42   24   33 1    
    43   25   26 ar   
    44   25   48 1    
    45   26   27 1    
    46   27   28 1    
    47   28   29 2    
    48   28   32 1    
    49   29   30 1    
    50   30   31 3    
    51   32   49 1    
    52   32   50 1    
    53   33   34 1    
    54   34   35 1    
    55   34   51 1    
    56   34   52 1    
@<TRIPOS>SUBSTRUCTURE
     1 UNK         1 GROUP             0       ****    0 ROOT    
