@<TRIPOS>MOLECULE
ZINC40415847_2213
57   60    1
SMALL
USER_CHARGES


@<TRIPOS>ATOM
      1 C1         -0.3129   52.4493   29.8441 C.ar      1 UNK         0.0000 
      2 C2          0.4779   51.6968   28.9844 C.ar      1 UNK         0.0000 
      3 C3          1.7772   52.1061   28.7153 C.ar      1 UNK         0.0000 
      4 C4          2.2685   53.3006   29.2625 C.ar      1 UNK         0.0000 
      5 C5          1.4398   54.0772   30.0796 C.ar      1 UNK         0.0000 
      6 C6          0.1562   53.6423   30.3864 C.ar      1 UNK         0.0000 
      7 C7          3.7121   53.7041   29.0767 C.2       1 UNK         0.0000 
      8 O8          4.3044   54.1402   30.0626 O.2       1 UNK         0.0000 
      9 N9          4.3224   53.4950   27.8790 N.am      1 UNK         0.0000 
     10 C10         5.7923   53.5402   27.7803 C.3       1 UNK         0.0000 
     11 C11         6.3870   54.8260   27.1780 C.3       1 UNK         0.0000 
     12 C12         6.3866   54.8900   25.6345 C.3       1 UNK         0.0000 
     13 N13         5.0750   54.7046   24.9802 N.pl3     1 UNK         0.0000 
     14 C14         3.8069   54.7409   25.7307 C.3       1 UNK         0.0000 
     15 C15         3.5520   53.5288   26.6293 C.3       1 UNK         0.0000 
     16 C16         5.0240   54.4926   23.5535 C.ar      1 UNK         0.0000 
     17 C17         6.1117   54.7612   22.7065 C.ar      1 UNK         0.0000 
     18 C18         5.9693   54.6172   21.3234 C.ar      1 UNK         0.0000 
     19 C19         4.7819   54.0986   20.7800 C.ar      1 UNK         0.0000 
     20 C20         3.7229   53.8322   21.6527 C.ar      1 UNK         0.0000 
     21 N21         3.8801   54.0499   22.9746 N.pl3     1 UNK         0.0000 
     22 N22         4.5766   53.8222   19.4141 N.am      1 UNK         0.0000 
     23 C23         5.5001   53.6983   18.4377 C.2       1 UNK         0.0000 
     24 O24         6.7040   53.9119   18.5845 O.2       1 UNK         0.0000 
     25 N25         4.9177   53.2969   17.2902 N.am      1 UNK         0.0000 
     26 C26         5.5066   52.9431   16.0613 C.ar      1 UNK         0.0000 
     27 C27         4.6330   52.4671   15.0764 C.ar      1 UNK         0.0000 
     28 C28         5.1159   52.0622   13.8315 C.ar      1 UNK         0.0000 
     29 C29         6.4800   52.1311   13.5550 C.ar      1 UNK         0.0000 
     30 C30         7.3633   52.6080   14.5259 C.ar      1 UNK         0.0000 
     31 C31         6.8820   53.0116   15.7710 C.ar      1 UNK         0.0000 
     32 F32         8.6885   52.6770   14.2630 F         1 UNK         0.0000 
     33 F33         6.9430   51.7379   12.3447 F         1 UNK         0.0000 
     34 H34        -1.2955   52.0865   30.1011 H         1 UNK         0.0000 
     35 H35         0.0952   50.7771   28.5668 H         1 UNK         0.0000 
     36 H36         2.4018   51.4728   28.1005 H         1 UNK         0.0000 
     37 H37         1.7957   55.0042   30.5079 H         1 UNK         0.0000 
     38 H38        -0.4647   54.2178   31.0553 H         1 UNK         0.0000 
     39 H39         6.2451   53.3676   28.7595 H         1 UNK         0.0000 
     40 H40         6.1139   52.6710   27.2069 H         1 UNK         0.0000 
     41 H41         5.9045   55.6958   27.6159 H         1 UNK         0.0000 
     42 H42         7.4305   54.8863   27.4998 H         1 UNK         0.0000 
     43 H43         6.7720   55.8531   25.3007 H         1 UNK         0.0000 
     44 H44         7.0446   54.1088   25.2481 H         1 UNK         0.0000 
     45 H45         2.9567   54.8966   25.0687 H         1 UNK         0.0000 
     46 H46         3.8286   55.6550   26.3232 H         1 UNK         0.0000 
     47 H47         3.8315   52.6490   26.0584 H         1 UNK         0.0000 
     48 H48         2.4766   53.4318   26.7672 H         1 UNK         0.0000 
     49 H49         7.0526   55.1327   23.0908 H         1 UNK         0.0000 
     50 H50         6.8109   54.8888   20.7020 H         1 UNK         0.0000 
     51 H51         2.7552   53.4612   21.3439 H         1 UNK         0.0000 
     52 H52         3.6273   53.5973   19.1603 H         1 UNK         0.0000 
     53 H53         3.9216   53.1483   17.3219 H         1 UNK         0.0000 
     54 H54         3.5737   52.3888   15.2749 H         1 UNK         0.0000 
     55 H55         4.4352   51.6849   13.0822 H         1 UNK         0.0000 
     56 H56         7.6034   53.3659   16.4889 H         1 UNK         0.0000 
     57 H57         3.0964   53.8500   23.5802 H         1 UNK         0.0000 
@<TRIPOS>BOND
     1    1    6 ar   
     2    1    2 ar   
     3    1   34 1    
     4    2    3 ar   
     5    2   35 1    
     6    3    4 ar   
     7    3   36 1    
     8    4    5 ar   
     9    4    7 1    
    10    5    6 ar   
    11    5   37 1    
    12    6   38 1    
    13    7    8 2    
    14    7    9 am   BACKBONE|DICT|INTERRES
    15    9   15 1    
    16    9   10 1    
    17   10   11 1    
    18   10   39 1    
    19   10   40 1    
    20   11   12 1    
    21   11   41 1    
    22   11   42 1    
    23   12   13 1    
    24   12   43 1    
    25   12   44 1    
    26   13   14 1    
    27   13   16 1    
    28   14   15 1    
    29   14   45 1    
    30   14   46 1    
    31   15   47 1    
    32   15   48 1    
    33   16   21 ar   
    34   16   17 ar   
    35   17   18 ar   
    36   17   49 1    
    37   18   19 ar   
    38   18   50 1    
    39   19   20 ar   
    40   19   22 1    
    41   20   21 ar   
    42   20   51 1    
    43   21   57 1    
    44   22   23 am   BACKBONE|DICT|INTERRES
    45   22   52 1    
    46   23   24 2    
    47   23   25 am   BACKBONE|DICT|INTERRES
    48   25   26 1    
    49   25   53 1    
    50   26   31 ar   
    51   26   27 ar   
    52   27   28 ar   
    53   27   54 1    
    54   28   29 ar   
    55   28   55 1    
    56   29   30 ar   
    57   29   33 1    
    58   30   31 ar   
    59   30   32 1    
    60   31   56 1    
@<TRIPOS>SUBSTRUCTURE
     1 UNK         1 GROUP             0       ****    0 ROOT    
