@<TRIPOS>MOLECULE
ZINC12329302_209
60   64    1
SMALL
USER_CHARGES


@<TRIPOS>ATOM
      1 C1          6.5900   54.8700   24.0847 C.3       1 UNK         0.0000 
      2 O2          5.2229   54.4967   24.2353 O.3       1 UNK         0.0000 
      3 C3          4.7237   54.2541   25.5001 C.ar      1 UNK         0.0000 
      4 C4          5.4634   54.3914   26.6837 C.ar      1 UNK         0.0000 
      5 C5          4.8801   54.1141   27.9183 C.ar      1 UNK         0.0000 
      6 C6          3.5478   53.6963   28.0127 C.ar      1 UNK         0.0000 
      7 C7          2.8133   53.5454   26.8199 C.ar      1 UNK         0.0000 
      8 C8          3.3933   53.8411   25.5863 C.ar      1 UNK         0.0000 
      9 O9          1.4662   53.2141   26.7833 O.3       1 UNK         0.0000 
     10 C10         0.9154   52.5442   27.9316 C.3       1 UNK         0.0000 
     11 C11         1.2294   51.0334   27.8589 C.3       1 UNK         0.0000 
     12 C12         0.7044   50.3652   26.5649 C.3       1 UNK         0.0000 
     13 C13        -1.1990   52.0353   26.5389 C.3       1 UNK         0.0000 
     14 C14        -0.6211   52.6462   27.8293 C.3       1 UNK         0.0000 
     15 C15        -1.3554   49.8622   25.1770 C.3       1 UNK         0.0000 
     16 C16        -2.7048   49.1330   25.3802 C.3       1 UNK         0.0000 
     17 H17        -3.0551   48.8061   24.3993 H         1 UNK         0.0000 
     18 C18        -3.8019   50.0277   25.9621 C.ar      1 UNK         0.0000 
     19 C19        -4.1605   49.9714   27.3221 C.ar      1 UNK         0.0000 
     20 C20        -5.1006   50.8620   27.8475 C.ar      1 UNK         0.0000 
     21 C21        -5.6885   51.7871   26.9908 C.ar      1 UNK         0.0000 
     22 C22        -5.3689   51.8478   25.6478 C.ar      1 UNK         0.0000 
     23 C23        -4.4162   50.9742   25.1258 C.ar      1 UNK         0.0000 
     24 C24        -6.1107   52.9984   25.0481 C.3       1 UNK         0.0000 
     25 C25        -7.0618   53.3833   26.1906 C.3       1 UNK         0.0000 
     26 O26        -6.5836   52.7501   27.3797 O.3       1 UNK         0.0000 
     27 O27        -2.4956   47.9199   26.0817 O.3       1 UNK         0.0000 
     28 C28         1.4088   53.2586   29.2211 C.3       1 UNK         0.0000 
     29 C29         2.9403   53.2929   29.3469 C.3       1 UNK         0.0000 
     30 H30         3.2147   54.0364   30.0961 H         1 UNK         0.0000 
     31 O31         3.4551   52.0708   29.8318 O.3       1 UNK         0.0000 
     32 H32         6.8157   54.9983   23.0261 H         1 UNK         0.0000 
     33 H33         6.8051   55.8170   24.5817 H         1 UNK         0.0000 
     34 H34         7.2615   54.1013   24.4711 H         1 UNK         0.0000 
     35 H35         6.4950   54.7059   26.6671 H         1 UNK         0.0000 
     36 H36         5.4790   54.2194   28.8123 H         1 UNK         0.0000 
     37 H37         2.8084   53.7453   24.6840 H         1 UNK         0.0000 
     38 H38         0.7948   50.5527   28.7323 H         1 UNK         0.0000 
     39 H39         2.3015   50.8675   27.9306 H         1 UNK         0.0000 
     40 H40         0.9066   49.2911   26.5766 H         1 UNK         0.0000 
     41 H41         1.1044   50.8172   25.6560 H         1 UNK         0.0000 
     42 H42        -0.8086   52.5178   25.6407 H         1 UNK         0.0000 
     43 H43        -2.2848   52.1098   26.5539 H         1 UNK         0.0000 
     44 H44        -0.8956   53.6980   27.8676 H         1 UNK         0.0000 
     45 H45        -1.0906   52.1810   28.6984 H         1 UNK         0.0000 
     46 H46        -0.6069   49.1416   24.8389 H         1 UNK         0.0000 
     47 H47        -1.4097   50.6330   24.4067 H         1 UNK         0.0000 
     48 H48        -3.6955   49.2567   27.9873 H         1 UNK         0.0000 
     49 H49        -5.3539   50.8265   28.8964 H         1 UNK         0.0000 
     50 H50        -4.1334   51.0395   24.0850 H         1 UNK         0.0000 
     51 H51        -6.6614   52.7527   24.1384 H         1 UNK         0.0000 
     52 H52        -5.4413   53.8290   24.8215 H         1 UNK         0.0000 
     53 H53        -7.1844   54.4604   26.3093 H         1 UNK         0.0000 
     54 H54        -8.0495   52.9697   25.9777 H         1 UNK         0.0000 
     55 H55        -2.1085   48.0967   26.9714 H         1 UNK         0.0000 
     56 H56         1.0679   54.2949   29.1958 H         1 UNK         0.0000 
     57 H57         0.9548   52.8416   30.1215 H         1 UNK         0.0000 
     58 H58         4.3846   52.0345   29.5909 H         1 UNK         0.0000 
     59 N59        -0.8265   50.5282   26.4817 N.4       1 UNK         0.0000 
     60 H60        -1.2231   50.0328   27.2782 H         1 UNK         0.0000 
@<TRIPOS>BOND
     1    1    2 1    
     2    1   32 1    
     3    1   33 1    
     4    1   34 1    
     5    2    3 1    
     6    3    8 ar   
     7    3    4 ar   
     8    4    5 ar   
     9    4   35 1    
    10    5    6 ar   
    11    5   36 1    
    12    6   29 1    
    13    6    7 ar   
    14    7    8 ar   
    15    7    9 1    
    16    8   37 1    
    17    9   10 1    
    18   10   14 1    
    19   10   11 1    
    20   10   28 1    
    21   11   12 1    
    22   11   38 1    
    23   11   39 1    
    24   12   40 1    
    25   12   41 1    
    26   12   59 1    
    27   13   14 1    
    28   13   42 1    
    29   13   43 1    
    30   13   59 1    
    31   14   44 1    
    32   14   45 1    
    33   15   16 1    
    34   15   46 1    
    35   15   47 1    
    36   15   59 1    
    37   16   17 1    
    38   16   18 1    
    39   16   27 1    
    40   18   23 ar   
    41   18   19 ar   
    42   19   20 ar   
    43   19   48 1    
    44   20   21 ar   
    45   20   49 1    
    46   21   26 1    
    47   21   22 ar   
    48   22   23 ar   
    49   22   24 1    
    50   23   50 1    
    51   24   25 1    
    52   24   51 1    
    53   24   52 1    
    54   25   26 1    
    55   25   53 1    
    56   25   54 1    
    57   27   55 1    
    58   28   29 1    
    59   28   56 1    
    60   28   57 1    
    61   29   30 1    
    62   29   31 1    
    63   31   58 1    
    64   59   60 1    
@<TRIPOS>SUBSTRUCTURE
     1 UNK         1 GROUP             0       ****    0 ROOT    
