@<TRIPOS>MOLECULE
ZINC13181514_3296
62   65    1
SMALL
USER_CHARGES


@<TRIPOS>ATOM
      1 C1          5.5444   54.6302   19.6378 C.3       1 UNK         0.0000 
      2 C2          4.7125   53.5068   20.2881 C.3       1 UNK         0.0000 
      3 H3          5.2996   52.5912   20.2116 H         1 UNK         0.0000 
      4 C4          4.4707   53.7797   21.7958 C.ar      1 UNK         0.0000 
      5 C5          3.1980   53.8601   22.3755 C.ar      1 UNK         0.0000 
      6 C6          3.0509   54.0212   23.7514 C.ar      1 UNK         0.0000 
      7 C7          4.1617   54.1102   24.5958 C.ar      1 UNK         0.0000 
      8 C8          5.4512   54.1161   24.0196 C.ar      1 UNK         0.0000 
      9 C9          5.5746   53.9537   22.6367 C.ar      1 UNK         0.0000 
     10 C10         6.7038   54.3341   24.8702 C.3       1 UNK         0.0000 
     11 C11         6.4967   53.9776   26.3517 C.3       1 UNK         0.0000 
     12 C12         5.2116   54.6212   26.8784 C.3       1 UNK         0.0000 
     13 C13         3.9752   54.1160   26.1143 C.3       1 UNK         0.0000 
     14 N14         3.5044   53.2956   19.4845 N.pl3     1 UNK         0.0000 
     15 C15         2.5645   52.2506   19.5837 C.ar      1 UNK         0.0000 
     16 C16         2.7260   51.2230   20.5251 C.ar      1 UNK         0.0000 
     17 C17         1.7448   50.2510   20.7077 C.ar      1 UNK         0.0000 
     18 C18         0.5783   50.2948   19.9458 C.ar      1 UNK         0.0000 
     19 C19         0.4311   51.2768   18.9690 C.ar      1 UNK         0.0000 
     20 C20         1.4138   52.2580   18.7550 C.ar      1 UNK         0.0000 
     21 N21         1.1730   53.2735   17.6867 N.pl3     1 UNK         0.0000 
     22 O22         0.0378   53.3669   17.2253 O.co2     1 UNK         0.0000 
     23 O23         2.0933   53.9765   17.2810 O.co2     1 UNK         0.0000 
     24 S24        -0.7506   49.1198   20.2107 S.o2      1 UNK         0.0000 
     25 O25        -1.9995   49.8634   20.0009 O.2       1 UNK         0.0000 
     26 O26        -0.4961   48.4516   21.4920 O.2       1 UNK         0.0000 
     27 N27        -0.5834   47.9188   18.9094 N.pl3     1 UNK         0.0000 
     28 C28        -1.8143   47.4649   18.1893 C.3       1 UNK         0.0000 
     29 C29        -2.3708   46.1470   18.7873 C.3       1 UNK         0.0000 
     30 C30        -1.2495   45.0735   18.7504 C.3       1 UNK         0.0000 
     31 C31        -0.1000   45.5818   19.6555 C.3       1 UNK         0.0000 
     32 C32         0.4794   46.8900   19.0679 C.3       1 UNK         0.0000 
     33 C33        -1.7437   43.6834   19.2382 C.2       1 UNK         0.0000 
     34 O34        -0.8962   42.8964   19.7254 O.co2     1 UNK         0.0000 
     35 H35         6.5152   54.7567   20.1147 H         1 UNK         0.0000 
     36 H36         5.7393   54.4138   18.5859 H         1 UNK         0.0000 
     37 H37         5.0294   55.5896   19.6815 H         1 UNK         0.0000 
     38 H38         2.3084   53.7737   21.7701 H         1 UNK         0.0000 
     39 H39         2.0559   54.0349   24.1717 H         1 UNK         0.0000 
     40 H40         6.5659   53.9923   22.2161 H         1 UNK         0.0000 
     41 H41         7.5365   53.7626   24.4620 H         1 UNK         0.0000 
     42 H42         6.9819   55.3877   24.7931 H         1 UNK         0.0000 
     43 H43         7.3523   54.3076   26.9438 H         1 UNK         0.0000 
     44 H44         6.4402   52.8982   26.4811 H         1 UNK         0.0000 
     45 H45         5.2879   55.6961   26.7694 H         1 UNK         0.0000 
     46 H46         5.1028   54.4259   27.9466 H         1 UNK         0.0000 
     47 H47         3.0990   54.7041   26.3899 H         1 UNK         0.0000 
     48 H48         3.7686   53.0942   26.4333 H         1 UNK         0.0000 
     49 H49         3.3660   53.9276   18.7053 H         1 UNK         0.0000 
     50 H50         3.6057   51.1872   21.1499 H         1 UNK         0.0000 
     51 H51         1.8834   49.4876   21.4617 H         1 UNK         0.0000 
     52 H52        -0.4701   51.2754   18.3716 H         1 UNK         0.0000 
     53 H53        -1.5529   47.3169   17.1403 H         1 UNK         0.0000 
     54 H54        -2.5625   48.2588   18.2140 H         1 UNK         0.0000 
     55 H55        -3.2414   45.8347   18.2066 H         1 UNK         0.0000 
     56 H56        -2.7083   46.3407   19.8076 H         1 UNK         0.0000 
     57 H57        -0.8944   44.9322   17.7278 H         1 UNK         0.0000 
     58 H58        -0.4901   45.7623   20.6633 H         1 UNK         0.0000 
     59 H59         0.7025   44.8440   19.6811 H         1 UNK         0.0000 
     60 H60         0.9210   46.7086   18.0871 H         1 UNK         0.0000 
     61 H61         1.2682   47.2920   19.7061 H         1 UNK         0.0000 
     62 O62        -2.9272   43.3509   18.9967 O.co2     1 UNK         0.0000 
@<TRIPOS>BOND
     1    1    2 1    
     2    1   35 1    
     3    1   36 1    
     4    1   37 1    
     5    2    3 1    
     6    2    4 1    
     7    2   14 1    
     8    4    9 ar   
     9    4    5 ar   
    10    5    6 ar   
    11    5   38 1    
    12    6    7 ar   
    13    6   39 1    
    14    7   13 1    
    15    7    8 ar   
    16    8    9 ar   
    17    8   10 1    
    18    9   40 1    
    19   10   11 1    
    20   10   41 1    
    21   10   42 1    
    22   11   12 1    
    23   11   43 1    
    24   11   44 1    
    25   12   13 1    
    26   12   45 1    
    27   12   46 1    
    28   13   47 1    
    29   13   48 1    
    30   14   15 1    
    31   14   49 1    
    32   15   20 ar   
    33   15   16 ar   
    34   16   17 ar   
    35   16   50 1    
    36   17   18 ar   
    37   17   51 1    
    38   18   19 ar   
    39   18   24 1    
    40   19   20 ar   
    41   19   52 1    
    42   20   21 1    
    43   21   22 2    
    44   21   23 1    
    45   24   25 2    
    46   24   26 2    
    47   24   27 1    
    48   27   32 1    
    49   27   28 1    
    50   28   29 1    
    51   28   53 1    
    52   28   54 1    
    53   29   30 1    
    54   29   55 1    
    55   29   56 1    
    56   30   31 1    
    57   30   33 1    
    58   30   57 1    
    59   31   32 1    
    60   31   58 1    
    61   31   59 1    
    62   32   60 1    
    63   32   61 1    
    64   33   34 2    
    65   33   62 1    
@<TRIPOS>SUBSTRUCTURE
     1 UNK         1 GROUP             0       ****    0 ROOT    
