ZINC37352982_3770
                    3D
 Schrodinger Suite 2024-2.
 35 37  0  0  1  0            999 V2000
    6.9209   55.0019   26.3084 C   0  0  0  0  0  0
    5.4652   54.6109   26.4017 C   0  0  0  0  0  0
    4.7002   54.4082   27.5476 C   0  0  0  0  0  0
    3.3882   54.1068   27.1956 N   0  0  0  0  0  0
    3.3183   54.0216   25.8132 C   0  0  0  0  0  0
    4.6047   54.3215   25.2917 C   0  0  0  0  0  0
    4.7174   54.2502   23.8891 C   0  0  0  0  0  0
    3.6569   53.9351   23.1087 N   0  0  0  0  0  0
    2.4870   53.6761   23.7413 C   0  0  0  0  0  0
    2.2437   53.6965   25.0764 N   0  0  0  0  0  0
    1.3230   53.2973   22.8512 C   0  0  0  0  0  0
    5.9188   54.4943   23.2328 N   0  0  0  0  0  0
    2.3378   53.8128   28.0971 C   0  0  0  0  0  0
    1.8023   52.5193   28.0765 C   0  0  0  0  0  0
    0.8347   52.1442   29.0023 C   0  0  0  0  0  0
    0.4007   53.0583   29.9551 C   0  0  0  0  0  0
    0.8836   54.3625   29.9530 C   0  0  0  0  0  0
    1.8347   54.7567   29.0135 C   0  0  0  0  0  0
    2.3044   56.4192   29.0011 Cl  0  0  0  0  0  0
   -0.4956   52.6800   30.8815 F   0  0  0  0  0  0
    5.1340   54.4339   29.0027 C   0  0  0  0  0  0
    7.3661   55.2023   27.2815 H   0  0  0  0  0  0
    7.5043   54.2110   25.8410 H   0  0  0  0  0  0
    7.0492   55.9012   25.7054 H   0  0  0  0  0  0
    0.4063   53.1302   23.4187 H   0  0  0  0  0  0
    1.1375   54.0904   22.1288 H   0  0  0  0  0  0
    1.5551   52.3897   22.2953 H   0  0  0  0  0  0
    6.7641   54.6335   23.7661 H   0  0  0  0  0  0
    5.9367   54.4048   22.2284 H   0  0  0  0  0  0
    2.1400   51.7946   27.3532 H   0  0  0  0  0  0
    0.4242   51.1455   28.9889 H   0  0  0  0  0  0
    0.5085   55.0684   30.6790 H   0  0  0  0  0  0
    6.2178   54.4453   29.1115 H   0  0  0  0  0  0
    4.7611   55.2991   29.5417 H   0  0  0  0  0  0
    4.7771   53.5519   29.5358 H   0  0  0  0  0  0
  1  2  1  0  0  0
  1 22  1  0  0  0
  1 23  1  0  0  0
  1 24  1  0  0  0
  2  6  1  0  0  0
  2  3  2  0  0  0
  3  4  1  0  0  0
  3 21  1  0  0  0
  4  5  1  0  0  0
  4 13  1  0  0  0
  5 10  2  0  0  0
  5  6  1  0  0  0
  6  7  2  0  0  0
  7  8  1  0  0  0
  7 12  1  0  0  0
  8  9  2  0  0  0
  9 10  1  0  0  0
  9 11  1  0  0  0
 11 25  1  0  0  0
 11 26  1  0  0  0
 11 27  1  0  0  0
 12 28  1  0  0  0
 12 29  1  0  0  0
 13 18  2  0  0  0
 13 14  1  0  0  0
 14 15  2  0  0  0
 14 30  1  0  0  0
 15 16  1  0  0  0
 15 31  1  0  0  0
 16 17  2  0  0  0
 16 20  1  0  0  0
 17 18  1  0  0  0
 17 32  1  0  0  0
 18 19  1  0  0  0
 21 33  1  0  0  0
 21 34  1  0  0  0
 21 35  1  0  0  0
M  END
> <i_i_glide_confnum>
4

> <i_i_glide_lignum>
3771

> <i_i_glide_posenum>
397

> <i_i_glide_rotatable_bonds>
1

> <i_m_Source_File_Index>
3937

> <b_m_subgroup_collapsed>
0

> <r_i_docking_score>
-6.84472

> <r_i_glide_ecoul>
0.183282

> <r_i_glide_eff_state_penalty>
0

> <r_i_glide_einternal>
0.345718

> <r_i_glide_emodel>
-51.9931

> <r_i_glide_energy>
-37.2898

> <r_i_glide_erotb>
0.198626

> <r_i_glide_esite>
-0.1

> <r_i_glide_evdw>
-37.4731

> <r_i_glide_gscore>
-6.84472

> <r_i_glide_hbond>
0

> <r_i_glide_ligand_efficiency>
-0.325939

> <r_i_glide_ligand_efficiency_ln>
-1.69234

> <r_i_glide_ligand_efficiency_sa>
-0.899242

> <r_i_glide_lipo>
-2.78696

> <r_i_glide_metal>
0

> <r_i_glide_rewards>
-2.31023

> <s_i_glide_gridfile>
wee1_glide-grid

> <s_m_Source_File>
wee1_decoys_glide_SP.sdf

> <s_m_Source_Path>
/Users/zhangxujun/Desktop

> <s_m_entry_id>
4212

> <s_m_entry_name>
wee1_decoys_glide_SP.3937

> <s_m_subgroup_title>
wee1_decoys_glide_SP

> <s_m_subgroupid>
wee1_decoys_glide_SP


$$$$
