@<TRIPOS>MOLECULE
ZINC35667285_84
66   69    1
SMALL
USER_CHARGES


@<TRIPOS>ATOM
      1 C1          6.8961   54.6928   17.7522 C.3       1 UNK         0.0000 
      2 C2          6.2982   54.6153   19.1451 C.ar      1 UNK         0.0000 
      3 C3          6.8771   55.3347   20.1927 C.ar      1 UNK         0.0000 
      4 C4          6.3529   55.2327   21.4788 C.ar      1 UNK         0.0000 
      5 C5          5.2414   54.4207   21.7179 C.ar      1 UNK         0.0000 
      6 C6          4.6628   53.6975   20.6646 C.ar      1 UNK         0.0000 
      7 C7          5.1949   53.7942   19.3820 C.ar      1 UNK         0.0000 
      8 N8          4.7976   54.3331   23.0479 N.am      1 UNK         0.0000 
      9 C9          3.5455   54.0966   23.5097 C.2       1 UNK         0.0000 
     10 O10         2.5862   53.9487   22.7526 O.2       1 UNK         0.0000 
     11 N11         3.4334   53.9842   24.8705 N.am      1 UNK         0.0000 
     12 C12         4.3600   54.7361   25.7551 C.3       1 UNK         0.0000 
     13 C13         4.7862   53.7631   26.8634 C.3       1 UNK         0.0000 
     14 C14         3.5781   53.3308   27.6700 C.ar      1 UNK         0.0000 
     15 C15         3.6974   53.0068   29.0228 C.ar      1 UNK         0.0000 
     16 C16         2.5975   52.5547   29.7647 C.ar      1 UNK         0.0000 
     17 C17         1.3384   52.5203   29.1596 C.ar      1 UNK         0.0000 
     18 C18         1.2182   52.8991   27.8192 C.ar      1 UNK         0.0000 
     19 C19         2.3278   53.2341   27.0349 C.ar      1 UNK         0.0000 
     20 C20         2.1626   53.5140   25.5222 C.3       1 UNK         0.0000 
     21 H21         1.5007   54.3767   25.4600 H         1 UNK         0.0000 
     22 C22         1.4119   52.3160   24.8389 C.3       1 UNK         0.0000 
     23 N23         0.2882   52.7549   24.0055 N.am      1 UNK         0.0000 
     24 C24        -1.0110   52.4105   24.0829 C.2       1 UNK         0.0000 
     25 O25        -1.8077   52.8946   23.2811 O.2       1 UNK         0.0000 
     26 C26        -1.5117   51.4703   25.2106 C.3       1 UNK         0.0000 
     27 C27        -3.0164   51.5906   25.5175 C.3       1 UNK         0.0000 
     28 C28        -3.3357   50.2600   26.2000 C.3       1 UNK         0.0000 
     29 C29        -2.5050   49.2261   25.4332 C.3       1 UNK         0.0000 
     30 C30        -1.2711   49.9755   24.8990 C.3       1 UNK         0.0000 
     31 O31         0.2634   52.0962   29.9162 O.3       1 UNK         0.0000 
     32 C32        -0.8051   51.4198   29.2550 C.3       1 UNK         0.0000 
     33 O33         2.6817   52.0967   31.0648 O.3       1 UNK         0.0000 
     34 C34         3.9530   51.9366   31.6732 C.3       1 UNK         0.0000 
     35 H35         7.9759   54.8425   17.7982 H         1 UNK         0.0000 
     36 H36         6.7351   53.7626   17.2051 H         1 UNK         0.0000 
     37 H37         6.4535   55.5149   17.1891 H         1 UNK         0.0000 
     38 H38         7.7407   55.9578   20.0124 H         1 UNK         0.0000 
     39 H39         6.8213   55.7789   22.2853 H         1 UNK         0.0000 
     40 H40         3.8208   53.0416   20.8265 H         1 UNK         0.0000 
     41 H41         4.7569   53.2177   18.5780 H         1 UNK         0.0000 
     42 H42         5.5082   54.5030   23.7414 H         1 UNK         0.0000 
     43 H43         5.2785   55.0480   25.2600 H         1 UNK         0.0000 
     44 H44         3.9014   55.6314   26.1729 H         1 UNK         0.0000 
     45 H45         5.3022   52.8973   26.4477 H         1 UNK         0.0000 
     46 H46         5.5088   54.2554   27.5147 H         1 UNK         0.0000 
     47 H47         4.6767   53.0750   29.4711 H         1 UNK         0.0000 
     48 H48         0.2442   52.9087   27.3636 H         1 UNK         0.0000 
     49 H49         1.1056   51.5607   25.5610 H         1 UNK         0.0000 
     50 H50         2.0989   51.7607   24.1984 H         1 UNK         0.0000 
     51 H51         0.5533   53.3551   23.2345 H         1 UNK         0.0000 
     52 H52        -0.9883   51.7667   26.1136 H         1 UNK         0.0000 
     53 H53        -3.6177   51.6841   24.6104 H         1 UNK         0.0000 
     54 H54        -3.2448   52.4432   26.1591 H         1 UNK         0.0000 
     55 H55        -4.4020   50.0300   26.1850 H         1 UNK         0.0000 
     56 H56        -3.0204   50.2855   27.2456 H         1 UNK         0.0000 
     57 H57        -3.0868   48.8213   24.6034 H         1 UNK         0.0000 
     58 H58        -2.2247   48.3873   26.0742 H         1 UNK         0.0000 
     59 H59        -0.3649   49.6193   25.3929 H         1 UNK         0.0000 
     60 H60        -1.1650   49.7767   23.8308 H         1 UNK         0.0000 
     61 H61        -1.4186   50.9057   29.9948 H         1 UNK         0.0000 
     62 H62        -1.4534   52.1013   28.7093 H         1 UNK         0.0000 
     63 H63        -0.4328   50.6698   28.5541 H         1 UNK         0.0000 
     64 H64         3.8467   51.2220   32.4830 H         1 UNK         0.0000 
     65 H65         4.7066   51.5209   31.0055 H         1 UNK         0.0000 
     66 H66         4.3057   52.8833   32.0813 H         1 UNK         0.0000 
@<TRIPOS>BOND
     1    1    2 1    
     2    1   35 1    
     3    1   36 1    
     4    1   37 1    
     5    2    7 ar   
     6    2    3 ar   
     7    3    4 ar   
     8    3   38 1    
     9    4    5 ar   
    10    4   39 1    
    11    5    6 ar   
    12    5    8 1    
    13    6    7 ar   
    14    6   40 1    
    15    7   41 1    
    16    8    9 am   BACKBONE|DICT|INTERRES
    17    8   42 1    
    18    9   10 2    
    19    9   11 am   BACKBONE|DICT|INTERRES
    20   11   20 1    
    21   11   12 1    
    22   12   13 1    
    23   12   43 1    
    24   12   44 1    
    25   13   14 1    
    26   13   45 1    
    27   13   46 1    
    28   14   19 ar   
    29   14   15 ar   
    30   15   16 ar   
    31   15   47 1    
    32   16   17 ar   
    33   16   33 1    
    34   17   18 ar   
    35   17   31 1    
    36   18   19 ar   
    37   18   48 1    
    38   19   20 1    
    39   20   21 1    
    40   20   22 1    
    41   22   23 1    
    42   22   49 1    
    43   22   50 1    
    44   23   24 am   BACKBONE|DICT|INTERRES
    45   23   51 1    
    46   24   25 2    
    47   24   26 1    
    48   26   30 1    
    49   26   27 1    
    50   26   52 1    
    51   27   28 1    
    52   27   53 1    
    53   27   54 1    
    54   28   29 1    
    55   28   55 1    
    56   28   56 1    
    57   29   30 1    
    58   29   57 1    
    59   29   58 1    
    60   30   59 1    
    61   30   60 1    
    62   31   32 1    
    63   32   61 1    
    64   32   62 1    
    65   32   63 1    
    66   33   34 1    
    67   34   64 1    
    68   34   65 1    
    69   34   66 1    
@<TRIPOS>SUBSTRUCTURE
     1 UNK         1 GROUP             0       ****    0 ROOT    
