ZINC14944236_2598
                    3D
 Schrodinger Suite 2024-2.
 51 55  0  0  1  0            999 V2000
    2.4149   53.4454   26.0667 C   0  0  0  0  0  0
    1.5048   52.4965   25.6127 C   0  0  0  0  0  0
    0.4323   52.0759   26.4101 C   0  0  0  0  0  0
    0.3022   52.6419   27.6908 C   0  0  0  0  0  0
    1.2265   53.5852   28.1774 C   0  0  0  0  0  0
    2.2819   53.9805   27.3441 C   0  0  0  0  0  0
    1.1049   54.1412   29.5632 C   0  0  0  0  0  0
    2.1354   54.6369   30.0813 O   0  0  0  0  0  0
   -0.5066   50.9494   25.9145 C   0  0  2  0  0  0
    0.1505   50.0958   25.7386 H   0  0  0  0  0  0
   -1.2894   51.2551   24.6062 C   0  0  2  0  0  0
   -1.8557   50.3335   24.4221 H   0  0  0  0  0  0
   -0.6610   51.5290   23.2415 C   0  0  0  0  0  0
   -1.8556   52.1432   22.5260 C   0  0  0  0  0  0
   -2.7737   52.5857   23.4097 C   0  0  0  0  0  0
   -2.2733   52.3889   24.8225 C   0  0  1  0  0  0
   -1.7715   53.2957   25.1647 H   0  0  0  0  0  0
   -3.2463   51.9869   25.9252 C   0  0  0  0  0  0
   -4.5435   52.5072   26.0071 C   0  0  0  0  0  0
   -5.4026   52.1471   27.0456 C   0  0  0  0  0  0
   -4.9598   51.2781   28.0433 C   0  0  0  0  0  0
   -3.6717   50.7483   27.9785 C   0  0  0  0  0  0
   -2.8227   51.0784   26.9211 C   0  0  0  0  0  0
   -1.5315   50.4971   26.8815 N   0  0  0  0  0  0
   -7.0451   52.8481   27.0670 S   0  0  0  0  0  0
   -6.9479   54.1767   27.6810 O   0  0  0  0  0  0
   -7.5690   52.7021   25.7059 O   0  0  0  0  0  0
   -8.0651   51.8147   28.0887 N   0  0  0  0  0  0
   -8.1726   51.8819   29.4828 C   0  0  0  0  0  0
   -8.9536   50.9198   30.0396 N   0  0  0  0  0  0
   -9.1212   50.9633   31.3870 C   0  0  0  0  0  0
   -8.5326   51.9491   32.1805 C   0  0  0  0  0  0
   -7.7499   52.8971   31.5208 C   0  0  0  0  0  0
   -7.5473   52.8736   30.1765 N   0  0  0  0  0  0
    3.2434   53.7421   25.4406 H   0  0  0  0  0  0
    1.6862   52.0424   24.6526 H   0  0  0  0  0  0
   -0.5048   52.3230   28.3372 H   0  0  0  0  0  0
    3.0138   54.7002   27.6881 H   0  0  0  0  0  0
    0.1754   52.2219   23.2543 H   0  0  0  0  0  0
   -0.3216   50.6055   22.7721 H   0  0  0  0  0  0
   -1.9160   52.2012   21.4498 H   0  0  0  0  0  0
   -3.6954   53.0982   23.1940 H   0  0  0  0  0  0
   -4.8878   53.2020   25.2549 H   0  0  0  0  0  0
   -5.6013   50.9971   28.8644 H   0  0  0  0  0  0
   -3.3319   50.0644   28.7463 H   0  0  0  0  0  0
   -1.2956   49.7222   27.5081 H   0  0  0  0  0  0
   -8.5757   51.0833   27.6218 H   0  0  0  0  0  0
   -9.7469   50.1972   31.8210 H   0  0  0  0  0  0
   -8.6853   51.9810   33.2499 H   0  0  0  0  0  0
   -7.2954   53.7101   32.0682 H   0  0  0  0  0  0
   -0.0125   54.0809   30.1231 O   0  5  0  0  0  0
  1  6  2  0  0  0
  1  2  1  0  0  0
  1 35  1  0  0  0
  2  3  2  0  0  0
  2 36  1  0  0  0
  3  4  1  0  0  0
  3  9  1  0  0  0
  4  5  2  0  0  0
  4 37  1  0  0  0
  5  6  1  0  0  0
  5  7  1  0  0  0
  6 38  1  0  0  0
  7  8  2  0  0  0
  7 51  1  0  0  0
  9 10  1  0  0  0
  9 24  1  0  0  0
  9 11  1  0  0  0
 11 12  1  0  0  0
 11 16  1  0  0  0
 11 13  1  0  0  0
 13 14  1  0  0  0
 13 39  1  0  0  0
 13 40  1  0  0  0
 14 15  2  0  0  0
 14 41  1  0  0  0
 15 16  1  0  0  0
 15 42  1  0  0  0
 16 17  1  0  0  0
 16 18  1  0  0  0
 18 23  2  0  0  0
 18 19  1  0  0  0
 19 20  2  0  0  0
 19 43  1  0  0  0
 20 21  1  0  0  0
 20 25  1  0  0  0
 21 22  2  0  0  0
 21 44  1  0  0  0
 22 23  1  0  0  0
 22 45  1  0  0  0
 23 24  1  0  0  0
 24 46  1  0  0  0
 25 26  2  0  0  0
 25 27  2  0  0  0
 25 28  1  0  0  0
 28 29  1  0  0  0
 28 47  1  0  0  0
 29 34  2  0  0  0
 29 30  1  0  0  0
 30 31  2  0  0  0
 31 32  1  0  0  0
 31 48  1  0  0  0
 32 33  2  0  0  0
 32 49  1  0  0  0
 33 34  1  0  0  0
 33 50  1  0  0  0
M  CHG  1  51  -1
M  END
> <i_i_glide_confnum>
18

> <i_i_glide_lignum>
2599

> <i_i_glide_posenum>
332

> <i_i_glide_rotatable_bonds>
5

> <i_m_Source_File_Index>
2990

> <b_m_subgroup_collapsed>
0

> <r_i_docking_score>
-3.29796

> <r_i_glide_ecoul>
-7.36208

> <r_i_glide_eff_state_penalty>
0

> <r_i_glide_einternal>
7.08586

> <r_i_glide_emodel>
-39.2346

> <r_i_glide_energy>
-36.1553

> <r_i_glide_erotb>
0.40001

> <r_i_glide_esite>
-0.100817

> <r_i_glide_evdw>
-28.7932

> <r_i_glide_gscore>
-3.29796

> <r_i_glide_hbond>
-0.299531

> <r_i_glide_ligand_efficiency>
-0.103061

> <r_i_glide_ligand_efficiency_ln>
-0.738504

> <r_i_glide_ligand_efficiency_sa>
-0.327199

> <r_i_glide_lipo>
-1.02464

> <r_i_glide_metal>
0

> <r_i_glide_rewards>
0.270987

> <s_i_glide_gridfile>
wee1_glide-grid

> <s_m_Source_File>
wee1_decoys_glide_SP.sdf

> <s_m_Source_Path>
/Users/zhangxujun/Desktop

> <s_m_entry_id>
3265

> <s_m_entry_name>
wee1_decoys_glide_SP.2990

> <s_m_subgroup_title>
wee1_decoys_glide_SP

> <s_m_subgroupid>
wee1_decoys_glide_SP


$$$$
