@<TRIPOS>MOLECULE
ZINC40361645_6154
40   40    1
SMALL
USER_CHARGES


@<TRIPOS>ATOM
      1 C1          6.6837   54.3319   24.8545 C.3       1 UNK         0.0000 
      2 C2          5.8734   55.0732   25.9281 C.3       1 UNK         0.0000 
      3 C3          6.6574   54.9695   27.2759 C.3       1 UNK         0.0000 
      4 C4          6.2427   53.8919   28.2893 C.3       1 UNK         0.0000 
      5 C5          4.7211   53.7177   28.3862 C.3       1 UNK         0.0000 
      6 C6          4.2292   53.3403   26.9780 C.3       1 UNK         0.0000 
      7 C7          4.4431   54.4639   25.9541 C.3       1 UNK         0.0000 
      8 C8          4.5068   52.5703   29.2824 C.1       1 UNK         0.0000 
      9 N9          4.3039   51.6973   30.0087 N.1       1 UNK         0.0000 
     10 N10         4.0308   54.8974   28.9401 N.am      1 UNK         0.0000 
     11 C11         2.7329   55.0179   29.2751 C.2       1 UNK         0.0000 
     12 O12         2.1533   56.0978   29.2799 O.2       1 UNK         0.0000 
     13 N13         2.1673   53.8544   29.6200 N.am      1 UNK         0.0000 
     14 C14         0.7837   53.4235   29.6298 C.3       1 UNK         0.0000 
     15 C15         0.1044   53.7012   28.2751 C.3       1 UNK         0.0000 
     16 C16         0.0520   54.0829   30.8048 C.3       1 UNK         0.0000 
     17 C17         0.7967   51.9073   29.8700 C.3       1 UNK         0.0000 
     18 H18         6.8604   53.2968   25.1321 H         1 UNK         0.0000 
     19 H19         6.1852   54.3411   23.8840 H         1 UNK         0.0000 
     20 H20         7.6507   54.8049   24.7140 H         1 UNK         0.0000 
     21 H21         5.7873   56.1209   25.6473 H         1 UNK         0.0000 
     22 H22         6.4648   55.9223   27.7600 H         1 UNK         0.0000 
     23 H23         7.7376   54.9663   27.1492 H         1 UNK         0.0000 
     24 H24         6.6597   54.1363   29.2704 H         1 UNK         0.0000 
     25 H25         6.7083   52.9508   27.9883 H         1 UNK         0.0000 
     26 H26         4.8105   52.4970   26.6279 H         1 UNK         0.0000 
     27 H27         3.1796   53.0424   26.9869 H         1 UNK         0.0000 
     28 H28         3.7603   55.2697   26.2267 H         1 UNK         0.0000 
     29 H29         4.0941   54.1872   24.9577 H         1 UNK         0.0000 
     30 H30         4.5571   55.7560   28.8922 H         1 UNK         0.0000 
     31 H31         2.8062   53.1142   29.8678 H         1 UNK         0.0000 
     32 H32        -0.8956   53.2757   28.2291 H         1 UNK         0.0000 
     33 H33         0.6691   53.2636   27.4503 H         1 UNK         0.0000 
     34 H34         0.0303   54.7702   28.0826 H         1 UNK         0.0000 
     35 H35         0.6058   53.9732   31.7390 H         1 UNK         0.0000 
     36 H36        -0.1027   55.1496   30.6458 H         1 UNK         0.0000 
     37 H37        -0.8955   53.5773   30.9558 H         1 UNK         0.0000 
     38 H38         1.2645   51.6969   30.8324 H         1 UNK         0.0000 
     39 H39        -0.2113   51.4892   29.8950 H         1 UNK         0.0000 
     40 H40         1.3532   51.3696   29.1002 H         1 UNK         0.0000 
@<TRIPOS>BOND
     1    1    2 1    
     2    1   18 1    
     3    1   19 1    
     4    1   20 1    
     5    2    7 1    
     6    2    3 1    
     7    2   21 1    
     8    3    4 1    
     9    3   22 1    
    10    3   23 1    
    11    4    5 1    
    12    4   24 1    
    13    4   25 1    
    14    5    6 1    
    15    5    8 1    
    16    5   10 1    
    17    6    7 1    
    18    6   26 1    
    19    6   27 1    
    20    7   28 1    
    21    7   29 1    
    22    8    9 3    
    23   10   11 am   BACKBONE|DICT|INTERRES
    24   10   30 1    
    25   11   12 2    
    26   11   13 am   BACKBONE|DICT|INTERRES
    27   13   14 1    
    28   13   31 1    
    29   14   15 1    
    30   14   16 1    
    31   14   17 1    
    32   15   32 1    
    33   15   33 1    
    34   15   34 1    
    35   16   35 1    
    36   16   36 1    
    37   16   37 1    
    38   17   38 1    
    39   17   39 1    
    40   17   40 1    
@<TRIPOS>SUBSTRUCTURE
     1 UNK         1 GROUP             0       ****    0 ROOT    
