ZINC48844186_4740
                    3D
 Schrodinger Suite 2024-2.
 42 43  0  0  1  0            999 V2000
    2.0870   54.2899   24.6302 C   0  0  0  0  0  0
    2.3302   53.6967   25.9651 N   0  0  0  0  0  0
    3.5772   54.0161   26.5897 C   0  0  0  0  0  0
    4.7269   53.9234   25.7841 C   0  0  0  0  0  0
    6.0034   54.0967   26.3090 C   0  0  0  0  0  0
    6.1614   54.3584   27.6619 C   0  0  0  0  0  0
    5.0408   54.4967   28.4740 C   0  0  0  0  0  0
    3.7370   54.3818   27.9583 C   0  0  0  0  0  0
    2.5941   54.6985   28.8798 C   0  0  0  0  0  0
    1.5995   55.2967   28.4109 O   0  0  0  0  0  0
    2.7256   54.3774   30.0817 O   0  5  0  0  0  0
    1.5044   52.7213   26.4703 C   0  0  0  0  0  0
    1.7396   52.0967   27.5078 O   0  0  0  0  0  0
    0.4075   52.4310   25.7371 N   0  0  0  0  0  0
   -0.4806   51.2694   25.9016 C   0  0  1  0  0  0
   -0.8421   51.3184   26.9331 H   0  0  0  0  0  0
   -1.6993   51.3626   24.9506 C   0  0  0  0  0  0
   -1.2895   51.1952   23.4694 C   0  0  0  0  0  0
   -0.5073   49.8846   23.2305 C   0  0  0  0  0  0
    0.6848   49.7134   24.2040 C   0  0  0  0  0  0
    0.2783   49.9269   25.6838 C   0  0  2  0  0  0
    1.1044   49.8256   26.3785 H   0  0  0  0  0  0
   -0.6247   48.7545   26.0817 N   0  3  0  0  0  0
    1.0501   54.5989   24.5018 H   0  0  0  0  0  0
    2.7044   55.1754   24.4728 H   0  0  0  0  0  0
    2.3264   53.5704   23.8462 H   0  0  0  0  0  0
    4.6461   53.6658   24.7381 H   0  0  0  0  0  0
    6.8682   53.9953   25.6699 H   0  0  0  0  0  0
    7.1493   54.4785   28.0817 H   0  0  0  0  0  0
    5.1974   54.7505   29.5138 H   0  0  0  0  0  0
    0.2707   52.9682   24.8953 H   0  0  0  0  0  0
   -2.4467   50.6143   25.2169 H   0  0  0  0  0  0
   -2.1985   52.3239   25.0860 H   0  0  0  0  0  0
   -0.6764   52.0428   23.1585 H   0  0  0  0  0  0
   -2.1757   51.2189   22.8335 H   0  0  0  0  0  0
   -0.1462   49.8547   22.2011 H   0  0  0  0  0  0
   -1.1869   49.0367   23.3269 H   0  0  0  0  0  0
    1.4519   50.4410   23.9333 H   0  0  0  0  0  0
    1.1044   48.7181   24.0554 H   0  0  0  0  0  0
   -1.4537   48.7230   25.5112 H   0  0  0  0  0  0
   -0.1218   47.8807   25.9870 H   0  0  0  0  0  0
   -0.9205   48.7817   27.0701 H   0  0  0  0  0  0
  1  2  1  0  0  0
  1 24  1  0  0  0
  1 25  1  0  0  0
  1 26  1  0  0  0
  2  3  1  0  0  0
  2 12  1  0  0  0
  3  8  2  0  0  0
  3  4  1  0  0  0
  4  5  2  0  0  0
  4 27  1  0  0  0
  5  6  1  0  0  0
  5 28  1  0  0  0
  6  7  2  0  0  0
  6 29  1  0  0  0
  7  8  1  0  0  0
  7 30  1  0  0  0
  8  9  1  0  0  0
  9 10  2  0  0  0
  9 11  1  0  0  0
 12 13  2  0  0  0
 12 14  1  0  0  0
 14 15  1  0  0  0
 14 31  1  0  0  0
 15 16  1  0  0  0
 15 21  1  0  0  0
 15 17  1  0  0  0
 17 18  1  0  0  0
 17 32  1  0  0  0
 17 33  1  0  0  0
 18 19  1  0  0  0
 18 34  1  0  0  0
 18 35  1  0  0  0
 19 20  1  0  0  0
 19 36  1  0  0  0
 19 37  1  0  0  0
 20 21  1  0  0  0
 20 38  1  0  0  0
 20 39  1  0  0  0
 21 22  1  0  0  0
 21 23  1  0  0  0
 23 40  1  0  0  0
 23 41  1  0  0  0
 23 42  1  0  0  0
M  CHG  2  11  -1  23   1
M  END
> <i_i_glide_confnum>
56

> <i_i_glide_lignum>
4741

> <i_i_glide_posenum>
49

> <i_i_glide_rotatable_bonds>
5

> <i_m_Source_File_Index>
4415

> <b_m_subgroup_collapsed>
0

> <r_i_docking_score>
-6.63139

> <r_i_glide_ecoul>
-11.9052

> <r_i_glide_eff_state_penalty>
0

> <r_i_glide_einternal>
3.3235

> <r_i_glide_emodel>
-54.5993

> <r_i_glide_energy>
-36.4725

> <r_i_glide_erotb>
0.859523

> <r_i_glide_esite>
-0.1

> <r_i_glide_evdw>
-24.5674

> <r_i_glide_gscore>
-6.63139

> <r_i_glide_hbond>
-0.331844

> <r_i_glide_ligand_efficiency>
-0.315781

> <r_i_glide_ligand_efficiency_ln>
-1.6396

> <r_i_glide_ligand_efficiency_sa>
-0.871214

> <r_i_glide_lipo>
-1.7218

> <r_i_glide_metal>
0

> <r_i_glide_rewards>
-2.32313

> <s_i_glide_gridfile>
wee1_glide-grid

> <s_m_Source_File>
wee1_decoys_glide_SP.sdf

> <s_m_Source_Path>
/Users/zhangxujun/Desktop

> <s_m_entry_id>
4690

> <s_m_entry_name>
wee1_decoys_glide_SP.4415

> <s_m_subgroup_title>
wee1_decoys_glide_SP

> <s_m_subgroupid>
wee1_decoys_glide_SP


$$$$
