ZINC12167461_4975
                    3D
 Schrodinger Suite 2024-2.
 69 73  0  0  1  0            999 V2000
    2.4015   52.7948   29.7458 C   0  0  0  0  0  0
    3.2886   53.2772   28.6120 C   0  0  0  0  0  0
    2.7163   53.7292   27.4263 C   0  0  0  0  0  0
    3.5282   54.1520   26.3766 C   0  0  0  0  0  0
    4.9297   54.1403   26.4886 C   0  0  0  0  0  0
    5.5086   53.6971   27.6983 C   0  0  0  0  0  0
    4.6775   53.2671   28.7419 C   0  0  0  0  0  0
    7.0194   53.6391   27.9023 C   0  0  0  0  0  0
    5.7612   54.6003   25.3119 C   0  0  0  0  0  0
    6.7038   55.3808   25.4624 O   0  0  0  0  0  0
    5.3412   54.0967   24.1326 N   0  0  0  0  0  0
    5.6698   54.4811   22.8250 C   0  0  0  0  0  0
    4.7812   54.0650   21.8346 C   0  0  0  0  0  0
    4.9454   54.4964   20.5238 C   0  0  0  0  0  0
    6.0004   55.3502   20.1779 C   0  0  0  0  0  0
    6.9344   55.6969   21.1651 C   0  0  0  0  0  0
    6.7733   55.2689   22.4796 C   0  0  0  0  0  0
    6.0588   55.8831   18.8916 N   0  0  0  0  0  0
    6.8811   57.0613   18.5504 C   0  0  0  0  0  0
    6.2550   57.9042   17.4183 C   0  0  0  0  0  0
    5.8912   57.0501   16.1936 C   0  0  0  0  0  0
    5.1835   55.7354   16.5586 C   0  0  0  0  0  0
    5.9061   55.0087   17.7128 C   0  0  0  0  0  0
    3.7789   58.5081   15.5679 C   0  0  0  0  0  0
    3.0671   59.0630   14.3215 C   0  0  0  0  0  0
    1.8295   59.8604   14.6681 C   0  0  0  0  0  0
    1.9044   61.0871   15.2817 N   0  0  0  0  0  0
    2.7881   61.4915   15.6055 H   0  0  0  0  0  0
    0.6175   61.5464   15.4391 C   0  0  0  0  0  0
    0.0628   62.7122   15.9771 C   0  0  0  0  0  0
   -1.3314   62.8049   15.9606 C   0  0  0  0  0  0
   -2.1334   61.7874   15.4387 C   0  0  0  0  0  0
   -1.5755   60.6246   14.9033 C   0  0  0  0  0  0
   -0.1781   60.5028   14.8992 C   0  0  0  0  0  0
    0.6002   59.4777   14.4280 N   0  0  0  0  0  0
    2.9739   52.4956   30.6235 H   0  0  0  0  0  0
    1.7075   53.5832   30.0417 H   0  0  0  0  0  0
    1.8033   51.9446   29.4153 H   0  0  0  0  0  0
    1.6422   53.7464   27.3113 H   0  0  0  0  0  0
    3.0481   54.4976   25.4715 H   0  0  0  0  0  0
    5.1045   52.8999   29.6614 H   0  0  0  0  0  0
    7.4756   52.9716   27.1710 H   0  0  0  0  0  0
    7.4614   54.6252   27.7713 H   0  0  0  0  0  0
    7.2981   53.2971   28.8944 H   0  0  0  0  0  0
    4.5802   53.4401   24.2039 H   0  0  0  0  0  0
    3.9251   53.4499   22.0768 H   0  0  0  0  0  0
    4.1983   54.2166   19.7951 H   0  0  0  0  0  0
    7.7891   56.3113   20.9326 H   0  0  0  0  0  0
    7.5040   55.5792   23.2110 H   0  0  0  0  0  0
    6.9502   57.7176   19.4188 H   0  0  0  0  0  0
    7.8960   56.7447   18.3020 H   0  0  0  0  0  0
    5.3694   58.3836   17.8338 H   0  0  0  0  0  0
    6.8859   58.7476   17.1318 H   0  0  0  0  0  0
    6.8353   56.7468   15.7342 H   0  0  0  0  0  0
    5.0697   55.0950   15.6828 H   0  0  0  0  0  0
    4.1589   55.9199   16.8825 H   0  0  0  0  0  0
    6.8952   54.6692   17.3982 H   0  0  0  0  0  0
    5.3413   54.1065   17.9522 H   0  0  0  0  0  0
    3.1743   57.7608   16.0840 H   0  0  0  0  0  0
    4.0474   59.2966   16.2735 H   0  0  0  0  0  0
    3.7523   59.6997   13.7576 H   0  0  0  0  0  0
    2.8196   58.2436   13.6439 H   0  0  0  0  0  0
    0.6794   63.5085   16.3702 H   0  0  0  0  0  0
   -1.8047   63.6938   16.3551 H   0  0  0  0  0  0
   -3.2074   61.9071   15.4386 H   0  0  0  0  0  0
   -2.1997   59.8429   14.4957 H   0  0  0  0  0  0
    5.1025   57.8472   15.1329 N   0  3  0  0  0  0
    5.7048   58.5768   14.7759 H   0  0  0  0  0  0
    4.8969   57.2171   14.3709 H   0  0  0  0  0  0
  1  2  1  0  0  0
  1 36  1  0  0  0
  1 37  1  0  0  0
  1 38  1  0  0  0
  2  7  2  0  0  0
  2  3  1  0  0  0
  3  4  2  0  0  0
  3 39  1  0  0  0
  4  5  1  0  0  0
  4 40  1  0  0  0
  5  6  2  0  0  0
  5  9  1  0  0  0
  6  7  1  0  0  0
  6  8  1  0  0  0
  7 41  1  0  0  0
  8 42  1  0  0  0
  8 43  1  0  0  0
  8 44  1  0  0  0
  9 10  2  0  0  0
  9 11  1  0  0  0
 11 12  1  0  0  0
 11 45  1  0  0  0
 12 17  2  0  0  0
 12 13  1  0  0  0
 13 14  2  0  0  0
 13 46  1  0  0  0
 14 15  1  0  0  0
 14 47  1  0  0  0
 15 16  2  0  0  0
 15 18  1  0  0  0
 16 17  1  0  0  0
 16 48  1  0  0  0
 17 49  1  0  0  0
 18 23  1  0  0  0
 18 19  1  0  0  0
 19 20  1  0  0  0
 19 50  1  0  0  0
 19 51  1  0  0  0
 20 21  1  0  0  0
 20 52  1  0  0  0
 20 53  1  0  0  0
 21 22  1  0  0  0
 21 54  1  0  0  0
 21 67  1  0  0  0
 22 23  1  0  0  0
 22 55  1  0  0  0
 22 56  1  0  0  0
 23 57  1  0  0  0
 23 58  1  0  0  0
 24 25  1  0  0  0
 24 59  1  0  0  0
 24 60  1  0  0  0
 24 67  1  0  0  0
 25 26  1  0  0  0
 25 61  1  0  0  0
 25 62  1  0  0  0
 26 35  2  0  0  0
 26 27  1  0  0  0
 27 28  1  0  0  0
 27 29  1  0  0  0
 29 34  2  0  0  0
 29 30  1  0  0  0
 30 31  2  0  0  0
 30 63  1  0  0  0
 31 32  1  0  0  0
 31 64  1  0  0  0
 32 33  2  0  0  0
 32 65  1  0  0  0
 33 34  1  0  0  0
 33 66  1  0  0  0
 34 35  1  0  0  0
 67 68  1  0  0  0
 67 69  1  0  0  0
M  CHG  1  67   1
M  END
> <i_i_glide_confnum>
4

> <i_i_glide_lignum>
4976

> <i_i_glide_posenum>
287

> <i_i_glide_rotatable_bonds>
8

> <i_m_Source_File_Index>
1579

> <b_m_subgroup_collapsed>
0

> <r_i_docking_score>
-6.63387

> <r_i_glide_ecoul>
-6.99853

> <r_i_glide_eff_state_penalty>
0

> <r_i_glide_einternal>
13.262

> <r_i_glide_emodel>
-68.9103

> <r_i_glide_energy>
-51.4214

> <r_i_glide_erotb>
0.643625

> <r_i_glide_esite>
-0.151471

> <r_i_glide_evdw>
-44.4229

> <r_i_glide_gscore>
-6.63387

> <r_i_glide_hbond>
-0.419324

> <r_i_glide_ligand_efficiency>
-0.189539

> <r_i_glide_ligand_efficiency_ln>
-1.45628

> <r_i_glide_ligand_efficiency_sa>
-0.619995

> <r_i_glide_lipo>
-2.71265

> <r_i_glide_metal>
0

> <r_i_glide_rewards>
-0.723123

> <s_i_glide_gridfile>
wee1_glide-grid

> <s_m_Source_File>
wee1_decoys_glide_SP.sdf

> <s_m_Source_Path>
/Users/zhangxujun/Desktop

> <s_m_entry_id>
1854

> <s_m_entry_name>
wee1_decoys_glide_SP.1579

> <s_m_subgroup_title>
wee1_decoys_glide_SP

> <s_m_subgroupid>
wee1_decoys_glide_SP


$$$$
