@<TRIPOS>MOLECULE
ZINC32962272_5899
60   63    1
SMALL
USER_CHARGES


@<TRIPOS>ATOM
      1 C1          4.5171   54.4709   19.5523 C.3       1 UNK         0.0000 
      2 C2          5.2334   54.5552   20.8872 C.ar      1 UNK         0.0000 
      3 C3          6.4778   55.1925   20.9011 C.ar      1 UNK         0.0000 
      4 C4          7.2018   55.2970   22.0811 C.ar      1 UNK         0.0000 
      5 C5          6.6979   54.7606   23.2602 C.ar      1 UNK         0.0000 
      6 C6          5.4452   54.1560   23.2632 C.ar      1 UNK         0.0000 
      7 C7          4.6751   54.0694   22.0920 C.ar      1 UNK         0.0000 
      8 C8          3.2937   53.5244   22.1988 C.2       1 UNK         0.0000 
      9 C9          2.4911   54.0054   23.1738 C.2       1 UNK         0.0000 
     10 C10         1.1405   53.4021   23.5284 C.3       1 UNK         0.0000 
     11 N11         0.8389   52.0898   22.9313 N.pl3     1 UNK         0.0000 
     12 C12         1.3781   51.9791   21.5643 C.3       1 UNK         0.0000 
     13 C13         2.9153   52.2004   21.5359 C.3       1 UNK         0.0000 
     14 C14        -0.0151   51.1681   23.5445 C.ar      1 UNK         0.0000 
     15 C15         0.2792   50.8399   24.8769 C.ar      1 UNK         0.0000 
     16 C16        -0.4368   49.8704   25.5703 C.ar      1 UNK         0.0000 
     17 C17        -1.4767   49.1892   24.9497 C.ar      1 UNK         0.0000 
     18 C18        -1.8022   49.5133   23.6303 C.ar      1 UNK         0.0000 
     19 C19        -1.1159   50.5179   22.9212 C.ar      1 UNK         0.0000 
     20 C20        -1.6381   50.8847   21.5620 C.2       1 UNK         0.0000 
     21 O21        -1.6794   52.0972   21.2493 O.co2     1 UNK         0.0000 
     22 O22        -2.0690   49.9573   20.8368 O.co2     1 UNK         0.0000 
     23 N23        -2.1098   48.1739   25.6817 N.pl3     1 UNK         0.0000 
     24 S24        -3.8522   47.8305   25.6687 S.o2      1 UNK         0.0000 
     25 O25        -4.0303   46.6125   26.4675 O.2       1 UNK         0.0000 
     26 O26        -4.3298   47.8761   24.2823 O.2       1 UNK         0.0000 
     27 C27        -4.6315   49.1674   26.5775 C.ar      1 UNK         0.0000 
     28 C28        -4.4948   49.2324   27.9656 C.ar      1 UNK         0.0000 
     29 C29        -5.1406   50.2378   28.6836 C.ar      1 UNK         0.0000 
     30 C30        -5.9408   51.1810   28.0216 C.ar      1 UNK         0.0000 
     31 C31        -6.0461   51.1213   26.6225 C.ar      1 UNK         0.0000 
     32 C32        -5.3941   50.1218   25.9046 C.ar      1 UNK         0.0000 
     33 C33        -6.6496   52.2408   28.8155 C.2       1 UNK         0.0000 
     34 O34        -6.4667   52.4439   30.0178 O.2       1 UNK         0.0000 
     35 C35        -7.6962   53.0955   28.1016 C.3       1 UNK         0.0000 
     36 H36         4.9875   55.0964   18.7919 H         1 UNK         0.0000 
     37 H37         4.4849   53.4455   19.1842 H         1 UNK         0.0000 
     38 H38         3.5044   54.8350   19.6631 H         1 UNK         0.0000 
     39 H39         6.8982   55.5952   19.9911 H         1 UNK         0.0000 
     40 H40         8.1695   55.7774   22.0801 H         1 UNK         0.0000 
     41 H41         7.2744   54.8287   24.1702 H         1 UNK         0.0000 
     42 H42         5.0570   53.7723   24.1959 H         1 UNK         0.0000 
     43 H43         2.8132   54.8755   23.7282 H         1 UNK         0.0000 
     44 H44         0.3610   54.1193   23.2820 H         1 UNK         0.0000 
     45 H45         1.0873   53.3472   24.6147 H         1 UNK         0.0000 
     46 H46         1.1722   50.9845   21.1656 H         1 UNK         0.0000 
     47 H47         0.8712   52.6814   20.8986 H         1 UNK         0.0000 
     48 H48         3.3954   51.3875   22.0810 H         1 UNK         0.0000 
     49 H49         3.3076   52.1323   20.5238 H         1 UNK         0.0000 
     50 H50         1.1056   51.3126   25.3871 H         1 UNK         0.0000 
     51 H51        -0.1602   49.6303   26.5883 H         1 UNK         0.0000 
     52 H52        -2.6051   48.9907   23.1363 H         1 UNK         0.0000 
     53 H53        -1.6943   47.9793   26.5916 H         1 UNK         0.0000 
     54 H54        -3.8844   48.5063   28.4894 H         1 UNK         0.0000 
     55 H55        -5.0185   50.2619   29.7576 H         1 UNK         0.0000 
     56 H56        -6.6395   51.8343   26.0694 H         1 UNK         0.0000 
     57 H57        -5.4970   50.0830   24.8289 H         1 UNK         0.0000 
     58 H58        -8.4042   52.4561   27.5725 H         1 UNK         0.0000 
     59 H59        -7.2208   53.7501   27.3723 H         1 UNK         0.0000 
     60 H60        -8.2545   53.6999   28.8158 H         1 UNK         0.0000 
@<TRIPOS>BOND
     1    1    2 1    
     2    1   36 1    
     3    1   37 1    
     4    1   38 1    
     5    2    7 ar   
     6    2    3 ar   
     7    3    4 ar   
     8    3   39 1    
     9    4    5 ar   
    10    4   40 1    
    11    5    6 ar   
    12    5   41 1    
    13    6    7 ar   
    14    6   42 1    
    15    7    8 1    
    16    8   13 1    
    17    8    9 2    
    18    9   10 1    
    19    9   43 1    
    20   10   11 1    
    21   10   44 1    
    22   10   45 1    
    23   11   12 1    
    24   11   14 1    
    25   12   13 1    
    26   12   46 1    
    27   12   47 1    
    28   13   48 1    
    29   13   49 1    
    30   14   19 ar   
    31   14   15 ar   
    32   15   16 ar   
    33   15   50 1    
    34   16   17 ar   
    35   16   51 1    
    36   17   18 ar   
    37   17   23 1    
    38   18   19 ar   
    39   18   52 1    
    40   19   20 1    
    41   20   21 2    
    42   20   22 1    
    43   23   24 1    
    44   23   53 1    
    45   24   25 2    
    46   24   26 2    
    47   24   27 1    
    48   27   32 ar   
    49   27   28 ar   
    50   28   29 ar   
    51   28   54 1    
    52   29   30 ar   
    53   29   55 1    
    54   30   31 ar   
    55   30   33 1    
    56   31   32 ar   
    57   31   56 1    
    58   32   57 1    
    59   33   34 2    
    60   33   35 1    
    61   35   58 1    
    62   35   59 1    
    63   35   60 1    
@<TRIPOS>SUBSTRUCTURE
     1 UNK         1 GROUP             0       ****    0 ROOT    
