@<TRIPOS>MOLECULE
ZINC06394712_1469
40   43    1
SMALL
USER_CHARGES


@<TRIPOS>ATOM
      1 C1          1.8846   50.3470   21.7364 C.3       1 UNK         0.0000 
      2 C2          2.7490   51.5013   21.2822 C.2       1 UNK         0.0000 
      3 N3          3.1186   52.4691   22.0071 N.2       1 UNK         0.0000 
      4 N4          3.9757   53.3061   21.3489 N.am      1 UNK         0.0000 
      5 C5          4.1631   52.8626   19.9454 C.3       1 UNK         0.0000 
      6 C6          3.2995   51.5978   19.8985 C.3       1 UNK         0.0000 
      7 C7          3.7655   53.8833   18.8364 C.3       1 UNK         0.0000 
      8 F8          3.9334   53.3993   17.6032 F         1 UNK         0.0000 
      9 F9          4.3798   55.0653   18.8931 F         1 UNK         0.0000 
     10 O10         5.5046   52.4966   19.6809 O.3       1 UNK         0.0000 
     11 C11         4.8175   54.1773   21.9992 C.2       1 UNK         0.0000 
     12 O12         5.6489   54.8625   21.3946 O.2       1 UNK         0.0000 
     13 C13         4.8209   54.2379   23.4607 C.ar      1 UNK         0.0000 
     14 C14         3.7275   54.0973   24.3427 C.ar      1 UNK         0.0000 
     15 C15         4.2124   54.1958   25.6381 C.ar      1 UNK         0.0000 
     16 N16         5.5332   54.4969   25.4393 N.pl3     1 UNK         0.0000 
     17 H17         6.1965   54.6518   26.1829 H         1 UNK         0.0000 
     18 N18         5.8968   54.5546   24.1564 N.2       1 UNK         0.0000 
     19 C19         3.5669   54.0116   26.9694 C.ar      1 UNK         0.0000 
     20 C20         4.3163   54.0980   28.1624 C.ar      1 UNK         0.0000 
     21 C21         3.7203   53.8593   29.4071 C.ar      1 UNK         0.0000 
     22 C22         2.3666   53.5472   29.4229 C.ar      1 UNK         0.0000 
     23 C23         1.6292   53.4746   28.2781 C.ar      1 UNK         0.0000 
     24 C24         2.1973   53.6957   27.0295 C.ar      1 UNK         0.0000 
     25 O25         0.3527   53.1217   28.5823 O.3       1 UNK         0.0000 
     26 C26         0.2749   53.1258   29.9840 C.3       1 UNK         0.0000 
     27 O27         1.5824   53.2296   30.4828 O.3       1 UNK         0.0000 
     28 H28         1.3529   49.8989   20.8971 H         1 UNK         0.0000 
     29 H29         2.4936   49.5710   22.2017 H         1 UNK         0.0000 
     30 H30         1.1436   50.6727   22.4670 H         1 UNK         0.0000 
     31 H31         2.4798   51.6674   19.1823 H         1 UNK         0.0000 
     32 H32         3.8720   50.6956   19.6817 H         1 UNK         0.0000 
     33 H33         2.7044   54.0967   18.8819 H         1 UNK         0.0000 
     34 H34         5.5044   51.8358   18.9628 H         1 UNK         0.0000 
     35 H35         2.7031   53.8933   24.0698 H         1 UNK         0.0000 
     36 H36         5.3710   54.3290   28.1344 H         1 UNK         0.0000 
     37 H37         4.3042   53.9039   30.3130 H         1 UNK         0.0000 
     38 H38         1.6021   53.6078   26.1332 H         1 UNK         0.0000 
     39 H39        -0.1963   52.2088   30.3453 H         1 UNK         0.0000 
     40 H40        -0.2979   53.9956   30.3088 H         1 UNK         0.0000 
@<TRIPOS>BOND
     1    1    2 1    
     2    1   28 1    
     3    1   29 1    
     4    1   30 1    
     5    2    6 1    
     6    2    3 2    
     7    3    4 1    
     8    4    5 1    
     9    4   11 am   BACKBONE|DICT|INTERRES
    10    5    6 1    
    11    5    7 1    
    12    5   10 1    
    13    6   31 1    
    14    6   32 1    
    15    7    8 1    
    16    7    9 1    
    17    7   33 1    
    18   10   34 1    
    19   11   12 2    
    20   11   13 1    
    21   13   18 ar   
    22   13   14 ar   
    23   14   15 ar   
    24   14   35 1    
    25   15   16 ar   
    26   15   19 1    
    27   16   17 1    
    28   16   18 ar   
    29   19   24 ar   
    30   19   20 ar   
    31   20   21 ar   
    32   20   36 1    
    33   21   22 ar   
    34   21   37 1    
    35   22   27 1    
    36   22   23 ar   
    37   23   24 ar   
    38   23   25 1    
    39   24   38 1    
    40   25   26 1    
    41   26   27 1    
    42   26   39 1    
    43   26   40 1    
@<TRIPOS>SUBSTRUCTURE
     1 UNK         1 GROUP             0       ****    0 ROOT    
