ZINC51330058_3842
                    3D
 Schrodinger Suite 2024-2.
 48 50  0  0  1  0            999 V2000
    0.6270   52.5006   28.7716 C   0  0  0  0  0  0
    0.2492   52.1530   27.3438 C   0  0  0  0  0  0
   -0.9375   51.4653   27.0911 C   0  0  0  0  0  0
   -1.2810   51.1256   25.7858 C   0  0  0  0  0  0
   -0.4270   51.4434   24.7211 C   0  0  0  0  0  0
    0.7548   52.1473   24.9842 C   0  0  0  0  0  0
    1.0953   52.4965   26.2886 C   0  0  0  0  0  0
   -0.7769   51.0413   23.2701 C   0  0  2  0  0  0
   -0.3128   51.8407   22.6834 H   0  0  0  0  0  0
   -2.2901   51.1373   22.9554 C   0  0  0  0  0  0
   -2.5117   50.8453   21.4793 C   0  0  0  0  0  0
   -2.8966   51.6965   20.6886 O   0  0  0  0  0  0
   -2.0599   49.4604   21.0292 C   0  0  0  0  0  0
   -0.5325   49.3026   21.2677 C   0  0  2  0  0  0
   -0.2914   48.2406   21.1706 H   0  0  0  0  0  0
   -0.1065   49.7003   22.7594 C   0  0  1  0  0  0
    1.3511   49.9155   22.8303 C   0  0  0  0  0  0
    2.4900   50.0949   22.8817 N   0  0  0  0  0  0
   -0.4886   48.5466   23.7542 C   0  0  0  0  0  0
   -1.5148   47.8889   23.6066 O   0  0  0  0  0  0
    0.3007   48.2929   24.8006 N   0  0  0  0  0  0
    0.3323   49.9220   20.1296 C   0  0  0  0  0  0
   -0.1869   50.8458   19.2054 C   0  0  0  0  0  0
    0.6057   51.4160   18.2206 C   0  0  0  0  0  0
    1.9377   51.0471   18.1133 C   0  0  0  0  0  0
    2.4634   50.0855   18.9781 C   0  0  0  0  0  0
    1.6584   49.5056   19.9540 C   0  0  0  0  0  0
    2.7999   51.6973   17.0472 C   0  0  0  0  0  0
    1.7048   52.6292   28.8801 H   0  0  0  0  0  0
    0.3356   51.6973   29.4500 H   0  0  0  0  0  0
    0.1237   53.4136   29.0883 H   0  0  0  0  0  0
   -1.5889   51.1738   27.9033 H   0  0  0  0  0  0
   -2.1942   50.5741   25.6210 H   0  0  0  0  0  0
    1.4245   52.4146   24.1799 H   0  0  0  0  0  0
    2.0195   53.0242   26.4760 H   0  0  0  0  0  0
   -2.8773   50.4323   23.5424 H   0  0  0  0  0  0
   -2.6660   52.1401   23.1588 H   0  0  0  0  0  0
   -2.6248   48.7369   21.6147 H   0  0  0  0  0  0
   -2.3332   49.2810   19.9894 H   0  0  0  0  0  0
    1.2189   48.7097   24.8741 H   0  0  0  0  0  0
    0.0300   47.6033   25.4923 H   0  0  0  0  0  0
   -1.2122   51.1528   19.1977 H   0  0  0  0  0  0
    0.1812   52.1383   17.5390 H   0  0  0  0  0  0
    3.5013   49.7812   18.8924 H   0  0  0  0  0  0
    2.0918   48.7496   20.5915 H   0  0  0  0  0  0
    2.7054   51.1584   16.1051 H   0  0  0  0  0  0
    2.5092   52.7346   16.8862 H   0  0  0  0  0  0
    3.8501   51.7063   17.3343 H   0  0  0  0  0  0
  1  2  1  0  0  0
  1 29  1  0  0  0
  1 30  1  0  0  0
  1 31  1  0  0  0
  2  7  2  0  0  0
  2  3  1  0  0  0
  3  4  2  0  0  0
  3 32  1  0  0  0
  4  5  1  0  0  0
  4 33  1  0  0  0
  5  6  2  0  0  0
  5  8  1  0  0  0
  6  7  1  0  0  0
  6 34  1  0  0  0
  7 35  1  0  0  0
  8  9  1  0  0  0
  8 16  1  0  0  0
  8 10  1  0  0  0
 10 11  1  0  0  0
 10 36  1  0  0  0
 10 37  1  0  0  0
 11 12  2  0  0  0
 11 13  1  0  0  0
 13 14  1  0  0  0
 13 38  1  0  0  0
 13 39  1  0  0  0
 14 15  1  0  0  0
 14 16  1  0  0  0
 14 22  1  0  0  0
 16 17  1  0  0  0
 16 19  1  0  0  0
 17 18  3  0  0  0
 19 20  2  0  0  0
 19 21  1  0  0  0
 21 40  1  0  0  0
 21 41  1  0  0  0
 22 27  2  0  0  0
 22 23  1  0  0  0
 23 24  2  0  0  0
 23 42  1  0  0  0
 24 25  1  0  0  0
 24 43  1  0  0  0
 25 26  2  0  0  0
 25 28  1  0  0  0
 26 27  1  0  0  0
 26 44  1  0  0  0
 27 45  1  0  0  0
 28 46  1  0  0  0
 28 47  1  0  0  0
 28 48  1  0  0  0
M  END
> <i_i_glide_confnum>
16

> <i_i_glide_lignum>
3843

> <i_i_glide_posenum>
311

> <i_i_glide_rotatable_bonds>
4

> <i_m_Source_File_Index>
866

> <b_m_subgroup_collapsed>
0

> <r_i_docking_score>
-3.69815

> <r_i_glide_ecoul>
-6.18686

> <r_i_glide_eff_state_penalty>
0

> <r_i_glide_einternal>
4.075

> <r_i_glide_emodel>
-28.6205

> <r_i_glide_energy>
-24.906

> <r_i_glide_erotb>
0.316843

> <r_i_glide_esite>
-0.0801458

> <r_i_glide_evdw>
-18.7191

> <r_i_glide_gscore>
-3.69815

> <r_i_glide_hbond>
-0.47807

> <r_i_glide_ligand_efficiency>
-0.142236

> <r_i_glide_ligand_efficiency_ln>
-0.868497

> <r_i_glide_ligand_efficiency_sa>
-0.421375

> <r_i_glide_lipo>
-0.38989

> <r_i_glide_metal>
0

> <r_i_glide_rewards>
-1.2029

> <s_i_glide_gridfile>
wee1_glide-grid

> <s_m_Source_File>
wee1_decoys_glide_SP.sdf

> <s_m_Source_Path>
/Users/zhangxujun/Desktop

> <s_m_entry_id>
1141

> <s_m_entry_name>
wee1_decoys_glide_SP.866

> <s_m_subgroup_title>
wee1_decoys_glide_SP

> <s_m_subgroupid>
wee1_decoys_glide_SP


$$$$
