ZINC50973445_1703
                    3D
 Schrodinger Suite 2024-2.
 41 42  0  0  1  0            999 V2000
    0.2849   51.7446   23.5115 C   0  0  0  0  0  0
   -0.2487   51.8531   24.9349 C   0  0  0  0  0  0
   -1.5218   51.3396   25.2039 C   0  0  0  0  0  0
   -2.0582   51.4008   26.4894 C   0  0  0  0  0  0
   -1.3069   51.9530   27.5240 C   0  0  0  0  0  0
   -0.0384   52.4767   27.2761 C   0  0  0  0  0  0
    0.5051   52.4411   25.9718 C   0  0  0  0  0  0
    1.8692   53.0770   25.6876 C   0  0  0  0  0  0
    0.6540   53.0068   28.3757 N   0  0  0  0  0  0
    1.7109   52.3947   28.9430 C   0  0  0  0  0  0
    2.1154   51.2960   28.5663 O   0  0  0  0  0  0
    2.4065   53.0823   30.1484 C   0  0  1  0  0  0
    1.8704   52.6964   31.0172 H   0  0  0  0  0  0
    3.9073   52.7042   30.2447 C   0  0  0  0  0  0
    4.7229   53.3436   29.1061 C   0  0  0  0  0  0
    4.4907   54.8593   29.0803 C   0  0  0  0  0  0
    2.9884   55.2155   29.0614 C   0  0  0  0  0  0
    2.2623   54.5146   30.0817 O   0  0  0  0  0  0
   -3.7084   50.7785   26.7981 S   0  0  0  0  0  0
   -4.6014   51.9414   26.8341 O   0  0  0  0  0  0
   -3.9551   49.6805   25.8580 O   0  0  0  0  0  0
   -3.6956   50.0968   28.4019 N   0  0  0  0  0  0
    0.3746   52.7319   23.0577 H   0  0  0  0  0  0
    1.2752   51.2871   23.5160 H   0  0  0  0  0  0
   -0.3501   51.1253   22.8766 H   0  0  0  0  0  0
   -2.1046   50.8953   24.4093 H   0  0  0  0  0  0
   -1.7085   51.9658   28.5273 H   0  0  0  0  0  0
    2.0916   53.1998   24.6307 H   0  0  0  0  0  0
    1.9031   54.0777   26.1165 H   0  0  0  0  0  0
    2.6692   52.4969   26.1461 H   0  0  0  0  0  0
    0.2868   53.8352   28.8191 H   0  0  0  0  0  0
    4.0516   51.6238   30.2410 H   0  0  0  0  0  0
    4.3042   53.0422   31.2026 H   0  0  0  0  0  0
    4.4409   52.9083   28.1459 H   0  0  0  0  0  0
    5.7830   53.1266   29.2274 H   0  0  0  0  0  0
    4.9922   55.2956   28.2162 H   0  0  0  0  0  0
    4.9678   55.2968   29.9555 H   0  0  0  0  0  0
    2.5784   54.9818   28.0808 H   0  0  0  0  0  0
    2.8513   56.2867   29.2139 H   0  0  0  0  0  0
   -4.6040   49.6970   28.6414 H   0  0  0  0  0  0
   -2.9989   49.3350   28.4816 H   0  0  0  0  0  0
  1  2  1  0  0  0
  1 23  1  0  0  0
  1 24  1  0  0  0
  1 25  1  0  0  0
  2  7  2  0  0  0
  2  3  1  0  0  0
  3  4  2  0  0  0
  3 26  1  0  0  0
  4  5  1  0  0  0
  4 19  1  0  0  0
  5  6  2  0  0  0
  5 27  1  0  0  0
  6  7  1  0  0  0
  6  9  1  0  0  0
  7  8  1  0  0  0
  8 28  1  0  0  0
  8 29  1  0  0  0
  8 30  1  0  0  0
  9 10  1  0  0  0
  9 31  1  0  0  0
 10 11  2  0  0  0
 10 12  1  0  0  0
 12 13  1  0  0  0
 12 18  1  0  0  0
 12 14  1  0  0  0
 14 15  1  0  0  0
 14 32  1  0  0  0
 14 33  1  0  0  0
 15 16  1  0  0  0
 15 34  1  0  0  0
 15 35  1  0  0  0
 16 17  1  0  0  0
 16 36  1  0  0  0
 16 37  1  0  0  0
 17 18  1  0  0  0
 17 38  1  0  0  0
 17 39  1  0  0  0
 19 20  2  0  0  0
 19 21  2  0  0  0
 19 22  1  0  0  0
 22 40  1  0  0  0
 22 41  1  0  0  0
M  END
> <i_i_glide_confnum>
17

> <i_i_glide_lignum>
1704

> <i_i_glide_posenum>
380

> <i_i_glide_rotatable_bonds>
4

> <i_m_Source_File_Index>
2340

> <b_m_subgroup_collapsed>
0

> <r_i_docking_score>
-4.5862

> <r_i_glide_ecoul>
-5.39118

> <r_i_glide_eff_state_penalty>
0

> <r_i_glide_einternal>
5.05717

> <r_i_glide_emodel>
-37.6858

> <r_i_glide_energy>
-30.7295

> <r_i_glide_erotb>
0.570549

> <r_i_glide_esite>
-0.178485

> <r_i_glide_evdw>
-25.3383

> <r_i_glide_gscore>
-4.5862

> <r_i_glide_hbond>
-0.446498

> <r_i_glide_ligand_efficiency>
-0.218391

> <r_i_glide_ligand_efficiency_ln>
-1.13393

> <r_i_glide_ligand_efficiency_sa>
-0.602523

> <r_i_glide_lipo>
-1.37459

> <r_i_glide_metal>
0

> <r_i_glide_rewards>
-1.08158

> <s_i_glide_gridfile>
wee1_glide-grid

> <s_m_Source_File>
wee1_decoys_glide_SP.sdf

> <s_m_Source_Path>
/Users/zhangxujun/Desktop

> <s_m_entry_id>
2615

> <s_m_entry_name>
wee1_decoys_glide_SP.2340

> <s_m_subgroup_title>
wee1_decoys_glide_SP

> <s_m_subgroupid>
wee1_decoys_glide_SP


$$$$
