@<TRIPOS>MOLECULE
ZINC47809072_5864
56   58    1
SMALL
USER_CHARGES


@<TRIPOS>ATOM
      1 C1          1.5043   55.9627   30.0815 C.3       1 UNK         0.0000 
      2 C2          1.9948   54.6910   29.3789 C.3       1 UNK         0.0000 
      3 H3          1.1284   54.2367   28.8926 H         1 UNK         0.0000 
      4 C4          3.0879   55.0115   28.3371 C.3       1 UNK         0.0000 
      5 N5          3.6343   53.8080   27.6940 N.pl3     1 UNK         0.0000 
      6 C6          4.1654   52.9820   28.7901 C.3       1 UNK         0.0000 
      7 C7          3.0246   52.5620   29.7464 C.3       1 UNK         0.0000 
      8 H8          3.4550   51.9941   30.5714 H         1 UNK         0.0000 
      9 O9          2.5256   53.7647   30.3320 O.3       1 UNK         0.0000 
     10 C10         1.9177   51.7045   29.1019 C.3       1 UNK         0.0000 
     11 C11         4.3896   54.0136   26.5427 C.ar      1 UNK         0.0000 
     12 C12         5.7490   54.3501   26.6322 C.ar      1 UNK         0.0000 
     13 C13         6.4887   54.6337   25.4886 C.ar      1 UNK         0.0000 
     14 C14         5.8852   54.6081   24.2365 C.ar      1 UNK         0.0000 
     15 C15         4.5287   54.3205   24.1282 C.ar      1 UNK         0.0000 
     16 C16         3.7640   54.0442   25.2730 C.ar      1 UNK         0.0000 
     17 N17         2.3936   53.6980   25.1899 N.am      1 UNK         0.0000 
     18 C18         1.7466   53.0652   24.1922 C.2       1 UNK         0.0000 
     19 O19         2.2620   52.6487   23.1565 O.2       1 UNK         0.0000 
     20 N20         0.4445   52.9302   24.4835 N.am      1 UNK         0.0000 
     21 C21        -0.4946   52.0154   23.8409 C.3       1 UNK         0.0000 
     22 H22        -0.2318   51.9668   22.7790 H         1 UNK         0.0000 
     23 C23        -1.9430   52.5635   23.8745 C.3       1 UNK         0.0000 
     24 C24        -2.9884   51.6011   23.2810 C.3       1 UNK         0.0000 
     25 C25        -2.8697   50.1950   23.8860 C.3       1 UNK         0.0000 
     26 C26        -1.4497   49.6189   23.6836 C.3       1 UNK         0.0000 
     27 H27        -1.2343   49.6288   22.6134 H         1 UNK         0.0000 
     28 C28        -0.4250   50.5564   24.3717 C.3       1 UNK         0.0000 
     29 C29        -1.3457   48.1541   24.1740 C.3       1 UNK         0.0000 
     30 F30        -1.7268   48.0223   25.4431 F         1 UNK         0.0000 
     31 F31        -0.0992   47.6972   24.0818 F         1 UNK         0.0000 
     32 F32        -2.1180   47.3460   23.4409 F         1 UNK         0.0000 
     33 H33         1.1046   56.6803   29.3648 H         1 UNK         0.0000 
     34 H34         0.7147   55.7375   30.7977 H         1 UNK         0.0000 
     35 H35         2.3040   56.4640   30.6195 H         1 UNK         0.0000 
     36 H36         3.9042   55.5751   28.7892 H         1 UNK         0.0000 
     37 H37         2.6374   55.6042   27.5412 H         1 UNK         0.0000 
     38 H38         4.7101   52.0986   28.4545 H         1 UNK         0.0000 
     39 H39         4.9152   53.5569   29.3361 H         1 UNK         0.0000 
     40 H40         2.2970   50.7077   28.8787 H         1 UNK         0.0000 
     41 H41         1.0645   51.5901   29.7723 H         1 UNK         0.0000 
     42 H42         1.5472   52.1217   28.1668 H         1 UNK         0.0000 
     43 H43         6.2351   54.3903   27.5964 H         1 UNK         0.0000 
     44 H44         7.5336   54.8766   25.5632 H         1 UNK         0.0000 
     45 H45         6.4639   54.8269   23.3529 H         1 UNK         0.0000 
     46 H46         4.0736   54.3301   23.1461 H         1 UNK         0.0000 
     47 H47         1.9159   53.7273   26.0773 H         1 UNK         0.0000 
     48 H48         0.1030   53.3782   25.3188 H         1 UNK         0.0000 
     49 H49        -2.2249   52.7535   24.9104 H         1 UNK         0.0000 
     50 H50        -2.0013   53.5203   23.3549 H         1 UNK         0.0000 
     51 H51        -3.9910   51.9913   23.4543 H         1 UNK         0.0000 
     52 H52        -2.8652   51.5474   22.1993 H         1 UNK         0.0000 
     53 H53        -3.6105   49.5374   23.4259 H         1 UNK         0.0000 
     54 H54        -3.1294   50.1996   24.9473 H         1 UNK         0.0000 
     55 H55        -0.5981   50.5360   25.4487 H         1 UNK         0.0000 
     56 H56         0.5849   50.1609   24.2382 H         1 UNK         0.0000 
@<TRIPOS>BOND
     1    1    2 1    
     2    1   33 1    
     3    1   34 1    
     4    1   35 1    
     5    2    3 1    
     6    2    9 1    
     7    2    4 1    
     8    4    5 1    
     9    4   36 1    
    10    4   37 1    
    11    5    6 1    
    12    5   11 1    
    13    6    7 1    
    14    6   38 1    
    15    6   39 1    
    16    7    8 1    
    17    7    9 1    
    18    7   10 1    
    19   10   40 1    
    20   10   41 1    
    21   10   42 1    
    22   11   16 ar   
    23   11   12 ar   
    24   12   13 ar   
    25   12   43 1    
    26   13   14 ar   
    27   13   44 1    
    28   14   15 ar   
    29   14   45 1    
    30   15   16 ar   
    31   15   46 1    
    32   16   17 1    
    33   17   18 am   BACKBONE|DICT|INTERRES
    34   17   47 1    
    35   18   19 2    
    36   18   20 am   BACKBONE|DICT|INTERRES
    37   20   21 1    
    38   20   48 1    
    39   21   22 1    
    40   21   28 1    
    41   21   23 1    
    42   23   24 1    
    43   23   49 1    
    44   23   50 1    
    45   24   25 1    
    46   24   51 1    
    47   24   52 1    
    48   25   26 1    
    49   25   53 1    
    50   25   54 1    
    51   26   27 1    
    52   26   28 1    
    53   26   29 1    
    54   28   55 1    
    55   28   56 1    
    56   29   30 1    
    57   29   31 1    
    58   29   32 1    
@<TRIPOS>SUBSTRUCTURE
     1 UNK         1 GROUP             0       ****    0 ROOT    
