@<TRIPOS>MOLECULE
ZINC09183784_2799
55   59    1
SMALL
USER_CHARGES


@<TRIPOS>ATOM
      1 C1          2.8620   52.7578   30.4831 C.3       1 UNK         0.0000 
      2 C2          2.8402   53.0313   29.0098 C.ar      1 UNK         0.0000 
      3 C3          3.7974   53.6573   28.2158 C.ar      1 UNK         0.0000 
      4 C4          3.3254   53.5526   26.9207 C.ar      1 UNK         0.0000 
      5 N5          2.0986   52.9061   27.0130 N.pl3     1 UNK         0.0000 
      6 N6          1.8118   52.6347   28.2978 N.2       1 UNK         0.0000 
      7 C7          1.1678   52.5281   25.9941 C.ar      1 UNK         0.0000 
      8 C8          1.1149   53.2219   24.7747 C.ar      1 UNK         0.0000 
      9 C9          0.2844   52.7773   23.7510 C.ar      1 UNK         0.0000 
     10 C10        -0.5232   51.6598   23.9449 C.ar      1 UNK         0.0000 
     11 C11        -0.5139   50.9857   25.1633 C.ar      1 UNK         0.0000 
     12 C12         0.3297   51.4157   26.1853 C.ar      1 UNK         0.0000 
     13 N13         3.8963   53.8648   25.7073 N.am      1 UNK         0.0000 
     14 C14         5.1173   54.3754   25.4529 C.2       1 UNK         0.0000 
     15 O15         5.9405   54.7438   26.2973 O.2       1 UNK         0.0000 
     16 C16         5.3892   54.4586   24.0315 C.ar      1 UNK         0.0000 
     17 C17         6.5699   54.9377   23.4425 C.ar      1 UNK         0.0000 
     18 C18         6.3681   54.9007   22.0726 C.ar      1 UNK         0.0000 
     19 N19         5.1017   54.3828   21.9073 N.pl3     1 UNK         0.0000 
     20 N20         4.5396   54.0985   23.0850 N.2       1 UNK         0.0000 
     21 C21         4.4008   54.1029   20.6539 C.3       1 UNK         0.0000 
     22 H22         3.4217   54.5571   20.7570 H         1 UNK         0.0000 
     23 C23         5.1400   54.8426   19.5052 C.3       1 UNK         0.0000 
     24 C24         6.6787   54.9601   19.6468 C.3       1 UNK         0.0000 
     25 H25         7.0934   53.9692   19.4654 H         1 UNK         0.0000 
     26 N26         7.1067   55.3499   20.9983 N.pl3     1 UNK         0.0000 
     27 C27         7.2840   55.8510   18.5644 C.ar      1 UNK         0.0000 
     28 C28         8.1350   55.3010   17.6013 C.ar      1 UNK         0.0000 
     29 C29         8.7007   56.1206   16.6261 C.ar      1 UNK         0.0000 
     30 C30         8.4053   57.4832   16.6101 C.ar      1 UNK         0.0000 
     31 C31         7.5486   58.0353   17.5600 C.ar      1 UNK         0.0000 
     32 C32         6.9864   57.2197   18.5395 C.ar      1 UNK         0.0000 
     33 C33         4.1005   52.6017   20.4228 C.3       1 UNK         0.0000 
     34 F34         3.5435   52.4051   19.2304 F         1 UNK         0.0000 
     35 F35         5.2043   51.8655   20.4818 F         1 UNK         0.0000 
     36 F36         3.2497   52.1235   21.3328 F         1 UNK         0.0000 
     37 H37         3.8063   53.0537   30.9428 H         1 UNK         0.0000 
     38 H38         2.0558   53.2874   30.9902 H         1 UNK         0.0000 
     39 H39         2.7370   51.6972   30.6937 H         1 UNK         0.0000 
     40 H40         4.7440   54.0712   28.5335 H         1 UNK         0.0000 
     41 H41         1.6919   54.1165   24.6013 H         1 UNK         0.0000 
     42 H42         0.2870   53.2965   22.8053 H         1 UNK         0.0000 
     43 H43        -1.1584   51.3090   23.1442 H         1 UNK         0.0000 
     44 H44        -1.1417   50.1168   25.3102 H         1 UNK         0.0000 
     45 H45         0.3353   50.8552   27.1133 H         1 UNK         0.0000 
     46 H46         3.3666   53.5967   24.8939 H         1 UNK         0.0000 
     47 H47         7.4481   55.3124   23.9487 H         1 UNK         0.0000 
     48 H48         4.8956   54.3868   18.5422 H         1 UNK         0.0000 
     49 H49         4.7141   55.8394   19.4191 H         1 UNK         0.0000 
     50 H50         8.1131   55.3438   21.0727 H         1 UNK         0.0000 
     51 H51         8.3663   54.2443   17.6059 H         1 UNK         0.0000 
     52 H52         9.3646   55.6981   15.8846 H         1 UNK         0.0000 
     53 H53         8.8431   58.1148   15.8493 H         1 UNK         0.0000 
     54 H54         7.3163   59.0909   17.5347 H         1 UNK         0.0000 
     55 H55         6.3212   57.6512   19.2717 H         1 UNK         0.0000 
@<TRIPOS>BOND
     1    1    2 1    
     2    1   37 1    
     3    1   38 1    
     4    1   39 1    
     5    2    6 ar   
     6    2    3 ar   
     7    3    4 ar   
     8    3   40 1    
     9    4    5 ar   
    10    4   13 1    
    11    5    6 ar   
    12    5    7 1    
    13    7   12 ar   
    14    7    8 ar   
    15    8    9 ar   
    16    8   41 1    
    17    9   10 ar   
    18    9   42 1    
    19   10   11 ar   
    20   10   43 1    
    21   11   12 ar   
    22   11   44 1    
    23   12   45 1    
    24   13   14 am   BACKBONE|DICT|INTERRES
    25   13   46 1    
    26   14   15 2    
    27   14   16 1    
    28   16   20 ar   
    29   16   17 ar   
    30   17   18 ar   
    31   17   47 1    
    32   18   26 1    
    33   18   19 ar   
    34   19   20 ar   
    35   19   21 1    
    36   21   22 1    
    37   21   23 1    
    38   21   33 1    
    39   23   24 1    
    40   23   48 1    
    41   23   49 1    
    42   24   25 1    
    43   24   26 1    
    44   24   27 1    
    45   26   50 1    
    46   27   32 ar   
    47   27   28 ar   
    48   28   29 ar   
    49   28   51 1    
    50   29   30 ar   
    51   29   52 1    
    52   30   31 ar   
    53   30   53 1    
    54   31   32 ar   
    55   31   54 1    
    56   32   55 1    
    57   33   34 1    
    58   33   35 1    
    59   33   36 1    
@<TRIPOS>SUBSTRUCTURE
     1 UNK         1 GROUP             0       ****    0 ROOT    
