@<TRIPOS>MOLECULE
ZINC38684900_847
58   61    1
SMALL
USER_CHARGES


@<TRIPOS>ATOM
      1 C1         -0.5814   48.4861   24.9578 C.3       1 UNK         0.0000 
      2 C2         -0.5183   49.5231   26.0804 C.3       1 UNK         0.0000 
      3 O3          0.0720   50.7124   25.5682 O.3       1 UNK         0.0000 
      4 C4          0.3925   51.7156   26.4574 C.ar      1 UNK         0.0000 
      5 C5         -0.3181   51.9956   27.6323 C.ar      1 UNK         0.0000 
      6 C6          0.0843   53.0457   28.4588 C.ar      1 UNK         0.0000 
      7 C7          1.2014   53.8134   28.1239 C.ar      1 UNK         0.0000 
      8 C8          1.9508   53.5238   26.9768 C.ar      1 UNK         0.0000 
      9 C9          1.5044   52.4934   26.1446 C.ar      1 UNK         0.0000 
     10 C10         3.2500   54.3004   26.6713 C.3       1 UNK         0.0000 
     11 H11         3.0141   55.3373   26.8831 H         1 UNK         0.0000 
     12 C12         3.7326   54.2850   25.2002 C.ar      1 UNK         0.0000 
     13 C13         2.8481   54.3306   24.1098 C.ar      1 UNK         0.0000 
     14 C14         3.3064   54.2096   22.7997 C.ar      1 UNK         0.0000 
     15 C15         4.6674   54.0967   22.5365 C.ar      1 UNK         0.0000 
     16 C16         5.5732   54.0965   23.6030 C.ar      1 UNK         0.0000 
     17 C17         5.1099   54.1922   24.9123 C.ar      1 UNK         0.0000 
     18 O18         6.0774   54.1556   25.8931 O.3       1 UNK         0.0000 
     19 C19         5.6936   53.9469   27.1705 C.2       1 UNK         0.0000 
     20 C20         4.4177   53.9509   27.6037 C.2       1 UNK         0.0000 
     21 C21         4.1469   53.6765   28.9750 C.1       1 UNK         0.0000 
     22 N22         3.9035   53.4534   30.0823 N.1       1 UNK         0.0000 
     23 N23         6.8096   53.6966   27.9151 N.pl3     1 UNK         0.0000 
     24 O24         5.0776   53.9850   21.2284 O.3       1 UNK         0.0000 
     25 C25         5.9357   54.8971   20.7015 C.2       1 UNK         0.0000 
     26 O26         6.3879   55.8936   21.2763 O.2       1 UNK         0.0000 
     27 C27         6.3334   54.5143   19.2679 C.3       1 UNK         0.0000 
     28 O28         7.6251   55.0119   18.9107 O.3       1 UNK         0.0000 
     29 C29         7.7949   56.3391   18.5657 C.ar      1 UNK         0.0000 
     30 C30         6.7475   57.2594   18.3891 C.ar      1 UNK         0.0000 
     31 C31         7.0227   58.5799   18.0359 C.ar      1 UNK         0.0000 
     32 C32         8.3402   58.9958   17.8595 C.ar      1 UNK         0.0000 
     33 C33         9.3912   58.0943   18.0383 C.ar      1 UNK         0.0000 
     34 C34         9.1083   56.7718   18.3884 C.ar      1 UNK         0.0000 
     35 C35        10.8309   58.5454   17.8771 C.3       1 UNK         0.0000 
     36 H36        -0.9934   47.5504   25.3312 H         1 UNK         0.0000 
     37 H37         0.4150   48.2775   24.5639 H         1 UNK         0.0000 
     38 H38        -1.2086   48.8319   24.1366 H         1 UNK         0.0000 
     39 H39        -1.5199   49.7078   26.4733 H         1 UNK         0.0000 
     40 H40         0.1041   49.1309   26.8799 H         1 UNK         0.0000 
     41 H41        -1.1827   51.4100   27.9097 H         1 UNK         0.0000 
     42 H42        -0.4701   53.2620   29.3604 H         1 UNK         0.0000 
     43 H43         1.5045   54.6131   28.7852 H         1 UNK         0.0000 
     44 H44         2.0598   52.2114   25.2624 H         1 UNK         0.0000 
     45 H45         1.7874   54.4296   24.2778 H         1 UNK         0.0000 
     46 H46         2.5983   54.2206   21.9838 H         1 UNK         0.0000 
     47 H47         6.6354   54.0125   23.4196 H         1 UNK         0.0000 
     48 H48         6.7670   53.6797   28.9234 H         1 UNK         0.0000 
     49 H49         7.6397   53.3263   27.4783 H         1 UNK         0.0000 
     50 H50         6.3302   53.4276   19.1695 H         1 UNK         0.0000 
     51 H51         5.5753   54.8685   18.5704 H         1 UNK         0.0000 
     52 H52         5.7173   56.9690   18.5175 H         1 UNK         0.0000 
     53 H53         6.2227   59.2965   17.8969 H         1 UNK         0.0000 
     54 H54         8.5331   60.0213   17.5815 H         1 UNK         0.0000 
     55 H55         9.9145   56.0664   18.5322 H         1 UNK         0.0000 
     56 H56        10.9293   59.6203   18.0250 H         1 UNK         0.0000 
     57 H57        11.4634   58.0620   18.6239 H         1 UNK         0.0000 
     58 H58        11.2048   58.2826   16.8875 H         1 UNK         0.0000 
@<TRIPOS>BOND
     1    1    2 1    
     2    1   36 1    
     3    1   37 1    
     4    1   38 1    
     5    2    3 1    
     6    2   39 1    
     7    2   40 1    
     8    3    4 1    
     9    4    9 ar   
    10    4    5 ar   
    11    5    6 ar   
    12    5   41 1    
    13    6    7 ar   
    14    6   42 1    
    15    7    8 ar   
    16    7   43 1    
    17    8    9 ar   
    18    8   10 1    
    19    9   44 1    
    20   10   11 1    
    21   10   20 1    
    22   10   12 1    
    23   12   17 ar   
    24   12   13 ar   
    25   13   14 ar   
    26   13   45 1    
    27   14   15 ar   
    28   14   46 1    
    29   15   16 ar   
    30   15   24 1    
    31   16   17 ar   
    32   16   47 1    
    33   17   18 1    
    34   18   19 1    
    35   19   20 2    
    36   19   23 1    
    37   20   21 1    
    38   21   22 3    
    39   23   48 1    
    40   23   49 1    
    41   24   25 1    
    42   25   26 2    
    43   25   27 1    
    44   27   28 1    
    45   27   50 1    
    46   27   51 1    
    47   28   29 1    
    48   29   34 ar   
    49   29   30 ar   
    50   30   31 ar   
    51   30   52 1    
    52   31   32 ar   
    53   31   53 1    
    54   32   33 ar   
    55   32   54 1    
    56   33   34 ar   
    57   33   35 1    
    58   34   55 1    
    59   35   56 1    
    60   35   57 1    
    61   35   58 1    
@<TRIPOS>SUBSTRUCTURE
     1 UNK         1 GROUP             0       ****    0 ROOT    
