@<TRIPOS>MOLECULE
ZINC15959627_5036
63   68    1
SMALL
USER_CHARGES


@<TRIPOS>ATOM
      1 C1          2.3489   47.9590   18.6909 C.3       1 UNK         0.0000 
      2 C2          2.0580   49.1712   19.5549 C.ar      1 UNK         0.0000 
      3 C3          2.3036   49.1194   20.9282 C.ar      1 UNK         0.0000 
      4 C4          2.0325   50.2268   21.7258 C.ar      1 UNK         0.0000 
      5 C5          1.5069   51.3877   21.1492 C.ar      1 UNK         0.0000 
      6 C6          1.2768   51.4427   19.7722 C.ar      1 UNK         0.0000 
      7 C7          1.5529   50.3355   18.9757 C.ar      1 UNK         0.0000 
      8 C8          1.1657   52.6035   22.0157 C.3       1 UNK         0.0000 
      9 H9          0.7058   53.3618   21.3844 H         1 UNK         0.0000 
     10 C10         2.3972   53.2119   22.6721 C.ar      1 UNK         0.0000 
     11 C11         2.5554   53.4577   24.0191 C.ar      1 UNK         0.0000 
     12 C12         3.8660   54.0155   24.1921 C.ar      1 UNK         0.0000 
     13 C13         4.6097   54.4424   25.3047 C.ar      1 UNK         0.0000 
     14 C14         5.9189   54.8807   25.1119 C.ar      1 UNK         0.0000 
     15 C15         6.4902   54.8982   23.8418 C.ar      1 UNK         0.0000 
     16 C16         5.7861   54.4968   22.7055 C.ar      1 UNK         0.0000 
     17 C17         4.4677   54.0732   22.8974 C.ar      1 UNK         0.0000 
     18 N18         3.5175   53.6348   22.0012 N.pl3     1 UNK         0.0000 
     19 H19         3.6030   53.5537   20.9978 H         1 UNK         0.0000 
     20 C20         1.4971   53.0574   25.0210 C.3       1 UNK         0.0000 
     21 C21         0.1008   52.9913   24.3283 C.3       1 UNK         0.0000 
     22 H22        -0.3135   53.9926   24.2003 H         1 UNK         0.0000 
     23 N23         0.1455   52.2968   23.0567 N.am      1 UNK         0.0000 
     24 C24        -0.9808   51.5768   22.8819 C.2       1 UNK         0.0000 
     25 O25        -1.4932   51.2408   21.8136 O.2       1 UNK         0.0000 
     26 N26        -1.3911   51.2595   24.1373 N.am      1 UNK         0.0000 
     27 C27        -0.8701   52.0966   25.0646 C.2       1 UNK         0.0000 
     28 O28        -1.0928   52.1360   26.2750 O.2       1 UNK         0.0000 
     29 C29        -2.1953   50.1414   24.4468 C.ar      1 UNK         0.0000 
     30 C30        -1.6883   49.1400   25.2820 C.ar      1 UNK         0.0000 
     31 C31        -2.4706   48.0381   25.6096 C.ar      1 UNK         0.0000 
     32 C32        -3.7773   47.9165   25.1120 C.ar      1 UNK         0.0000 
     33 C33        -4.2668   48.9123   24.2524 C.ar      1 UNK         0.0000 
     34 C34        -3.4856   50.0172   23.9205 C.ar      1 UNK         0.0000 
     35 C35        -4.6651   46.7503   25.4934 C.2       1 UNK         0.0000 
     36 O36        -5.6970   46.5151   24.8618 O.2       1 UNK         0.0000 
     37 N37        -4.2855   46.0208   26.5628 N.am      1 UNK         0.0000 
     38 C38        -5.0448   44.9288   27.1755 C.3       1 UNK         0.0000 
     39 C39        -5.3430   43.7492   26.2616 C.2       1 UNK         0.0000 
     40 C40        -4.8968   42.4968   26.4469 C.2       1 UNK         0.0000 
     41 H41         1.7782   47.0973   19.0380 H         1 UNK         0.0000 
     42 H42         2.1065   48.1325   17.6416 H         1 UNK         0.0000 
     43 H43         3.4080   47.7019   18.7476 H         1 UNK         0.0000 
     44 H44         2.7044   48.2229   21.3777 H         1 UNK         0.0000 
     45 H45         2.2173   50.1796   22.7898 H         1 UNK         0.0000 
     46 H46         0.8812   52.3400   19.3189 H         1 UNK         0.0000 
     47 H47         1.3787   50.3840   17.9096 H         1 UNK         0.0000 
     48 H48         4.1844   54.4070   26.2972 H         1 UNK         0.0000 
     49 H49         6.5016   55.2017   25.9632 H         1 UNK         0.0000 
     50 H50         7.5043   55.2463   23.7284 H         1 UNK         0.0000 
     51 H51         6.2409   54.5274   21.7260 H         1 UNK         0.0000 
     52 H52         1.4636   53.7689   25.8464 H         1 UNK         0.0000 
     53 H53         1.7739   52.0979   25.4631 H         1 UNK         0.0000 
     54 H54        -0.6945   49.2184   25.7040 H         1 UNK         0.0000 
     55 H55        -2.0427   47.3056   26.2799 H         1 UNK         0.0000 
     56 H56        -5.2679   48.8453   23.8493 H         1 UNK         0.0000 
     57 H57        -3.8867   50.7794   23.2680 H         1 UNK         0.0000 
     58 H58        -3.4637   46.3220   27.0674 H         1 UNK         0.0000 
     59 H59        -4.4956   44.5860   28.0535 H         1 UNK         0.0000 
     60 H60        -5.9858   45.3339   27.5543 H         1 UNK         0.0000 
     61 H61        -5.9728   43.9585   25.4084 H         1 UNK         0.0000 
     62 H62        -5.1586   41.7033   25.7618 H         1 UNK         0.0000 
     63 H63        -4.2617   42.2407   27.2816 H         1 UNK         0.0000 
@<TRIPOS>BOND
     1    1    2 1    
     2    1   41 1    
     3    1   42 1    
     4    1   43 1    
     5    2    7 ar   
     6    2    3 ar   
     7    3    4 ar   
     8    3   44 1    
     9    4    5 ar   
    10    4   45 1    
    11    5    6 ar   
    12    5    8 1    
    13    6    7 ar   
    14    6   46 1    
    15    7   47 1    
    16    8    9 1    
    17    8   23 1    
    18    8   10 1    
    19   10   18 ar   
    20   10   11 ar   
    21   11   12 ar   
    22   11   20 1    
    23   12   17 ar   
    24   12   13 ar   
    25   13   14 ar   
    26   13   48 1    
    27   14   15 ar   
    28   14   49 1    
    29   15   16 ar   
    30   15   50 1    
    31   16   17 ar   
    32   16   51 1    
    33   17   18 ar   
    34   18   19 1    
    35   20   21 1    
    36   20   52 1    
    37   20   53 1    
    38   21   22 1    
    39   21   27 1    
    40   21   23 1    
    41   23   24 am   BACKBONE|DICT|INTERRES
    42   24   25 2    
    43   24   26 am   BACKBONE|DICT|INTERRES
    44   26   27 am   BACKBONE|DICT|INTERRES
    45   26   29 1    
    46   27   28 2    
    47   29   34 ar   
    48   29   30 ar   
    49   30   31 ar   
    50   30   54 1    
    51   31   32 ar   
    52   31   55 1    
    53   32   33 ar   
    54   32   35 1    
    55   33   34 ar   
    56   33   56 1    
    57   34   57 1    
    58   35   36 2    
    59   35   37 am   BACKBONE|DICT|INTERRES
    60   37   38 1    
    61   37   58 1    
    62   38   39 1    
    63   38   59 1    
    64   38   60 1    
    65   39   40 2    
    66   39   61 1    
    67   40   62 1    
    68   40   63 1    
@<TRIPOS>SUBSTRUCTURE
     1 UNK         1 GROUP             0       ****    0 ROOT    
