@<TRIPOS>MOLECULE
ZINC66037983_247
67   70    1
SMALL
USER_CHARGES


@<TRIPOS>ATOM
      1 C1         -0.3906   59.7339   15.3975 C.3       1 UNK         0.0000 
      2 C2         -0.2836   58.2886   14.8644 C.3       1 UNK         0.0000 
      3 C3          1.0618   57.6423   15.2550 C.3       1 UNK         0.0000 
      4 C4          2.2522   58.4885   14.7461 C.3       1 UNK         0.0000 
      5 C5          2.1646   59.8856   15.3980 C.3       1 UNK         0.0000 
      6 C6          0.8417   60.5935   15.0359 C.3       1 UNK         0.0000 
      7 C7          3.6572   57.8481   14.9136 C.3       1 UNK         0.0000 
      8 N8          4.0113   57.4380   16.3745 N.4       1 UNK         0.0000 
      9 C9          5.5280   57.6676   16.6144 C.3       1 UNK         0.0000 
     10 C10         5.9394   57.2083   18.0302 C.3       1 UNK         0.0000 
     11 C11         5.5026   55.7607   18.3630 C.3       1 UNK         0.0000 
     12 C12         4.0120   55.5457   18.0480 C.3       1 UNK         0.0000 
     13 C13         3.6445   55.9516   16.6140 C.3       1 UNK         0.0000 
     14 N14         5.8994   55.1629   19.6427 N.am      1 UNK         0.0000 
     15 C15         6.2985   55.7322   20.7982 C.2       1 UNK         0.0000 
     16 O16         6.6973   56.8964   20.8750 O.2       1 UNK         0.0000 
     17 N17         6.3038   54.8743   21.8531 N.am      1 UNK         0.0000 
     18 C18         5.3365   53.7536   21.9986 C.3       1 UNK         0.0000 
     19 C19         4.4624   54.0141   23.2457 C.3       1 UNK         0.0000 
     20 C20         5.3590   54.1992   24.4927 C.3       1 UNK         0.0000 
     21 C21         6.3865   55.3329   24.3069 C.3       1 UNK         0.0000 
     22 C22         7.1884   55.1265   23.0047 C.3       1 UNK         0.0000 
     23 C23         4.5725   54.3836   25.8069 C.2       1 UNK         0.0000 
     24 O24         3.3481   54.4846   25.7846 O.2       1 UNK         0.0000 
     25 N25         5.2983   54.3302   26.9432 N.am      1 UNK         0.0000 
     26 C26         4.8643   54.3824   28.3452 C.3       1 UNK         0.0000 
     27 C27         3.5053   54.9156   28.7616 C.3       1 UNK         0.0000 
     28 C28         3.7881   53.4331   28.8270 C.3       1 UNK         0.0000 
     29 H29        -1.3002   60.2061   15.0227 H         1 UNK         0.0000 
     30 H30        -0.4966   59.7006   16.4805 H         1 UNK         0.0000 
     31 H31        -0.3865   58.2898   13.7778 H         1 UNK         0.0000 
     32 H32        -1.1108   57.6899   15.2473 H         1 UNK         0.0000 
     33 H33         1.1132   56.6422   14.8227 H         1 UNK         0.0000 
     34 H34         1.1211   57.4990   16.3352 H         1 UNK         0.0000 
     35 H35         2.1106   58.6330   13.6729 H         1 UNK         0.0000 
     36 H36         2.3113   59.8334   16.4785 H         1 UNK         0.0000 
     37 H37         2.9925   60.4958   15.0326 H         1 UNK         0.0000 
     38 H38         0.8303   60.8117   13.9665 H         1 UNK         0.0000 
     39 H39         0.7904   61.5588   15.5419 H         1 UNK         0.0000 
     40 H40         4.4082   58.5752   14.5945 H         1 UNK         0.0000 
     41 H41         3.7942   56.9696   14.2787 H         1 UNK         0.0000 
     42 H42         6.0695   57.1239   15.8368 H         1 UNK         0.0000 
     43 H43         5.7043   58.7413   16.5060 H         1 UNK         0.0000 
     44 H44         5.5045   57.8967   18.7537 H         1 UNK         0.0000 
     45 H45         7.0215   57.3008   18.1308 H         1 UNK         0.0000 
     46 H46         6.0345   55.1282   17.6481 H         1 UNK         0.0000 
     47 H47         3.7516   54.4944   18.1858 H         1 UNK         0.0000 
     48 H48         3.3988   56.0972   18.7567 H         1 UNK         0.0000 
     49 H49         4.1805   55.3498   15.8754 H         1 UNK         0.0000 
     50 H50         2.5739   55.8296   16.4649 H         1 UNK         0.0000 
     51 H51         6.2230   54.2108   19.5574 H         1 UNK         0.0000 
     52 H52         5.9048   52.8350   22.1478 H         1 UNK         0.0000 
     53 H53         4.7168   53.5929   21.1159 H         1 UNK         0.0000 
     54 H54         3.8202   53.1388   23.3488 H         1 UNK         0.0000 
     55 H55         3.8544   54.8957   23.0394 H         1 UNK         0.0000 
     56 H56         5.9458   53.2969   24.6720 H         1 UNK         0.0000 
     57 H57         5.9057   56.3045   24.2354 H         1 UNK         0.0000 
     58 H58         7.1259   55.3487   25.1077 H         1 UNK         0.0000 
     59 H59         7.7829   54.2175   23.1102 H         1 UNK         0.0000 
     60 H60         7.8974   55.9387   22.8249 H         1 UNK         0.0000 
     61 H61         6.2937   54.2281   26.8236 H         1 UNK         0.0000 
     62 H62         5.6960   54.5877   29.0237 H         1 UNK         0.0000 
     63 H63         2.8045   55.2966   28.0187 H         1 UNK         0.0000 
     64 H64         3.4490   55.4926   29.6814 H         1 UNK         0.0000 
     65 H65         3.9207   52.9548   29.7985 H         1 UNK         0.0000 
     66 H66         3.3164   52.7694   28.1006 H         1 UNK         0.0000 
     67 H67         3.4965   58.0274   17.0168 H         1 UNK         0.0000 
@<TRIPOS>BOND
     1    1    6 1    
     2    1    2 1    
     3    1   29 1    
     4    1   30 1    
     5    2    3 1    
     6    2   31 1    
     7    2   32 1    
     8    3    4 1    
     9    3   33 1    
    10    3   34 1    
    11    4    5 1    
    12    4    7 1    
    13    4   35 1    
    14    5    6 1    
    15    5   36 1    
    16    5   37 1    
    17    6   38 1    
    18    6   39 1    
    19    7    8 1    
    20    7   40 1    
    21    7   41 1    
    22    8   13 1    
    23    8    9 1    
    24    8   67 1    
    25    9   10 1    
    26    9   42 1    
    27    9   43 1    
    28   10   11 1    
    29   10   44 1    
    30   10   45 1    
    31   11   12 1    
    32   11   14 1    
    33   11   46 1    
    34   12   13 1    
    35   12   47 1    
    36   12   48 1    
    37   13   49 1    
    38   13   50 1    
    39   14   15 am   BACKBONE|DICT|INTERRES
    40   14   51 1    
    41   15   16 2    
    42   15   17 am   BACKBONE|DICT|INTERRES
    43   17   22 1    
    44   17   18 1    
    45   18   19 1    
    46   18   52 1    
    47   18   53 1    
    48   19   20 1    
    49   19   54 1    
    50   19   55 1    
    51   20   21 1    
    52   20   23 1    
    53   20   56 1    
    54   21   22 1    
    55   21   57 1    
    56   21   58 1    
    57   22   59 1    
    58   22   60 1    
    59   23   24 2    
    60   23   25 am   BACKBONE|DICT|INTERRES
    61   25   26 1    
    62   25   61 1    
    63   26   28 1    
    64   26   27 1    
    65   26   62 1    
    66   27   28 1    
    67   27   63 1    
    68   27   64 1    
    69   28   65 1    
    70   28   66 1    
@<TRIPOS>SUBSTRUCTURE
     1 UNK         1 GROUP             0       ****    0 ROOT    
