@<TRIPOS>MOLECULE
ZINC02542440_3999
54   57    1
SMALL
USER_CHARGES


@<TRIPOS>ATOM
      1 C1          0.1407   53.4883   30.5693 C.ar      1 UNK         0.0000 
      2 C2          0.8103   54.7055   30.4911 C.ar      1 UNK         0.0000 
      3 C3          1.6369   54.9776   29.4055 C.ar      1 UNK         0.0000 
      4 C4          1.7908   54.0384   28.3777 C.ar      1 UNK         0.0000 
      5 C5          1.0553   52.8319   28.4101 C.ar      1 UNK         0.0000 
      6 C6          0.2518   52.5665   29.5317 C.ar      1 UNK         0.0000 
      7 C7          1.1064   51.8855   27.2834 C.2       1 UNK         0.0000 
      8 N8          0.3065   50.8966   27.1362 N.2       1 UNK         0.0000 
      9 N9          0.3027   50.1239   25.9868 N.am      1 UNK         0.0000 
     10 C10         0.6258   50.4595   24.7029 C.2       1 UNK         0.0000 
     11 O11         1.1041   51.5469   24.3469 O.2       1 UNK         0.0000 
     12 C12         0.3247   49.3773   23.7215 C.2       1 UNK         0.0000 
     13 O13        -0.0954   48.2639   24.0543 O.2       1 UNK         0.0000 
     14 N14         0.5713   49.7703   22.4505 N.am      1 UNK         0.0000 
     15 C15         0.4898   48.9911   21.3085 C.2       1 UNK         0.0000 
     16 C16        -0.4877   48.0969   20.8319 C.2       1 UNK         0.0000 
     17 C17        -0.1012   47.5209   19.5975 C.2       1 UNK         0.0000 
     18 C18         1.1389   48.0006   19.1443 C.2       1 UNK         0.0000 
     19 S19         1.8249   49.1636   20.2216 S.3       1 UNK         0.0000 
     20 C20         1.8608   47.5384   17.8854 C.3       1 UNK         0.0000 
     21 C21         0.8817   46.7519   16.9908 C.3       1 UNK         0.0000 
     22 C22         0.0411   45.7474   17.7982 C.3       1 UNK         0.0000 
     23 C23        -0.8785   46.4512   18.8219 C.3       1 UNK         0.0000 
     24 C24        -1.7506   47.7853   21.4934 C.1       1 UNK         0.0000 
     25 N25        -2.7528   47.5342   22.0148 N.1       1 UNK         0.0000 
     26 O26         2.6200   54.3326   27.3121 O.3       1 UNK         0.0000 
     27 C27         3.9816   54.3296   27.4626 C.2       1 UNK         0.0000 
     28 O28         4.5621   54.3065   28.5533 O.2       1 UNK         0.0000 
     29 C29         4.6974   54.4518   26.1520 C.ar      1 UNK         0.0000 
     30 C30         4.0717   54.0967   24.9459 C.ar      1 UNK         0.0000 
     31 C31         4.7586   54.1996   23.7391 C.ar      1 UNK         0.0000 
     32 C32         6.0665   54.6778   23.7281 C.ar      1 UNK         0.0000 
     33 C33         6.7040   55.0187   24.9163 C.ar      1 UNK         0.0000 
     34 C34         6.0273   54.8956   26.1281 C.ar      1 UNK         0.0000 
     35 Cl35        6.8909   54.8968   22.2283 Cl        1 UNK         0.0000 
     36 H36        -0.4819   53.2602   31.4243 H         1 UNK         0.0000 
     37 H37         0.7080   55.4305   31.2856 H         1 UNK         0.0000 
     38 H38         2.1702   55.9164   29.3620 H         1 UNK         0.0000 
     39 H39        -0.3083   51.6430   29.6043 H         1 UNK         0.0000 
     40 H40         1.8956   52.0970   26.5678 H         1 UNK         0.0000 
     41 H41        -0.2076   49.2568   26.1073 H         1 UNK         0.0000 
     42 H42         1.0380   50.6628   22.3599 H         1 UNK         0.0000 
     43 H43         2.7025   46.8982   18.1425 H         1 UNK         0.0000 
     44 H44         2.2858   48.3800   17.3369 H         1 UNK         0.0000 
     45 H45         1.4390   46.2340   16.2090 H         1 UNK         0.0000 
     46 H46         0.2182   47.4475   16.4735 H         1 UNK         0.0000 
     47 H47         0.7055   45.0528   18.3155 H         1 UNK         0.0000 
     48 H48        -0.5633   45.1401   17.1232 H         1 UNK         0.0000 
     49 H49        -1.7172   46.9165   18.3018 H         1 UNK         0.0000 
     50 H50        -1.3135   45.7095   19.4929 H         1 UNK         0.0000 
     51 H51         3.0548   53.7283   24.9274 H         1 UNK         0.0000 
     52 H52         4.2680   53.9352   22.8135 H         1 UNK         0.0000 
     53 H53         7.7156   55.3890   24.8816 H         1 UNK         0.0000 
     54 H54         6.5347   55.1625   27.0461 H         1 UNK         0.0000 
@<TRIPOS>BOND
     1    1    6 ar   
     2    1    2 ar   
     3    1   36 1    
     4    2    3 ar   
     5    2   37 1    
     6    3    4 ar   
     7    3   38 1    
     8    4    5 ar   
     9    4   26 1    
    10    5    6 ar   
    11    5    7 1    
    12    6   39 1    
    13    7    8 2    
    14    7   40 1    
    15    8    9 1    
    16    9   10 am   BACKBONE|DICT|INTERRES
    17    9   41 1    
    18   10   11 2    
    19   10   12 1    
    20   12   13 2    
    21   12   14 am   BACKBONE|DICT|INTERRES
    22   14   15 am   BACKBONE|DICT|INTERRES
    23   14   42 1    
    24   15   19 1    
    25   15   16 2    
    26   16   17 1    
    27   16   24 1    
    28   17   23 1    
    29   17   18 2    
    30   18   19 1    
    31   18   20 1    
    32   20   21 1    
    33   20   43 1    
    34   20   44 1    
    35   21   22 1    
    36   21   45 1    
    37   21   46 1    
    38   22   23 1    
    39   22   47 1    
    40   22   48 1    
    41   23   49 1    
    42   23   50 1    
    43   24   25 3    
    44   26   27 1    
    45   27   28 2    
    46   27   29 1    
    47   29   34 ar   
    48   29   30 ar   
    49   30   31 ar   
    50   30   51 1    
    51   31   32 ar   
    52   31   52 1    
    53   32   33 ar   
    54   32   35 1    
    55   33   34 ar   
    56   33   53 1    
    57   34   54 1    
@<TRIPOS>SUBSTRUCTURE
     1 UNK         1 GROUP             0       ****    0 ROOT    
