@<TRIPOS>MOLECULE
ZINC19703057_1472
48   50    1
SMALL
USER_CHARGES


@<TRIPOS>ATOM
      1 C1         -0.5354   47.3303   24.8795 C.3       1 UNK         0.0000 
      2 C2         -1.0146   48.2249   23.7247 C.2       1 UNK         0.0000 
      3 O3         -1.3313   47.5835   22.7208 O.2       1 UNK         0.0000 
      4 N4         -1.1274   49.5997   23.8551 N.pl3     1 UNK         0.0000 
      5 C5         -0.5571   50.2517   24.9406 C.ar      1 UNK         0.0000 
      6 C6         -1.1803   51.5240   25.3027 C.ar      1 UNK         0.0000 
      7 C7         -2.1121   52.0055   24.4473 C.ar      1 UNK         0.0000 
      8 O8         -2.7991   53.0624   24.6804 O.co2     1 UNK         0.0000 
      9 N9         -2.3729   51.4765   23.2307 N.2       1 UNK         0.0000 
     10 C10        -1.8602   50.3452   22.9172 C.ar      1 UNK         0.0000 
     11 S11        -2.1439   49.9393   21.1714 S.3       1 UNK         0.0000 
     12 C12        -0.4131   49.8323   20.6145 C.3       1 UNK         0.0000 
     13 C13        -0.7754   52.2018   26.6290 C.3       1 UNK         0.0000 
     14 H14        -1.3807   53.0881   26.8321 H         1 UNK         0.0000 
     15 C15         0.7039   52.6312   26.7822 C.ar      1 UNK         0.0000 
     16 C16         1.3948   53.1624   25.6850 C.ar      1 UNK         0.0000 
     17 C17         2.6869   53.6969   25.7893 C.ar      1 UNK         0.0000 
     18 C18         3.3237   53.6885   27.0340 C.ar      1 UNK         0.0000 
     19 C19         2.6590   53.1215   28.1308 C.ar      1 UNK         0.0000 
     20 C20         1.3723   52.5817   28.0238 C.ar      1 UNK         0.0000 
     21 C21         0.7437   51.8987   29.2345 C.3       1 UNK         0.0000 
     22 C22        -0.7875   51.7939   29.1764 C.3       1 UNK         0.0000 
     23 N23        -1.1949   51.2850   27.7881 N.4       1 UNK         0.0000 
     24 O24         4.5937   54.2396   27.1030 O.3       1 UNK         0.0000 
     25 C25         5.2975   54.2416   28.3395 C.3       1 UNK         0.0000 
     26 O26         3.3647   54.2701   24.7260 O.3       1 UNK         0.0000 
     27 C27         2.7402   54.3461   23.4476 C.3       1 UNK         0.0000 
     28 O28         0.4017   49.8509   25.6005 O.2       1 UNK         0.0000 
     29 H29        -0.8961   47.6737   25.8510 H         1 UNK         0.0000 
     30 H30         0.5536   47.2995   24.8816 H         1 UNK         0.0000 
     31 H31        -0.9003   46.3110   24.7567 H         1 UNK         0.0000 
     32 H32        -0.3756   49.8274   19.5234 H         1 UNK         0.0000 
     33 H33         0.1673   50.6865   20.9686 H         1 UNK         0.0000 
     34 H34         0.0632   48.9172   20.9694 H         1 UNK         0.0000 
     35 H35         0.8747   53.1906   24.7406 H         1 UNK         0.0000 
     36 H36         3.1481   53.0761   29.0907 H         1 UNK         0.0000 
     37 H37         1.0398   52.3906   30.1624 H         1 UNK         0.0000 
     38 H38         1.1627   50.8959   29.2822 H         1 UNK         0.0000 
     39 H39        -1.2955   52.7405   29.3383 H         1 UNK         0.0000 
     40 H40        -1.1794   51.0756   29.8998 H         1 UNK         0.0000 
     41 H41        -2.1926   51.1436   27.7452 H         1 UNK         0.0000 
     42 H42         6.2732   54.7066   28.1950 H         1 UNK         0.0000 
     43 H43         4.7700   54.8189   29.0997 H         1 UNK         0.0000 
     44 H44         5.4676   53.2296   28.7092 H         1 UNK         0.0000 
     45 H45         3.3955   54.8797   22.7578 H         1 UNK         0.0000 
     46 H46         2.5569   53.3538   23.0331 H         1 UNK         0.0000 
     47 H47         1.7991   54.8956   23.4911 H         1 UNK         0.0000 
     48 H48        -0.7931   50.3653   27.6363 H         1 UNK         0.0000 
@<TRIPOS>BOND
     1    1    2 1    
     2    1   29 1    
     3    1   30 1    
     4    1   31 1    
     5    2    3 2    
     6    2    4 1    
     7    4   10 ar   
     8    4    5 ar   
     9    5    6 ar   
    10    5   28 2    
    11    6    7 ar   
    12    6   13 1    
    13    7    8 1    
    14    7    9 ar   
    15    9   10 ar   
    16   10   11 1    
    17   11   12 1    
    18   12   32 1    
    19   12   33 1    
    20   12   34 1    
    21   13   14 1    
    22   13   23 1    
    23   13   15 1    
    24   15   20 ar   
    25   15   16 ar   
    26   16   17 ar   
    27   16   35 1    
    28   17   18 ar   
    29   17   26 1    
    30   18   19 ar   
    31   18   24 1    
    32   19   20 ar   
    33   19   36 1    
    34   20   21 1    
    35   21   22 1    
    36   21   37 1    
    37   21   38 1    
    38   22   23 1    
    39   22   39 1    
    40   22   40 1    
    41   23   41 1    
    42   23   48 1    
    43   24   25 1    
    44   25   42 1    
    45   25   43 1    
    46   25   44 1    
    47   26   27 1    
    48   27   45 1    
    49   27   46 1    
    50   27   47 1    
@<TRIPOS>SUBSTRUCTURE
     1 UNK         1 GROUP             0       ****    0 ROOT    
