@<TRIPOS>MOLECULE
ZINC14544578_2349
61   66    1
SMALL
USER_CHARGES


@<TRIPOS>ATOM
      1 C1          8.2052   56.3791   19.2559 C.ar      1 UNK         0.0000 
      2 C2          7.7160   57.4280   18.4821 C.ar      1 UNK         0.0000 
      3 C3          6.3999   57.4484   18.0217 C.ar      1 UNK         0.0000 
      4 C4          5.5885   56.3629   18.3672 C.ar      1 UNK         0.0000 
      5 C5          6.0533   55.2761   19.1726 C.ar      1 UNK         0.0000 
      6 C6          7.3886   55.3038   19.6068 C.ar      1 UNK         0.0000 
      7 C7          4.9521   54.3554   19.3540 C.ar      1 UNK         0.0000 
      8 C8          3.9061   54.8969   18.6222 C.ar      1 UNK         0.0000 
      9 N9          4.2790   56.0869   18.0514 N.pl3     1 UNK         0.0000 
     10 H10         3.6535   56.6443   17.4855 H         1 UNK         0.0000 
     11 C11         4.9528   53.0604   20.1620 C.3       1 UNK         0.0000 
     12 H12         5.9043   52.5624   19.9871 H         1 UNK         0.0000 
     13 C13         4.7717   53.2295   21.6917 C.3       1 UNK         0.0000 
     14 H14         4.9123   52.2199   22.0888 H         1 UNK         0.0000 
     15 C15         5.6752   54.1065   22.5528 C.3       1 UNK         0.0000 
     16 C16         4.7895   54.2980   23.7756 C.2       1 UNK         0.0000 
     17 C17         3.5016   54.0046   23.4978 C.2       1 UNK         0.0000 
     18 C18         3.3610   53.6841   22.0226 C.3       1 UNK         0.0000 
     19 H19         3.1074   54.5979   21.4815 H         1 UNK         0.0000 
     20 C20         2.3990   52.6048   21.5362 C.ar      1 UNK         0.0000 
     21 C21         1.1719   52.3436   22.1570 C.ar      1 UNK         0.0000 
     22 C22         0.3237   51.3360   21.6897 C.ar      1 UNK         0.0000 
     23 C23         0.6973   50.5861   20.5702 C.ar      1 UNK         0.0000 
     24 C24         1.9002   50.8519   19.9168 C.ar      1 UNK         0.0000 
     25 C25         2.7367   51.8681   20.3768 C.ar      1 UNK         0.0000 
     26 N26         3.9448   52.0985   19.6825 N.pl3     1 UNK         0.0000 
     27 S27        -1.2474   51.0139   22.4889 S.o2      1 UNK         0.0000 
     28 O28        -2.0951   52.1852   22.2375 O.2       1 UNK         0.0000 
     29 O29        -1.6757   49.6774   22.0634 O.2       1 UNK         0.0000 
     30 N30        -0.9333   50.9332   24.2180 N.pl3     1 UNK         0.0000 
     31 C31        -0.7888   52.1752   25.0088 C.3       1 UNK         0.0000 
     32 C32        -2.0071   52.3056   25.9480 C.3       1 UNK         0.0000 
     33 C33        -1.9702   51.2737   27.0938 C.3       1 UNK         0.0000 
     34 C34        -0.6182   51.2971   27.8402 C.3       1 UNK         0.0000 
     35 C35         0.5833   51.1185   26.8943 C.3       1 UNK         0.0000 
     36 C36         0.5680   52.1515   25.7492 C.3       1 UNK         0.0000 
     37 H37         9.2342   56.3966   19.5869 H         1 UNK         0.0000 
     38 H38         8.3719   58.2499   18.2337 H         1 UNK         0.0000 
     39 H39         6.0338   58.2681   17.4201 H         1 UNK         0.0000 
     40 H40         7.7897   54.5020   20.2011 H         1 UNK         0.0000 
     41 H41         2.9011   54.5211   18.4802 H         1 UNK         0.0000 
     42 H42         6.6037   53.5920   22.8019 H         1 UNK         0.0000 
     43 H43         5.9355   55.0509   22.0707 H         1 UNK         0.0000 
     44 H44         5.1813   54.6281   24.7271 H         1 UNK         0.0000 
     45 H45         2.6597   54.0878   24.1695 H         1 UNK         0.0000 
     46 H46         0.8865   52.9429   23.0039 H         1 UNK         0.0000 
     47 H47         0.0535   49.8041   20.1908 H         1 UNK         0.0000 
     48 H48         2.1795   50.2741   19.0474 H         1 UNK         0.0000 
     49 H49         4.2642   51.4834   18.9330 H         1 UNK         0.0000 
     50 H50        -0.3656   50.1376   24.5215 H         1 UNK         0.0000 
     51 H51        -0.8022   53.0413   24.3451 H         1 UNK         0.0000 
     52 H52        -2.0280   53.3019   26.3871 H         1 UNK         0.0000 
     53 H53        -2.9367   52.2016   25.3871 H         1 UNK         0.0000 
     54 H54        -2.7847   51.4591   27.7966 H         1 UNK         0.0000 
     55 H55        -2.1427   50.2722   26.6963 H         1 UNK         0.0000 
     56 H56        -0.5192   52.2337   28.3900 H         1 UNK         0.0000 
     57 H57        -0.6032   50.5011   28.5850 H         1 UNK         0.0000 
     58 H58         1.5107   51.2040   27.4606 H         1 UNK         0.0000 
     59 H59         0.5741   50.1057   26.4853 H         1 UNK         0.0000 
     60 H60         1.3858   51.9395   25.0590 H         1 UNK         0.0000 
     61 H61         0.7661   53.1420   26.1643 H         1 UNK         0.0000 
@<TRIPOS>BOND
     1    1    6 ar   
     2    1    2 ar   
     3    1   37 1    
     4    2    3 ar   
     5    2   38 1    
     6    3    4 ar   
     7    3   39 1    
     8    4    9 ar   
     9    4    5 ar   
    10    5    6 ar   
    11    5    7 ar   
    12    6   40 1    
    13    7    8 ar   
    14    7   11 1    
    15    8    9 ar   
    16    8   41 1    
    17    9   10 1    
    18   11   12 1    
    19   11   26 1    
    20   11   13 1    
    21   13   14 1    
    22   13   18 1    
    23   13   15 1    
    24   15   16 1    
    25   15   42 1    
    26   15   43 1    
    27   16   17 2    
    28   16   44 1    
    29   17   18 1    
    30   17   45 1    
    31   18   19 1    
    32   18   20 1    
    33   20   25 ar   
    34   20   21 ar   
    35   21   22 ar   
    36   21   46 1    
    37   22   23 ar   
    38   22   27 1    
    39   23   24 ar   
    40   23   47 1    
    41   24   25 ar   
    42   24   48 1    
    43   25   26 1    
    44   26   49 1    
    45   27   28 2    
    46   27   29 2    
    47   27   30 1    
    48   30   31 1    
    49   30   50 1    
    50   31   36 1    
    51   31   32 1    
    52   31   51 1    
    53   32   33 1    
    54   32   52 1    
    55   32   53 1    
    56   33   34 1    
    57   33   54 1    
    58   33   55 1    
    59   34   35 1    
    60   34   56 1    
    61   34   57 1    
    62   35   36 1    
    63   35   58 1    
    64   35   59 1    
    65   36   60 1    
    66   36   61 1    
@<TRIPOS>SUBSTRUCTURE
     1 UNK         1 GROUP             0       ****    0 ROOT    
