@<TRIPOS>MOLECULE
ZINC00836099_5828
48   52    1
SMALL
USER_CHARGES


@<TRIPOS>ATOM
      1 C1          1.1047   55.2414   30.4813 C.ar      1 UNK         0.0000 
      2 C2          1.8784   55.7299   29.4324 C.ar      1 UNK         0.0000 
      3 C3          1.9458   55.0201   28.2385 C.ar      1 UNK         0.0000 
      4 C4          1.2403   53.8234   28.0701 C.ar      1 UNK         0.0000 
      5 C5          0.4927   53.3303   29.1536 C.ar      1 UNK         0.0000 
      6 C6          0.4262   54.0338   30.3541 C.ar      1 UNK         0.0000 
      7 C7          1.2259   53.1193   26.7280 C.ar      1 UNK         0.0000 
      8 C8          2.0320   53.3051   25.5585 C.ar      1 UNK         0.0000 
      9 C9          1.4369   52.4497   24.6452 C.ar      1 UNK         0.0000 
     10 N10         0.4566   51.7329   25.2708 N.pl3     1 UNK         0.0000 
     11 N11         0.3366   52.1560   26.5355 N.2       1 UNK         0.0000 
     12 C12        -0.3283   50.6665   24.7753 C.ar      1 UNK         0.0000 
     13 C13        -0.7985   50.6873   23.4555 C.ar      1 UNK         0.0000 
     14 C14        -1.5471   49.6184   22.9694 C.ar      1 UNK         0.0000 
     15 C15        -1.8264   48.5333   23.7993 C.ar      1 UNK         0.0000 
     16 C16        -1.3676   48.5084   25.1154 C.ar      1 UNK         0.0000 
     17 C17        -0.6198   49.5726   25.6031 C.ar      1 UNK         0.0000 
     18 O18         1.7662   52.2393   23.3313 O.3       1 UNK         0.0000 
     19 C19         2.8799   52.8997   22.9233 C.2       1 UNK         0.0000 
     20 C20         3.6691   53.7000   23.6852 C.2       1 UNK         0.0000 
     21 C21         3.3055   54.0960   25.1465 C.3       1 UNK         0.0000 
     22 H22         3.0726   55.1572   25.0711 H         1 UNK         0.0000 
     23 C23         4.4777   54.0978   26.1513 C.ar      1 UNK         0.0000 
     24 C24         4.4550   53.2958   27.2958 C.ar      1 UNK         0.0000 
     25 C25         5.5047   53.2972   28.2021 C.ar      1 UNK         0.0000 
     26 C26         6.6090   54.0969   27.9665 C.ar      1 UNK         0.0000 
     27 C27         6.6455   54.9194   26.8482 C.ar      1 UNK         0.0000 
     28 C28         5.5821   54.9328   25.9505 C.ar      1 UNK         0.0000 
     29 C29         4.8879   54.1685   23.0992 C.1       1 UNK         0.0000 
     30 N30         5.8759   54.4940   22.5906 N.1       1 UNK         0.0000 
     31 N31         3.1154   52.5128   21.6312 N.pl3     1 UNK         0.0000 
     32 H32         1.0508   55.7968   31.4060 H         1 UNK         0.0000 
     33 H33         2.4184   56.6591   29.5473 H         1 UNK         0.0000 
     34 H34         2.5384   55.4279   27.4370 H         1 UNK         0.0000 
     35 H35        -0.0606   52.4047   29.0704 H         1 UNK         0.0000 
     36 H36        -0.1582   53.6462   31.1779 H         1 UNK         0.0000 
     37 H37        -0.5859   51.5228   22.8041 H         1 UNK         0.0000 
     38 H38        -1.9089   49.6302   21.9513 H         1 UNK         0.0000 
     39 H39        -2.4095   47.7095   23.4221 H         1 UNK         0.0000 
     40 H40        -1.5886   47.6733   25.7657 H         1 UNK         0.0000 
     41 H41        -0.2694   49.5303   26.6264 H         1 UNK         0.0000 
     42 H42         3.6397   52.6192   27.4922 H         1 UNK         0.0000 
     43 H43         5.4656   52.6586   29.0699 H         1 UNK         0.0000 
     44 H44         7.4310   54.0960   28.6683 H         1 UNK         0.0000 
     45 H45         7.4821   55.5702   26.6972 H         1 UNK         0.0000 
     46 H46         5.6231   55.6042   25.1046 H         1 UNK         0.0000 
     47 H47         3.8257   52.9615   21.0691 H         1 UNK         0.0000 
     48 H48         2.6749   51.6862   21.2500 H         1 UNK         0.0000 
@<TRIPOS>BOND
     1    1    6 ar   
     2    1    2 ar   
     3    1   32 1    
     4    2    3 ar   
     5    2   33 1    
     6    3    4 ar   
     7    3   34 1    
     8    4    5 ar   
     9    4    7 1    
    10    5    6 ar   
    11    5   35 1    
    12    6   36 1    
    13    7   11 ar   
    14    7    8 ar   
    15    8   21 1    
    16    8    9 ar   
    17    9   10 ar   
    18    9   18 1    
    19   10   11 ar   
    20   10   12 1    
    21   12   17 ar   
    22   12   13 ar   
    23   13   14 ar   
    24   13   37 1    
    25   14   15 ar   
    26   14   38 1    
    27   15   16 ar   
    28   15   39 1    
    29   16   17 ar   
    30   16   40 1    
    31   17   41 1    
    32   18   19 1    
    33   19   20 2    
    34   19   31 1    
    35   20   21 1    
    36   20   29 1    
    37   21   22 1    
    38   21   23 1    
    39   23   28 ar   
    40   23   24 ar   
    41   24   25 ar   
    42   24   42 1    
    43   25   26 ar   
    44   25   43 1    
    45   26   27 ar   
    46   26   44 1    
    47   27   28 ar   
    48   27   45 1    
    49   28   46 1    
    50   29   30 3    
    51   31   47 1    
    52   31   48 1    
@<TRIPOS>SUBSTRUCTURE
     1 UNK         1 GROUP             0       ****    0 ROOT    
