@<TRIPOS>MOLECULE
ZINC63980332_6076
62   66    1
SMALL
USER_CHARGES


@<TRIPOS>ATOM
      1 C1          6.1381   54.3480   24.0230 C.3       1 UNK         0.0000 
      2 C2          5.1715   54.5939   25.1921 C.3       1 UNK         0.0000 
      3 C3          3.7448   54.1058   24.9544 C.ar      1 UNK         0.0000 
      4 C4          3.0824   54.3682   23.7475 C.ar      1 UNK         0.0000 
      5 C5          1.7711   53.9389   23.5548 C.ar      1 UNK         0.0000 
      6 C6          1.1066   53.2610   24.5751 C.ar      1 UNK         0.0000 
      7 C7          1.7549   52.9854   25.7823 C.ar      1 UNK         0.0000 
      8 C8          3.0704   53.4224   25.9701 C.ar      1 UNK         0.0000 
      9 C9          0.8725   52.1842   26.7223 C.3       1 UNK         0.0000 
     10 H10         1.3722   51.2289   26.8867 H         1 UNK         0.0000 
     11 C11        -0.4204   52.0298   25.8937 C.3       1 UNK         0.0000 
     12 H12        -1.2508   52.5468   26.3802 H         1 UNK         0.0000 
     13 N13        -0.1342   52.6233   24.5873 N.pl3     1 UNK         0.0000 
     14 C14        -1.3281   53.0550   23.8657 C.3       1 UNK         0.0000 
     15 C15        -0.8641   50.5643   25.6609 C.2       1 UNK         0.0000 
     16 O16        -2.0630   50.2852   25.6790 O.2       1 UNK         0.0000 
     17 N17         0.0799   49.6891   25.2667 N.am      1 UNK         0.0000 
     18 C18        -0.1996   48.4231   24.5993 C.3       1 UNK         0.0000 
     19 C19        -0.6296   48.6176   23.1192 C.3       1 UNK         0.0000 
     20 C20         0.3889   49.2462   22.1645 C.2       1 UNK         0.0000 
     21 C21         0.7315   48.8960   20.9089 C.2       1 UNK         0.0000 
     22 C22         0.2171   47.8277   20.0390 C.2       1 UNK         0.0000 
     23 C23         0.7483   47.6145   18.8182 C.2       1 UNK         0.0000 
     24 C24         1.8341   48.4812   18.3886 C.2       1 UNK         0.0000 
     25 C25         2.3025   49.4887   19.1685 C.2       1 UNK         0.0000 
     26 C26         1.7698   49.7077   20.4414 C.2       1 UNK         0.0000 
     27 N27         2.1075   50.5936   21.3398 N.pl3     1 UNK         0.0000 
     28 C28         1.2620   50.4292   22.5277 C.3       1 UNK         0.0000 
     29 C29         0.6714   52.7386   28.1374 C.ar      1 UNK         0.0000 
     30 C30         1.0888   54.0263   28.5050 C.ar      1 UNK         0.0000 
     31 C31         0.9630   54.4546   29.8241 C.ar      1 UNK         0.0000 
     32 C32         0.4049   53.6018   30.7727 C.ar      1 UNK         0.0000 
     33 C33        -0.0532   52.3393   30.4108 C.ar      1 UNK         0.0000 
     34 C34         0.0842   51.9057   29.0960 C.ar      1 UNK         0.0000 
     35 Cl35        0.3027   54.0970   32.4211 Cl        1 UNK         0.0000 
     36 H36         7.1536   54.6370   24.2960 H         1 UNK         0.0000 
     37 H37         5.8670   54.9255   23.1403 H         1 UNK         0.0000 
     38 H38         6.1607   53.2969   23.7384 H         1 UNK         0.0000 
     39 H39         5.5773   54.1007   26.0777 H         1 UNK         0.0000 
     40 H40         5.1351   55.6588   25.4264 H         1 UNK         0.0000 
     41 H41         3.5792   54.8970   22.9481 H         1 UNK         0.0000 
     42 H42         1.2867   54.1256   22.6074 H         1 UNK         0.0000 
     43 H43         3.5767   53.2139   26.9003 H         1 UNK         0.0000 
     44 H44        -1.5426   54.0967   24.0789 H         1 UNK         0.0000 
     45 H45        -1.1684   52.9320   22.7955 H         1 UNK         0.0000 
     46 H46        -2.2128   52.4700   24.1209 H         1 UNK         0.0000 
     47 H47         1.0484   49.9517   25.3546 H         1 UNK         0.0000 
     48 H48         0.7022   47.8143   24.6473 H         1 UNK         0.0000 
     49 H49        -0.9639   47.8702   25.1542 H         1 UNK         0.0000 
     50 H50        -0.9121   47.6459   22.7153 H         1 UNK         0.0000 
     51 H51        -1.5370   49.2218   23.0907 H         1 UNK         0.0000 
     52 H52        -0.5959   47.1866   20.3500 H         1 UNK         0.0000 
     53 H53         0.3748   46.8328   18.1725 H         1 UNK         0.0000 
     54 H54         2.2821   48.3340   17.4146 H         1 UNK         0.0000 
     55 H55         3.1043   50.1026   18.7784 H         1 UNK         0.0000 
     56 H56         0.6868   51.3441   22.6366 H         1 UNK         0.0000 
     57 H57         1.9141   50.2682   23.3873 H         1 UNK         0.0000 
     58 H58         1.5242   54.7022   27.7829 H         1 UNK         0.0000 
     59 H59         1.3034   55.4398   30.1078 H         1 UNK         0.0000 
     60 H60        -0.4958   51.6955   31.1586 H         1 UNK         0.0000 
     61 H61        -0.2584   50.9140   28.8288 H         1 UNK         0.0000 
     62 H62         2.8357   51.2960   21.2374 H         1 UNK         0.0000 
@<TRIPOS>BOND
     1    1    2 1    
     2    1   36 1    
     3    1   37 1    
     4    1   38 1    
     5    2    3 1    
     6    2   39 1    
     7    2   40 1    
     8    3    8 ar   
     9    3    4 ar   
    10    4    5 ar   
    11    4   41 1    
    12    5    6 ar   
    13    5   42 1    
    14    6   13 1    
    15    6    7 ar   
    16    7    8 ar   
    17    7    9 1    
    18    8   43 1    
    19    9   10 1    
    20    9   11 1    
    21    9   29 1    
    22   11   12 1    
    23   11   13 1    
    24   11   15 1    
    25   13   14 1    
    26   14   44 1    
    27   14   45 1    
    28   14   46 1    
    29   15   16 2    
    30   15   17 am   BACKBONE|DICT|INTERRES
    31   17   18 1    
    32   17   47 1    
    33   18   19 1    
    34   18   48 1    
    35   18   49 1    
    36   19   20 1    
    37   19   50 1    
    38   19   51 1    
    39   20   28 1    
    40   20   21 2    
    41   21   26 1    
    42   21   22 1    
    43   22   23 2    
    44   22   52 1    
    45   23   24 1    
    46   23   53 1    
    47   24   25 2    
    48   24   54 1    
    49   25   26 1    
    50   25   55 1    
    51   26   27 2    
    52   27   28 1    
    53   27   62 1    
    54   28   56 1    
    55   28   57 1    
    56   29   34 ar   
    57   29   30 ar   
    58   30   31 ar   
    59   30   58 1    
    60   31   32 ar   
    61   31   59 1    
    62   32   33 ar   
    63   32   35 1    
    64   33   34 ar   
    65   33   60 1    
    66   34   61 1    
@<TRIPOS>SUBSTRUCTURE
     1 UNK         1 GROUP             0       ****    0 ROOT    
