ZINC38687269_2319
                    3D
 Schrodinger Suite 2024-2.
 54 58  0  0  1  0            999 V2000
    5.5963   55.7011   19.5980 C   0  0  0  0  0  0
    4.8284   54.5187   19.0360 C   0  0  0  0  0  0
    4.6270   54.2763   17.6354 C   0  0  0  0  0  0
    4.9854   54.9273   16.4418 C   0  0  0  0  0  0
    4.6072   54.3602   15.2221 C   0  0  0  0  0  0
    3.8845   53.1667   15.1710 C   0  0  0  0  0  0
    3.5067   52.4971   16.3362 C   0  0  0  0  0  0
    3.8891   53.0764   17.5506 C   0  0  0  0  0  0
    3.6150   52.5865   18.7881 O   0  0  0  0  0  0
    4.1850   53.4460   19.6840 C   0  0  0  0  0  0
    3.9788   53.0950   21.0906 C   0  0  0  0  0  0
    3.6186   51.9740   21.4648 O   0  0  0  0  0  0
    4.2181   54.1595   21.9041 O   0  0  0  0  0  0
    3.9105   54.0969   23.2452 C   0  0  0  0  0  0
    2.5926   53.9245   23.6878 C   0  0  0  0  0  0
    2.3013   53.9055   25.0513 C   0  0  0  0  0  0
    3.3086   54.0936   26.0077 C   0  0  0  0  0  0
    4.6305   54.2493   25.5413 C   0  0  0  0  0  0
    4.9312   54.2606   24.1814 C   0  0  0  0  0  0
    5.6920   54.3535   26.4232 O   0  0  0  0  0  0
    5.5360   53.7717   27.6407 C   0  0  0  0  0  0
    4.3316   53.5605   28.2104 C   0  0  0  0  0  0
    3.0925   54.1534   27.5354 C   0  0  2  0  0  0
    3.1246   55.2257   27.7328 H   0  0  0  0  0  0
    1.7806   53.6282   28.1405 C   0  0  0  0  0  0
    1.2442   52.4076   27.7074 C   0  0  0  0  0  0
    0.1477   51.8445   28.3552 C   0  0  0  0  0  0
   -0.4176   52.4921   29.4483 C   0  0  0  0  0  0
    0.0984   53.7131   29.8812 C   0  0  0  0  0  0
    1.2028   54.2970   29.2381 C   0  0  0  0  0  0
    1.8063   55.4703   29.6654 O   0  0  0  0  0  0
    1.2483   56.2249   30.7357 C   0  0  0  0  0  0
    4.1640   52.7995   29.4127 C   0  0  0  0  0  0
    3.9077   52.1827   30.3613 N   0  0  0  0  0  0
    6.7611   53.3688   28.0825 N   0  0  0  0  0  0
    4.9522   54.9767   14.0703 F   0  0  0  0  0  0
    6.6249   55.7057   19.2343 H   0  0  0  0  0  0
    5.1500   56.6435   19.2801 H   0  0  0  0  0  0
    5.6538   55.7253   20.6847 H   0  0  0  0  0  0
    5.5476   55.8487   16.4595 H   0  0  0  0  0  0
    3.6209   52.7525   14.2084 H   0  0  0  0  0  0
    2.9727   51.5568   16.3111 H   0  0  0  0  0  0
    1.7942   53.8078   22.9690 H   0  0  0  0  0  0
    1.2735   53.7829   25.3579 H   0  0  0  0  0  0
    5.9529   54.3880   23.8558 H   0  0  0  0  0  0
    1.7052   51.8657   26.8952 H   0  0  0  0  0  0
   -0.2473   50.8909   28.0310 H   0  0  0  0  0  0
   -1.2497   52.0374   29.9674 H   0  0  0  0  0  0
   -0.3582   54.1805   30.7393 H   0  0  0  0  0  0
    1.9119   57.0520   30.9865 H   0  0  0  0  0  0
    0.3042   56.6676   30.4395 H   0  0  0  0  0  0
    1.1021   55.6362   31.6417 H   0  0  0  0  0  0
    6.8889   53.0442   29.0296 H   0  0  0  0  0  0
    7.5102   53.2072   27.4270 H   0  0  0  0  0  0
  1  2  1  0  0  0
  1 37  1  0  0  0
  1 38  1  0  0  0
  1 39  1  0  0  0
  2 10  2  0  0  0
  2  3  1  0  0  0
  3  8  2  0  0  0
  3  4  1  0  0  0
  4  5  2  0  0  0
  4 40  1  0  0  0
  5  6  1  0  0  0
  5 36  1  0  0  0
  6  7  2  0  0  0
  6 41  1  0  0  0
  7  8  1  0  0  0
  7 42  1  0  0  0
  8  9  1  0  0  0
  9 10  1  0  0  0
 10 11  1  0  0  0
 11 12  2  0  0  0
 11 13  1  0  0  0
 13 14  1  0  0  0
 14 19  2  0  0  0
 14 15  1  0  0  0
 15 16  2  0  0  0
 15 43  1  0  0  0
 16 17  1  0  0  0
 16 44  1  0  0  0
 17 23  1  0  0  0
 17 18  2  0  0  0
 18 19  1  0  0  0
 18 20  1  0  0  0
 19 45  1  0  0  0
 20 21  1  0  0  0
 21 22  2  0  0  0
 21 35  1  0  0  0
 22 23  1  0  0  0
 22 33  1  0  0  0
 23 24  1  0  0  0
 23 25  1  0  0  0
 25 30  2  0  0  0
 25 26  1  0  0  0
 26 27  2  0  0  0
 26 46  1  0  0  0
 27 28  1  0  0  0
 27 47  1  0  0  0
 28 29  2  0  0  0
 28 48  1  0  0  0
 29 30  1  0  0  0
 29 49  1  0  0  0
 30 31  1  0  0  0
 31 32  1  0  0  0
 32 50  1  0  0  0
 32 51  1  0  0  0
 32 52  1  0  0  0
 33 34  3  0  0  0
 35 53  1  0  0  0
 35 54  1  0  0  0
M  END
> <i_i_glide_confnum>
8

> <i_i_glide_lignum>
2320

> <i_i_glide_posenum>
321

> <i_i_glide_rotatable_bonds>
6

> <i_m_Source_File_Index>
5408

> <b_m_subgroup_collapsed>
0

> <r_i_docking_score>
-5.38051

> <r_i_glide_ecoul>
-4.35427

> <r_i_glide_eff_state_penalty>
0

> <r_i_glide_einternal>
5.65766

> <r_i_glide_emodel>
-64.6746

> <r_i_glide_energy>
-54.4912

> <r_i_glide_erotb>
0.365172

> <r_i_glide_esite>
0

> <r_i_glide_evdw>
-50.1369

> <r_i_glide_gscore>
-5.38051

> <r_i_glide_hbond>
-0.0730525

> <r_i_glide_ligand_efficiency>
-0.153729

> <r_i_glide_ligand_efficiency_ln>
-1.18114

> <r_i_glide_ligand_efficiency_sa>
-0.502857

> <r_i_glide_lipo>
-3.12825

> <r_i_glide_metal>
0

> <r_i_glide_rewards>
0.615602

> <s_i_glide_gridfile>
wee1_glide-grid

> <s_m_Source_File>
wee1_decoys_glide_SP.sdf

> <s_m_Source_Path>
/Users/zhangxujun/Desktop

> <s_m_entry_id>
5683

> <s_m_entry_name>
wee1_decoys_glide_SP.5408

> <s_m_subgroup_title>
wee1_decoys_glide_SP

> <s_m_subgroupid>
wee1_decoys_glide_SP


$$$$
