@<TRIPOS>MOLECULE
ZINC39884976_3629
49   52    1
SMALL
USER_CHARGES


@<TRIPOS>ATOM
      1 C1          6.7044   55.0848   23.4150 C.ar      1 UNK         0.0000 
      2 C2          7.0857   55.2971   22.0922 C.ar      1 UNK         0.0000 
      3 C3          6.2276   54.9215   21.0611 C.ar      1 UNK         0.0000 
      4 C4          5.0053   54.3150   21.3421 C.ar      1 UNK         0.0000 
      5 C5          4.6315   54.0967   22.6660 C.ar      1 UNK         0.0000 
      6 C6          5.4772   54.4911   23.7106 C.ar      1 UNK         0.0000 
      7 C7          5.0723   54.3058   25.1333 C.2       1 UNK         0.0000 
      8 C8          5.7326   54.3552   26.3547 C.2       1 UNK         0.0000 
      9 C9          4.7891   54.0584   27.3412 C.2       1 UNK         0.0000 
     10 C10         3.5793   53.8446   26.6939 C.2       1 UNK         0.0000 
     11 O11         3.7663   54.0177   25.3615 O.3       1 UNK         0.0000 
     12 C12         2.2460   53.4705   27.1065 C.2       1 UNK         0.0000 
     13 C13         1.8513   52.7968   28.2151 C.2       1 UNK         0.0000 
     14 C14         2.7635   52.3993   29.2424 C.1       1 UNK         0.0000 
     15 N15         3.5036   52.0969   30.0812 N.1       1 UNK         0.0000 
     16 C16         0.4574   52.4468   28.4334 C.2       1 UNK         0.0000 
     17 O17        -0.0084   52.3804   29.5704 O.2       1 UNK         0.0000 
     18 N18        -0.2461   52.2159   27.2985 N.am      1 UNK         0.0000 
     19 C19        -1.5816   51.8651   27.1214 C.2       1 UNK         0.0000 
     20 C20        -2.2928   51.9290   25.9029 C.2       1 UNK         0.0000 
     21 C21        -3.6284   51.4379   26.0573 C.2       1 UNK         0.0000 
     22 C22        -3.9128   51.0767   27.3849 C.2       1 UNK         0.0000 
     23 S23        -2.5663   51.2966   28.4338 S.3       1 UNK         0.0000 
     24 C24        -5.2129   50.4641   27.8860 C.3       1 UNK         0.0000 
     25 C25        -6.3169   50.6729   26.8327 C.3       1 UNK         0.0000 
     26 C26        -5.8225   50.3109   25.4242 C.3       1 UNK         0.0000 
     27 C27        -4.6808   51.2382   24.9526 C.3       1 UNK         0.0000 
     28 C28        -1.6765   52.3865   24.6558 C.2       1 UNK         0.0000 
     29 O29        -0.4593   52.4942   24.5143 O.2       1 UNK         0.0000 
     30 N30        -2.4983   52.7718   23.6815 N.am      1 UNK         0.0000 
     31 Cl31        6.6935   55.1955   19.4235 Cl        1 UNK         0.0000 
     32 H32         7.3729   55.3922   24.2055 H         1 UNK         0.0000 
     33 H33         8.0406   55.7528   21.8731 H         1 UNK         0.0000 
     34 H34         4.3464   54.0194   20.5380 H         1 UNK         0.0000 
     35 H35         3.6774   53.6332   22.8724 H         1 UNK         0.0000 
     36 H36         6.7799   54.5595   26.5155 H         1 UNK         0.0000 
     37 H37         4.9727   53.9929   28.4040 H         1 UNK         0.0000 
     38 H38         1.5178   53.7737   26.3654 H         1 UNK         0.0000 
     39 H39         0.2378   52.3586   26.4228 H         1 UNK         0.0000 
     40 H40        -5.5145   50.8918   28.8426 H         1 UNK         0.0000 
     41 H41        -5.0682   49.3951   28.0510 H         1 UNK         0.0000 
     42 H42        -6.6545   51.7108   26.8483 H         1 UNK         0.0000 
     43 H43        -7.1878   50.0690   27.0914 H         1 UNK         0.0000 
     44 H44        -6.6496   50.3587   24.7144 H         1 UNK         0.0000 
     45 H45        -5.4807   49.2740   25.4166 H         1 UNK         0.0000 
     46 H46        -4.2391   50.8081   24.0531 H         1 UNK         0.0000 
     47 H47        -5.1030   52.2027   24.6674 H         1 UNK         0.0000 
     48 H48        -3.4960   52.6753   23.7871 H         1 UNK         0.0000 
     49 H49        -2.1030   53.1252   22.8259 H         1 UNK         0.0000 
@<TRIPOS>BOND
     1    1    6 ar   
     2    1    2 ar   
     3    1   32 1    
     4    2    3 ar   
     5    2   33 1    
     6    3    4 ar   
     7    3   31 1    
     8    4    5 ar   
     9    4   34 1    
    10    5    6 ar   
    11    5   35 1    
    12    6    7 1    
    13    7   11 1    
    14    7    8 2    
    15    8    9 1    
    16    8   36 1    
    17    9   10 2    
    18    9   37 1    
    19   10   11 1    
    20   10   12 1    
    21   12   13 2    
    22   12   38 1    
    23   13   14 1    
    24   13   16 1    
    25   14   15 3    
    26   16   17 2    
    27   16   18 am   BACKBONE|DICT|INTERRES
    28   18   19 am   BACKBONE|DICT|INTERRES
    29   18   39 1    
    30   19   23 1    
    31   19   20 2    
    32   20   21 1    
    33   20   28 1    
    34   21   27 1    
    35   21   22 2    
    36   22   23 1    
    37   22   24 1    
    38   24   25 1    
    39   24   40 1    
    40   24   41 1    
    41   25   26 1    
    42   25   42 1    
    43   25   43 1    
    44   26   27 1    
    45   26   44 1    
    46   26   45 1    
    47   27   46 1    
    48   27   47 1    
    49   28   29 2    
    50   28   30 am   BACKBONE|DICT|INTERRES
    51   30   48 1    
    52   30   49 1    
@<TRIPOS>SUBSTRUCTURE
     1 UNK         1 GROUP             0       ****    0 ROOT    
