@<TRIPOS>MOLECULE
ZINC04153187_3853
45   48    1
SMALL
USER_CHARGES


@<TRIPOS>ATOM
      1 C1         -0.8961   53.0395   23.9649 C.3       1 UNK         0.0000 
      2 C2          0.2322   52.0731   24.4028 C.3       1 UNK         0.0000 
      3 C3          0.3867   52.1831   25.9421 C.3       1 UNK         0.0000 
      4 C4         -0.2417   50.6247   24.1066 C.3       1 UNK         0.0000 
      5 C5          1.6024   52.3695   23.6696 C.3       1 UNK         0.0000 
      6 H6          2.3075   51.6395   24.0736 H         1 UNK         0.0000 
      7 C7          2.1792   53.7917   23.9200 C.3       1 UNK         0.0000 
      8 C8          3.6465   53.9127   23.4514 C.3       1 UNK         0.0000 
      9 C9          3.7582   53.4620   21.9949 C.2       1 UNK         0.0000 
     10 C10         2.7835   52.6175   21.4331 C.2       1 UNK         0.0000 
     11 S11         3.1112   52.2345   19.7768 S.3       1 UNK         0.0000 
     12 C12         4.5191   53.2264   19.8206 C.2       1 UNK         0.0000 
     13 C13         4.7417   53.8568   21.0512 C.2       1 UNK         0.0000 
     14 C14         5.8972   54.7131   21.2998 C.2       1 UNK         0.0000 
     15 O15         6.3040   55.1842   22.3609 O.2       1 UNK         0.0000 
     16 N16         6.6182   54.9183   20.1737 N.am      1 UNK         0.0000 
     17 C17         6.1551   54.6401   18.7948 C.3       1 UNK         0.0000 
     18 H18         7.0523   54.4295   18.2121 H         1 UNK         0.0000 
     19 N19         5.3467   53.4085   18.7392 N.pl3     1 UNK         0.0000 
     20 C20         5.4825   55.8536   18.1718 C.2       1 UNK         0.0000 
     21 C21         4.2091   56.1196   17.6839 C.2       1 UNK         0.0000 
     22 C22         4.2231   57.4272   17.1940 C.2       1 UNK         0.0000 
     23 C23         5.5011   57.9125   17.4119 C.2       1 UNK         0.0000 
     24 O24         6.2635   56.9576   18.0044 O.3       1 UNK         0.0000 
     25 C25         1.5171   52.1332   22.1297 C.3       1 UNK         0.0000 
     26 H26        -1.7962   52.8970   24.5657 H         1 UNK         0.0000 
     27 H27        -1.1904   52.8813   22.9280 H         1 UNK         0.0000 
     28 H28        -0.6064   54.0836   24.0728 H         1 UNK         0.0000 
     29 H29         1.1102   51.4672   26.3262 H         1 UNK         0.0000 
     30 H30         0.6960   53.1730   26.2750 H         1 UNK         0.0000 
     31 H31        -0.5524   51.9669   26.4516 H         1 UNK         0.0000 
     32 H32         0.5309   49.8931   24.3437 H         1 UNK         0.0000 
     33 H33        -1.1204   50.3607   24.6970 H         1 UNK         0.0000 
     34 H34        -0.5199   50.4815   23.0607 H         1 UNK         0.0000 
     35 H35         1.5434   54.5622   23.4798 H         1 UNK         0.0000 
     36 H36         2.1820   54.0179   24.9848 H         1 UNK         0.0000 
     37 H37         3.9872   54.9361   23.5851 H         1 UNK         0.0000 
     38 H38         4.2941   53.2990   24.0758 H         1 UNK         0.0000 
     39 H39         7.3603   55.5923   20.2780 H         1 UNK         0.0000 
     40 H40         5.7391   52.6265   18.2318 H         1 UNK         0.0000 
     41 H41         3.3730   55.4362   17.6854 H         1 UNK         0.0000 
     42 H42         3.3981   57.9639   16.7474 H         1 UNK         0.0000 
     43 H43         5.9726   58.8697   17.2233 H         1 UNK         0.0000 
     44 H44         1.3591   51.0783   21.9087 H         1 UNK         0.0000 
     45 H45         0.6761   52.6817   21.7056 H         1 UNK         0.0000 
@<TRIPOS>BOND
     1    1    2 1    
     2    1   26 1    
     3    1   27 1    
     4    1   28 1    
     5    2    3 1    
     6    2    4 1    
     7    2    5 1    
     8    3   29 1    
     9    3   30 1    
    10    3   31 1    
    11    4   32 1    
    12    4   33 1    
    13    4   34 1    
    14    5    6 1    
    15    5   25 1    
    16    5    7 1    
    17    7    8 1    
    18    7   35 1    
    19    7   36 1    
    20    8    9 1    
    21    8   37 1    
    22    8   38 1    
    23    9   13 1    
    24    9   10 2    
    25   10   11 1    
    26   10   25 1    
    27   11   12 1    
    28   12   19 1    
    29   12   13 2    
    30   13   14 1    
    31   14   15 2    
    32   14   16 am   BACKBONE|DICT|INTERRES
    33   16   17 1    
    34   16   39 1    
    35   17   18 1    
    36   17   19 1    
    37   17   20 1    
    38   19   40 1    
    39   20   24 1    
    40   20   21 2    
    41   21   22 1    
    42   21   41 1    
    43   22   23 2    
    44   22   42 1    
    45   23   24 1    
    46   23   43 1    
    47   25   44 1    
    48   25   45 1    
@<TRIPOS>SUBSTRUCTURE
     1 UNK         1 GROUP             0       ****    0 ROOT    
