@<TRIPOS>MOLECULE
ZINC06300988_1170
72   77    1
SMALL
USER_CHARGES


@<TRIPOS>ATOM
      1 C1          6.7056   52.4114   11.3733 C.3       1 UNK         0.0000 
      2 C2          5.8833   53.1466   12.4166 C.ar      1 UNK         0.0000 
      3 C3          5.6344   54.5156   12.2767 C.ar      1 UNK         0.0000 
      4 C4          4.8933   55.2146   13.2374 C.ar      1 UNK         0.0000 
      5 C5          4.4000   54.5220   14.3508 C.ar      1 UNK         0.0000 
      6 C6          4.6528   53.1481   14.4930 C.ar      1 UNK         0.0000 
      7 C7          5.3951   52.4617   13.5324 C.ar      1 UNK         0.0000 
      8 C8          4.1170   52.4954   15.6958 C.ar      1 UNK         0.0000 
      9 C9          3.4093   53.1726   16.6329 C.ar      1 UNK         0.0000 
     10 C10         3.1527   54.6142   16.4816 C.ar      1 UNK         0.0000 
     11 O11         2.5572   55.3279   17.2812 O.2       1 UNK         0.0000 
     12 N12         3.6545   55.1681   15.3560 N.pl3     1 UNK         0.0000 
     13 H13         3.4695   56.1545   15.2842 H         1 UNK         0.0000 
     14 C14         2.9016   52.4714   17.9066 C.3       1 UNK         0.0000 
     15 H15         3.4852   51.5569   18.0098 H         1 UNK         0.0000 
     16 C16         1.4020   52.1495   17.9248 C.ar      1 UNK         0.0000 
     17 N17         0.4636   53.0556   18.0806 N.2       1 UNK         0.0000 
     18 N18        -0.7420   52.3739   18.1059 N.2       1 UNK         0.0000 
     19 N19        -0.5120   51.0238   17.9471 N.2       1 UNK         0.0000 
     20 N20         0.8214   50.8924   17.8310 N.pl3     1 UNK         0.0000 
     21 C21         1.4319   49.5541   17.6375 C.3       1 UNK         0.0000 
     22 C22         2.3054   49.0636   18.8203 C.3       1 UNK         0.0000 
     23 C23         1.4695   48.5688   20.0148 C.3       1 UNK         0.0000 
     24 C24         0.5017   47.4465   19.5832 C.3       1 UNK         0.0000 
     25 C25        -0.3812   47.8495   18.3807 C.3       1 UNK         0.0000 
     26 C26         0.4446   48.4311   17.2048 C.3       1 UNK         0.0000 
     27 C27         4.8206   53.4075   19.3607 C.3       1 UNK         0.0000 
     28 C28         5.1132   54.2661   20.6126 C.3       1 UNK         0.0000 
     29 C29         4.4973   53.6451   21.8732 C.2       1 UNK         0.0000 
     30 C30         3.3584   52.9284   21.7733 C.2       1 UNK         0.0000 
     31 C31         2.6897   52.5010   20.4820 C.3       1 UNK         0.0000 
     32 C32         4.9505   54.0977   23.2188 C.ar      1 UNK         0.0000 
     33 C33         6.3179   54.2591   23.4639 C.ar      1 UNK         0.0000 
     34 C34         6.7745   54.6275   24.7250 C.ar      1 UNK         0.0000 
     35 C35         5.8742   54.8316   25.7599 C.ar      1 UNK         0.0000 
     36 C36         4.5113   54.6761   25.5446 C.ar      1 UNK         0.0000 
     37 C37         4.0531   54.3121   24.2802 C.ar      1 UNK         0.0000 
     38 F38         6.3316   55.1842   26.9822 F         1 UNK         0.0000 
     39 C39         4.6423   56.7054   13.0509 C.3       1 UNK         0.0000 
     40 H40         7.2563   51.5815   11.8171 H         1 UNK         0.0000 
     41 H41         6.0610   52.0242   10.5815 H         1 UNK         0.0000 
     42 H42         7.4488   53.0733   10.9273 H         1 UNK         0.0000 
     43 H43         6.0235   55.0379   11.4133 H         1 UNK         0.0000 
     44 H44         5.5899   51.4050   13.6523 H         1 UNK         0.0000 
     45 H45         4.3002   51.4388   15.8337 H         1 UNK         0.0000 
     46 H46         2.0819   49.7272   16.7784 H         1 UNK         0.0000 
     47 H47         2.9464   48.2532   18.4648 H         1 UNK         0.0000 
     48 H48         3.0639   49.7840   19.1065 H         1 UNK         0.0000 
     49 H49         2.1310   48.2127   20.8068 H         1 UNK         0.0000 
     50 H50         0.9039   49.4032   20.4385 H         1 UNK         0.0000 
     51 H51         1.0817   46.5601   19.3195 H         1 UNK         0.0000 
     52 H52        -0.1260   47.1570   20.4296 H         1 UNK         0.0000 
     53 H53        -0.9509   46.9841   18.0366 H         1 UNK         0.0000 
     54 H54        -1.1258   48.5726   18.7121 H         1 UNK         0.0000 
     55 H55        -0.1969   48.7783   16.3928 H         1 UNK         0.0000 
     56 H56         1.0190   47.6388   16.7187 H         1 UNK         0.0000 
     57 H57         5.1683   53.9278   18.4699 H         1 UNK         0.0000 
     58 H58         5.2716   52.4149   19.3986 H         1 UNK         0.0000 
     59 H59         4.7028   55.2662   20.4702 H         1 UNK         0.0000 
     60 H60         6.1858   54.4201   20.7155 H         1 UNK         0.0000 
     61 H61         2.8905   52.5781   22.6812 H         1 UNK         0.0000 
     62 H62         2.8353   51.4324   20.3701 H         1 UNK         0.0000 
     63 H63         1.6242   52.7290   20.5011 H         1 UNK         0.0000 
     64 H64         7.0535   54.0917   22.6916 H         1 UNK         0.0000 
     65 H65         7.8322   54.7496   24.8832 H         1 UNK         0.0000 
     66 H66         3.8141   54.8378   26.3521 H         1 UNK         0.0000 
     67 H67         2.9879   54.2138   24.1352 H         1 UNK         0.0000 
     68 H68         5.0993   57.0925   12.1383 H         1 UNK         0.0000 
     69 H69         3.5711   56.9055   13.0065 H         1 UNK         0.0000 
     70 H70         5.0466   57.2650   13.8957 H         1 UNK         0.0000 
     71 N71         3.2890   53.2091   19.2354 N.4       1 UNK         0.0000 
     72 H72         2.8437   54.1234   19.1820 H         1 UNK         0.0000 
@<TRIPOS>BOND
     1    1    2 1    
     2    1   40 1    
     3    1   41 1    
     4    1   42 1    
     5    2    7 ar   
     6    2    3 ar   
     7    3    4 ar   
     8    3   43 1    
     9    4    5 ar   
    10    4   39 1    
    11    5   12 ar   
    12    5    6 ar   
    13    6    7 ar   
    14    6    8 ar   
    15    7   44 1    
    16    8    9 ar   
    17    8   45 1    
    18    9   10 ar   
    19    9   14 1    
    20   10   11 2    
    21   10   12 ar   
    22   12   13 1    
    23   14   15 1    
    24   14   16 1    
    25   14   71 1    
    26   16   20 ar   
    27   16   17 ar   
    28   17   18 ar   
    29   18   19 ar   
    30   19   20 ar   
    31   20   21 1    
    32   21   26 1    
    33   21   22 1    
    34   21   46 1    
    35   22   23 1    
    36   22   47 1    
    37   22   48 1    
    38   23   24 1    
    39   23   49 1    
    40   23   50 1    
    41   24   25 1    
    42   24   51 1    
    43   24   52 1    
    44   25   26 1    
    45   25   53 1    
    46   25   54 1    
    47   26   55 1    
    48   26   56 1    
    49   27   28 1    
    50   27   57 1    
    51   27   58 1    
    52   27   71 1    
    53   28   29 1    
    54   28   59 1    
    55   28   60 1    
    56   29   30 2    
    57   29   32 1    
    58   30   31 1    
    59   30   61 1    
    60   31   62 1    
    61   31   63 1    
    62   31   71 1    
    63   32   37 ar   
    64   32   33 ar   
    65   33   34 ar   
    66   33   64 1    
    67   34   35 ar   
    68   34   65 1    
    69   35   36 ar   
    70   35   38 1    
    71   36   37 ar   
    72   36   66 1    
    73   37   67 1    
    74   39   68 1    
    75   39   69 1    
    76   39   70 1    
    77   71   72 1    
@<TRIPOS>SUBSTRUCTURE
     1 UNK         1 GROUP             0       ****    0 ROOT    
