@<TRIPOS>MOLECULE
ZINC39609129_173
76   80    1
SMALL
USER_CHARGES


@<TRIPOS>ATOM
      1 C1          1.3497   44.7542   12.5037 C.3       1 UNK         0.0000 
      2 C2          1.4708   45.4105   13.8674 C.ar      1 UNK         0.0000 
      3 C3          1.2118   44.6669   15.0218 C.ar      1 UNK         0.0000 
      4 C4          1.3270   45.2634   16.2731 C.ar      1 UNK         0.0000 
      5 C5          1.7088   46.6036   16.3771 C.ar      1 UNK         0.0000 
      6 C6          1.9405   47.3547   15.2195 C.ar      1 UNK         0.0000 
      7 C7          1.8221   46.7573   13.9682 C.ar      1 UNK         0.0000 
      8 C8          1.8656   47.2574   17.7467 C.3       1 UNK         0.0000 
      9 C9          0.5916   47.9590   18.2627 C.2       1 UNK         0.0000 
     10 O10        -0.5015   47.4195   18.0590 O.2       1 UNK         0.0000 
     11 N11         0.7008   49.1183   18.9559 N.am      1 UNK         0.0000 
     12 C12        -0.4796   49.7953   19.5126 C.3       1 UNK         0.0000 
     13 C13         0.1051   50.8654   20.4571 C.3       1 UNK         0.0000 
     14 H14        -0.5108   51.7637   20.5020 H         1 UNK         0.0000 
     15 C15         1.4756   51.2139   19.7959 C.3       1 UNK         0.0000 
     16 C16         1.9497   49.8261   19.2858 C.3       1 UNK         0.0000 
     17 C17         1.2338   52.1935   18.6029 C.3       1 UNK         0.0000 
     18 C18         2.5063   52.4439   17.7647 C.3       1 UNK         0.0000 
     19 N19         3.5911   53.0261   18.6976 N.4       1 UNK         0.0000 
     20 C20         3.8322   52.2140   19.9911 C.3       1 UNK         0.0000 
     21 C21         2.4859   51.9886   20.6942 C.3       1 UNK         0.0000 
     22 C22         0.2866   50.3191   21.9011 C.2       1 UNK         0.0000 
     23 O23         0.3857   49.1113   22.1180 O.2       1 UNK         0.0000 
     24 N24         0.2840   51.2323   22.8877 N.am      1 UNK         0.0000 
     25 C25         0.5066   50.9272   24.3032 C.3       1 UNK         0.0000 
     26 H26         1.3837   50.2867   24.4382 H         1 UNK         0.0000 
     27 C27        -0.6969   50.2655   24.9823 C.3       1 UNK         0.0000 
     28 C28        -0.4569   50.4966   26.4745 C.3       1 UNK         0.0000 
     29 C29         0.3404   51.8079   26.5726 C.3       1 UNK         0.0000 
     30 C30         0.7202   52.2042   25.1310 C.3       1 UNK         0.0000 
     31 H31         0.0773   53.0166   24.7832 H         1 UNK         0.0000 
     32 O32         2.0871   52.6088   25.0512 O.3       1 UNK         0.0000 
     33 C33         2.3403   53.9445   25.4792 C.3       1 UNK         0.0000 
     34 C34         3.7895   54.0966   25.9210 C.ar      1 UNK         0.0000 
     35 C35         4.7695   54.4957   25.0078 C.ar      1 UNK         0.0000 
     36 C36         6.0943   54.6311   25.4206 C.ar      1 UNK         0.0000 
     37 C37         6.4316   54.3705   26.7494 C.ar      1 UNK         0.0000 
     38 C38         5.4603   53.9737   27.6650 C.ar      1 UNK         0.0000 
     39 C39         4.1376   53.8335   27.2509 C.ar      1 UNK         0.0000 
     40 H40         0.5289   44.0347   12.4965 H         1 UNK         0.0000 
     41 H41         1.1281   45.4860   11.7245 H         1 UNK         0.0000 
     42 H42         2.2689   44.2258   12.2445 H         1 UNK         0.0000 
     43 H43         0.9252   43.6291   14.9470 H         1 UNK         0.0000 
     44 H44         1.1269   44.6852   17.1621 H         1 UNK         0.0000 
     45 H45         2.2310   48.3924   15.2957 H         1 UNK         0.0000 
     46 H46         2.0138   47.3446   13.0813 H         1 UNK         0.0000 
     47 H47         2.1181   46.4968   18.4813 H         1 UNK         0.0000 
     48 H48         2.7051   47.9363   17.7087 H         1 UNK         0.0000 
     49 H49        -1.0360   50.2849   18.7130 H         1 UNK         0.0000 
     50 H50        -1.1736   49.1326   20.0385 H         1 UNK         0.0000 
     51 H51         2.4335   49.2996   20.1097 H         1 UNK         0.0000 
     52 H52         2.6912   49.8849   18.4934 H         1 UNK         0.0000 
     53 H53         0.4941   51.7712   17.9205 H         1 UNK         0.0000 
     54 H54         0.7953   53.1344   18.9421 H         1 UNK         0.0000 
     55 H55         2.9315   51.5528   17.3052 H         1 UNK         0.0000 
     56 H56         2.3476   53.1872   16.9813 H         1 UNK         0.0000 
     57 H57         4.4625   53.1003   18.1849 H         1 UNK         0.0000 
     58 H58         4.3053   51.2800   19.6910 H         1 UNK         0.0000 
     59 H59         4.5387   52.7912   20.5893 H         1 UNK         0.0000 
     60 H60         2.0619   52.9274   21.0522 H         1 UNK         0.0000 
     61 H61         2.7167   51.4129   21.5931 H         1 UNK         0.0000 
     62 H62         0.1913   52.2070   22.6492 H         1 UNK         0.0000 
     63 H63        -1.6252   50.7411   24.6652 H         1 UNK         0.0000 
     64 H64        -0.7909   49.2101   24.7236 H         1 UNK         0.0000 
     65 H65         0.1265   49.6671   26.8818 H         1 UNK         0.0000 
     66 H66        -1.3916   50.5312   27.0384 H         1 UNK         0.0000 
     67 H67         1.2292   51.6650   27.1945 H         1 UNK         0.0000 
     68 H68        -0.2584   52.5883   27.0433 H         1 UNK         0.0000 
     69 H69         2.1128   54.6282   24.6599 H         1 UNK         0.0000 
     70 H70         1.6958   54.2200   26.3175 H         1 UNK         0.0000 
     71 H71         4.5056   54.6954   23.9789 H         1 UNK         0.0000 
     72 H72         6.8549   54.9312   24.7148 H         1 UNK         0.0000 
     73 H73         7.4558   54.4689   27.0789 H         1 UNK         0.0000 
     74 H74         5.7343   53.7702   28.6901 H         1 UNK         0.0000 
     75 H75         3.3870   53.5159   27.9598 H         1 UNK         0.0000 
     76 H76         3.3157   53.9647   18.9606 H         1 UNK         0.0000 
@<TRIPOS>BOND
     1    1    2 1    
     2    1   40 1    
     3    1   41 1    
     4    1   42 1    
     5    2    7 ar   
     6    2    3 ar   
     7    3    4 ar   
     8    3   43 1    
     9    4    5 ar   
    10    4   44 1    
    11    5    6 ar   
    12    5    8 1    
    13    6    7 ar   
    14    6   45 1    
    15    7   46 1    
    16    8    9 1    
    17    8   47 1    
    18    8   48 1    
    19    9   10 2    
    20    9   11 am   BACKBONE|DICT|INTERRES
    21   11   16 1    
    22   11   12 1    
    23   12   13 1    
    24   12   49 1    
    25   12   50 1    
    26   13   14 1    
    27   13   15 1    
    28   13   22 1    
    29   15   21 1    
    30   15   16 1    
    31   15   17 1    
    32   16   51 1    
    33   16   52 1    
    34   17   18 1    
    35   17   53 1    
    36   17   54 1    
    37   18   19 1    
    38   18   55 1    
    39   18   56 1    
    40   19   20 1    
    41   19   57 1    
    42   19   76 1    
    43   20   21 1    
    44   20   58 1    
    45   20   59 1    
    46   21   60 1    
    47   21   61 1    
    48   22   23 2    
    49   22   24 am   BACKBONE|DICT|INTERRES
    50   24   25 1    
    51   24   62 1    
    52   25   26 1    
    53   25   30 1    
    54   25   27 1    
    55   27   28 1    
    56   27   63 1    
    57   27   64 1    
    58   28   29 1    
    59   28   65 1    
    60   28   66 1    
    61   29   30 1    
    62   29   67 1    
    63   29   68 1    
    64   30   31 1    
    65   30   32 1    
    66   32   33 1    
    67   33   34 1    
    68   33   69 1    
    69   33   70 1    
    70   34   39 ar   
    71   34   35 ar   
    72   35   36 ar   
    73   35   71 1    
    74   36   37 ar   
    75   36   72 1    
    76   37   38 ar   
    77   37   73 1    
    78   38   39 ar   
    79   38   74 1    
    80   39   75 1    
@<TRIPOS>SUBSTRUCTURE
     1 UNK         1 GROUP             0       ****    0 ROOT    
