ZINC47309404_1695
                    3D
 Schrodinger Suite 2024-2.
 39 41  0  0  1  0            999 V2000
    2.8449   52.0967   31.7193 C   0  0  0  0  0  0
    3.5038   52.8836   30.7302 O   0  0  0  0  0  0
    4.2728   52.0984   29.8311 C   0  0  0  0  0  0
    4.7232   52.9133   28.6335 C   0  0  0  0  0  0
    4.0710   53.2967   27.4695 C   0  0  0  0  0  0
    5.0655   53.9278   26.7051 C   0  0  0  0  0  0
    6.2182   54.0303   27.3151 N   0  0  0  0  0  0
    5.9947   53.4164   28.4817 N   0  0  0  0  0  0
    6.7227   53.3347   29.1770 H   0  0  0  0  0  0
    4.9081   54.3937   25.4227 O   0  0  0  0  0  0
    3.6912   54.1351   24.8676 C   0  0  0  0  0  0
    2.6051   53.6214   25.4951 C   0  0  0  0  0  0
    2.6324   53.1567   26.9656 C   0  0  2  0  0  0
    2.3728   52.0969   26.9423 H   0  0  0  0  0  0
    1.6067   53.9003   27.8771 C   0  0  1  0  0  0
    0.7479   54.1778   27.2817 H   0  0  0  0  0  0
    0.9014   52.9341   28.8617 C   0  0  0  0  0  0
    0.1203   53.5605   30.0320 C   0  0  0  0  0  0
    0.6714   54.8968   30.4819 C   0  0  0  0  0  0
    1.5155   55.6583   29.7741 C   0  0  0  0  0  0
    2.0963   55.2831   28.4280 C   0  0  0  0  0  0
    1.4100   53.4169   24.7389 C   0  0  0  0  0  0
    0.4668   53.2781   24.0826 N   0  0  0  0  0  0
    3.7578   54.4966   23.5512 N   0  0  0  0  0  0
    2.1306   52.6952   32.2796 H   0  0  0  0  0  0
    2.2526   51.2989   31.2770 H   0  0  0  0  0  0
    3.5551   51.6550   32.4194 H   0  0  0  0  0  0
    3.7225   51.2276   29.4760 H   0  0  0  0  0  0
    5.1046   51.6967   30.3968 H   0  0  0  0  0  0
    1.6676   52.3268   29.3208 H   0  0  0  0  0  0
    0.2910   52.2050   28.3253 H   0  0  0  0  0  0
   -0.8956   53.7402   29.7021 H   0  0  0  0  0  0
    0.0398   52.8572   30.8624 H   0  0  0  0  0  0
    0.3375   55.2858   31.4320 H   0  0  0  0  0  0
    1.8135   56.6025   30.2093 H   0  0  0  0  0  0
    1.9041   56.0597   27.6899 H   0  0  0  0  0  0
    3.1731   55.3159   28.5746 H   0  0  0  0  0  0
    2.9855   54.3237   22.9236 H   0  0  0  0  0  0
    4.5103   55.0815   23.2204 H   0  0  0  0  0  0
  1  2  1  0  0  0
  1 25  1  0  0  0
  1 26  1  0  0  0
  1 27  1  0  0  0
  2  3  1  0  0  0
  3  4  1  0  0  0
  3 28  1  0  0  0
  3 29  1  0  0  0
  4  8  1  0  0  0
  4  5  2  0  0  0
  5 13  1  0  0  0
  5  6  1  0  0  0
  6  7  2  0  0  0
  6 10  1  0  0  0
  7  8  1  0  0  0
  8  9  1  0  0  0
 10 11  1  0  0  0
 11 12  2  0  0  0
 11 24  1  0  0  0
 12 13  1  0  0  0
 12 22  1  0  0  0
 13 14  1  0  0  0
 13 15  1  0  0  0
 15 16  1  0  0  0
 15 21  1  0  0  0
 15 17  1  0  0  0
 17 18  1  0  0  0
 17 30  1  0  0  0
 17 31  1  0  0  0
 18 19  1  0  0  0
 18 32  1  0  0  0
 18 33  1  0  0  0
 19 20  2  0  0  0
 19 34  1  0  0  0
 20 21  1  0  0  0
 20 35  1  0  0  0
 21 36  1  0  0  0
 21 37  1  0  0  0
 22 23  3  0  0  0
 24 38  1  0  0  0
 24 39  1  0  0  0
M  END
> <i_i_glide_confnum>
6

> <i_i_glide_lignum>
1696

> <i_i_glide_posenum>
400

> <i_i_glide_rotatable_bonds>
4

> <i_m_Source_File_Index>
1306

> <b_m_subgroup_collapsed>
0

> <r_i_docking_score>
-6.30364

> <r_i_glide_ecoul>
-2.16187

> <r_i_glide_eff_state_penalty>
0

> <r_i_glide_einternal>
5.11214

> <r_i_glide_emodel>
-43.6399

> <r_i_glide_energy>
-33.4346

> <r_i_glide_erotb>
0.442969

> <r_i_glide_esite>
0

> <r_i_glide_evdw>
-31.2727

> <r_i_glide_gscore>
-6.30364

> <r_i_glide_hbond>
-0.263157

> <r_i_glide_ligand_efficiency>
-0.300173

> <r_i_glide_ligand_efficiency_ln>
-1.55856

> <r_i_glide_ligand_efficiency_sa>
-0.828155

> <r_i_glide_lipo>
-2.84972

> <r_i_glide_metal>
0

> <r_i_glide_rewards>
-1.74581

> <s_i_glide_gridfile>
wee1_glide-grid

> <s_m_Source_File>
wee1_decoys_glide_SP.sdf

> <s_m_Source_Path>
/Users/zhangxujun/Desktop

> <s_m_entry_id>
1581

> <s_m_entry_name>
wee1_decoys_glide_SP.1306

> <s_m_subgroup_title>
wee1_decoys_glide_SP

> <s_m_subgroupid>
wee1_decoys_glide_SP


$$$$
