@<TRIPOS>MOLECULE
ZINC65571880_245
60   62    1
SMALL
USER_CHARGES


@<TRIPOS>ATOM
      1 C1          1.6107   56.0581   15.8397 C.3       1 UNK         0.0000 
      2 C2          2.8858   56.7310   16.3392 C.ar      1 UNK         0.0000 
      3 C3          3.6248   56.0915   17.3403 C.ar      1 UNK         0.0000 
      4 C4          4.8087   56.6457   17.8318 C.ar      1 UNK         0.0000 
      5 C5          5.2711   57.8503   17.2812 C.ar      1 UNK         0.0000 
      6 C6          4.5432   58.4917   16.2824 C.ar      1 UNK         0.0000 
      7 C7          3.3431   57.9512   15.7997 C.ar      1 UNK         0.0000 
      8 N8          2.5988   58.6211   14.8004 N.pl3     1 UNK         0.0000 
      9 C9          1.5302   59.4512   15.3448 C.3       1 UNK         0.0000 
     10 C10         3.3563   59.2650   13.7294 C.3       1 UNK         0.0000 
     11 N11         5.4319   55.9481   18.8840 N.am      1 UNK         0.0000 
     12 C12         6.4391   56.3521   19.6998 C.2       1 UNK         0.0000 
     13 O13         7.1040   57.3797   19.5595 O.2       1 UNK         0.0000 
     14 C14         6.7181   55.4527   20.8508 C.2       1 UNK         0.0000 
     15 O15         7.8658   55.2971   21.2703 O.2       1 UNK         0.0000 
     16 N16         5.6329   54.8963   21.4391 N.am      1 UNK         0.0000 
     17 C17         5.6282   54.0315   22.6312 C.3       1 UNK         0.0000 
     18 C18         6.4958   54.5476   23.7993 C.3       1 UNK         0.0000 
     19 C19         5.6587   54.5248   25.0767 C.3       1 UNK         0.0000 
     20 N20         4.3742   53.7429   24.7356 N.4       1 UNK         0.0000 
     21 C21         4.2092   53.9673   23.2135 C.3       1 UNK         0.0000 
     22 C22         3.1372   54.1116   25.6071 C.3       1 UNK         0.0000 
     23 C23         1.8604   53.5427   24.9400 C.3       1 UNK         0.0000 
     24 C24         3.2848   53.7405   27.0981 C.ar      1 UNK         0.0000 
     25 C25         4.1511   54.4795   27.9129 C.ar      1 UNK         0.0000 
     26 C26         4.3030   54.1709   29.2616 C.ar      1 UNK         0.0000 
     27 C27         3.5697   53.1259   29.8151 C.ar      1 UNK         0.0000 
     28 C28         2.6769   52.4006   29.0326 C.ar      1 UNK         0.0000 
     29 C29         2.5376   52.7058   27.6817 C.ar      1 UNK         0.0000 
     30 H30         1.4981   55.0420   16.2252 H         1 UNK         0.0000 
     31 H31         1.6225   55.9948   14.7484 H         1 UNK         0.0000 
     32 H32         0.7300   56.6367   16.1246 H         1 UNK         0.0000 
     33 H33         3.2562   55.1629   17.7518 H         1 UNK         0.0000 
     34 H34         6.1756   58.3321   17.6154 H         1 UNK         0.0000 
     35 H35         4.9111   59.4362   15.9090 H         1 UNK         0.0000 
     36 H36         0.9214   58.9030   16.0642 H         1 UNK         0.0000 
     37 H37         1.9422   60.3141   15.8717 H         1 UNK         0.0000 
     38 H38         0.8690   59.8045   14.5529 H         1 UNK         0.0000 
     39 H39         4.1263   58.5945   13.3441 H         1 UNK         0.0000 
     40 H40         2.6970   59.5171   12.8984 H         1 UNK         0.0000 
     41 H41         3.8431   60.1787   14.0738 H         1 UNK         0.0000 
     42 H42         5.0189   55.0506   19.0864 H         1 UNK         0.0000 
     43 H43         4.7265   55.1016   21.0455 H         1 UNK         0.0000 
     44 H44         5.9066   52.9986   22.4075 H         1 UNK         0.0000 
     45 H45         7.4098   53.9587   23.8977 H         1 UNK         0.0000 
     46 H46         6.8202   55.5790   23.6441 H         1 UNK         0.0000 
     47 H47         6.1375   54.0354   25.9263 H         1 UNK         0.0000 
     48 H48         5.3543   55.5375   25.3483 H         1 UNK         0.0000 
     49 H49         3.6580   54.9002   23.0957 H         1 UNK         0.0000 
     50 H50         3.5944   53.1613   22.8086 H         1 UNK         0.0000 
     51 H51         3.1043   55.1987   25.5299 H         1 UNK         0.0000 
     52 H52         0.9903   53.6962   25.5721 H         1 UNK         0.0000 
     53 H53         1.6361   54.0253   23.9884 H         1 UNK         0.0000 
     54 H54         1.9429   52.4698   24.7604 H         1 UNK         0.0000 
     55 H55         4.7248   55.2966   27.5122 H         1 UNK         0.0000 
     56 H56         4.9902   54.7426   29.8677 H         1 UNK         0.0000 
     57 H57         3.6934   52.8768   30.8593 H         1 UNK         0.0000 
     58 H58         2.0969   51.5984   29.4657 H         1 UNK         0.0000 
     59 H59         1.8491   52.1105   27.1023 H         1 UNK         0.0000 
     60 H60         4.5590   52.7594   24.8952 H         1 UNK         0.0000 
@<TRIPOS>BOND
     1    1    2 1    
     2    1   30 1    
     3    1   31 1    
     4    1   32 1    
     5    2    7 ar   
     6    2    3 ar   
     7    3    4 ar   
     8    3   33 1    
     9    4    5 ar   
    10    4   11 1    
    11    5    6 ar   
    12    5   34 1    
    13    6    7 ar   
    14    6   35 1    
    15    7    8 1    
    16    8    9 1    
    17    8   10 1    
    18    9   36 1    
    19    9   37 1    
    20    9   38 1    
    21   10   39 1    
    22   10   40 1    
    23   10   41 1    
    24   11   12 am   BACKBONE|DICT|INTERRES
    25   11   42 1    
    26   12   13 2    
    27   12   14 1    
    28   14   15 2    
    29   14   16 am   BACKBONE|DICT|INTERRES
    30   16   17 1    
    31   16   43 1    
    32   17   21 1    
    33   17   18 1    
    34   17   44 1    
    35   18   19 1    
    36   18   45 1    
    37   18   46 1    
    38   19   20 1    
    39   19   47 1    
    40   19   48 1    
    41   20   21 1    
    42   20   22 1    
    43   20   60 1    
    44   21   49 1    
    45   21   50 1    
    46   22   23 1    
    47   22   24 1    
    48   22   51 1    
    49   23   52 1    
    50   23   53 1    
    51   23   54 1    
    52   24   29 ar   
    53   24   25 ar   
    54   25   26 ar   
    55   25   55 1    
    56   26   27 ar   
    57   26   56 1    
    58   27   28 ar   
    59   27   57 1    
    60   28   29 ar   
    61   28   58 1    
    62   29   59 1    
@<TRIPOS>SUBSTRUCTURE
     1 UNK         1 GROUP             0       ****    0 ROOT    
