ZINC63581953_2173
                    3D
 Schrodinger Suite 2024-2.
 51 54  0  0  1  0            999 V2000
   -1.1787   52.3127   26.1070 C   0  0  0  0  0  0
   -0.9464   51.0720   26.8371 C   0  0  0  0  0  0
   -0.2281   50.0516   26.3010 C   0  0  0  0  0  0
    0.3044   50.1615   25.0125 C   0  0  0  0  0  0
    1.0117   49.2968   24.3353 N   0  3  0  0  0  0
    1.3480   49.8345   23.0130 C   0  0  0  0  0  0
    0.6970   51.2003   23.0598 C   0  0  0  0  0  0
    0.1162   51.3289   24.2695 C   0  0  0  0  0  0
   -0.6614   52.4273   24.8668 C   0  0  0  0  0  0
    0.7460   52.1448   21.8692 C   0  0  0  0  0  0
    2.0698   52.1936   21.0827 C   0  0  0  0  0  0
    3.1766   52.8067   21.8299 N   0  0  0  0  0  0
    4.0325   53.7092   21.2918 C   0  0  0  0  0  0
    3.9071   54.0296   20.1103 O   0  0  0  0  0  0
    5.0619   54.3085   22.1633 C   0  0  0  0  0  0
    6.0769   55.0636   21.6299 C   0  0  0  0  0  0
    6.3931   55.4359   20.2300 C   0  0  0  0  0  0
    6.4952   56.7953   19.9108 C   0  0  0  0  0  0
    6.8165   57.1942   18.6129 C   0  0  0  0  0  0
    7.0281   56.2044   17.6523 C   0  0  0  0  0  0
    6.9345   54.8797   17.9280 N   0  0  0  0  0  0
    6.6186   54.5140   19.1967 C   0  0  0  0  0  0
    4.8928   54.0971   23.5248 N   0  0  0  0  0  0
    5.6270   54.4967   24.5939 C   0  0  0  0  0  0
    6.7041   55.0890   24.5563 O   0  0  0  0  0  0
    5.0277   54.1470   25.8606 C   0  0  0  0  0  0
    3.6772   53.9502   26.1722 C   0  0  0  0  0  0
    3.4588   53.6968   27.5320 C   0  0  0  0  0  0
    4.6286   53.7362   28.2763 C   0  0  0  0  0  0
    6.0150   54.0983   27.2996 S   0  0  0  0  0  0
   -1.7530   53.1124   26.5503 H   0  0  0  0  0  0
   -1.3620   50.9439   27.8291 H   0  0  0  0  0  0
   -0.0939   49.1488   26.8809 H   0  0  0  0  0  0
    0.9265   49.1709   22.2563 H   0  0  0  0  0  0
    2.4353   49.8566   22.9248 H   0  0  0  0  0  0
   -0.8383   53.3476   24.3291 H   0  0  0  0  0  0
    0.4563   53.1483   22.1797 H   0  0  0  0  0  0
   -0.0324   51.7965   21.1881 H   0  0  0  0  0  0
    1.8673   52.7264   20.1488 H   0  0  0  0  0  0
    2.3776   51.1917   20.7747 H   0  0  0  0  0  0
    3.3705   52.4199   22.7405 H   0  0  0  0  0  0
    6.8084   55.4910   22.2933 H   0  0  0  0  0  0
    6.3050   57.5376   20.6676 H   0  0  0  0  0  0
    6.8780   58.2412   18.3540 H   0  0  0  0  0  0
    7.2718   56.4657   16.6335 H   0  0  0  0  0  0
    6.5155   53.4526   19.3548 H   0  0  0  0  0  0
    4.0247   53.6549   23.7687 H   0  0  0  0  0  0
    2.8709   53.9861   25.4536 H   0  0  0  0  0  0
    2.4854   53.5010   27.9559 H   0  0  0  0  0  0
    4.7445   53.5831   29.3384 H   0  0  0  0  0  0
    1.3209   48.3819   24.6690 H   0  0  0  0  0  0
  1  9  2  0  0  0
  1  2  1  0  0  0
  1 31  1  0  0  0
  2  3  2  0  0  0
  2 32  1  0  0  0
  3  4  1  0  0  0
  3 33  1  0  0  0
  4  8  1  0  0  0
  4  5  2  0  0  0
  5  6  1  0  0  0
  5 51  1  0  0  0
  6  7  1  0  0  0
  6 34  1  0  0  0
  6 35  1  0  0  0
  7  8  2  0  0  0
  7 10  1  0  0  0
  8  9  1  0  0  0
  9 36  1  0  0  0
 10 11  1  0  0  0
 10 37  1  0  0  0
 10 38  1  0  0  0
 11 12  1  0  0  0
 11 39  1  0  0  0
 11 40  1  0  0  0
 12 13  1  0  0  0
 12 41  1  0  0  0
 13 14  2  0  0  0
 13 15  1  0  0  0
 15 16  2  0  0  0
 15 23  1  0  0  0
 16 17  1  0  0  0
 16 42  1  0  0  0
 17 22  2  0  0  0
 17 18  1  0  0  0
 18 19  2  0  0  0
 18 43  1  0  0  0
 19 20  1  0  0  0
 19 44  1  0  0  0
 20 21  2  0  0  0
 20 45  1  0  0  0
 21 22  1  0  0  0
 22 46  1  0  0  0
 23 24  1  0  0  0
 23 47  1  0  0  0
 24 25  2  0  0  0
 24 26  1  0  0  0
 26 30  1  0  0  0
 26 27  2  0  0  0
 27 28  1  0  0  0
 27 48  1  0  0  0
 28 29  2  0  0  0
 28 49  1  0  0  0
 29 30  1  0  0  0
 29 50  1  0  0  0
M  CHG  1   5   1
M  END
> <i_i_glide_confnum>
22

> <i_i_glide_lignum>
2174

> <i_i_glide_posenum>
337

> <i_i_glide_rotatable_bonds>
9

> <i_m_Source_File_Index>
4072

> <b_m_subgroup_collapsed>
0

> <r_i_docking_score>
-4.45381

> <r_i_glide_ecoul>
0.665739

> <r_i_glide_eff_state_penalty>
0

> <r_i_glide_einternal>
7.65588

> <r_i_glide_emodel>
-51.4661

> <r_i_glide_energy>
-41.3564

> <r_i_glide_erotb>
0.680365

> <r_i_glide_esite>
-0.0240412

> <r_i_glide_evdw>
-42.0221

> <r_i_glide_gscore>
-4.45381

> <r_i_glide_hbond>
0

> <r_i_glide_ligand_efficiency>
-0.14846

> <r_i_glide_ligand_efficiency_ln>
-1.01195

> <r_i_glide_ligand_efficiency_sa>
-0.461301

> <r_i_glide_lipo>
-2.03938

> <r_i_glide_metal>
0

> <r_i_glide_rewards>
-1.06951

> <s_i_glide_gridfile>
wee1_glide-grid

> <s_m_Source_File>
wee1_decoys_glide_SP.sdf

> <s_m_Source_Path>
/Users/zhangxujun/Desktop

> <s_m_entry_id>
4347

> <s_m_entry_name>
wee1_decoys_glide_SP.4072

> <s_m_subgroup_title>
wee1_decoys_glide_SP

> <s_m_subgroupid>
wee1_decoys_glide_SP


$$$$
