@<TRIPOS>MOLECULE
ZINC59461748_5622
54   58    1
SMALL
USER_CHARGES


@<TRIPOS>ATOM
      1 C1          7.0705   55.8180   20.9186 C.3       1 UNK         0.0000 
      2 C2          5.9045   54.8487   20.9277 C.ar      1 UNK         0.0000 
      3 C3          5.5038   54.2497   22.1224 C.ar      1 UNK         0.0000 
      4 C4          4.4447   53.3459   22.1231 C.ar      1 UNK         0.0000 
      5 C5          3.7726   53.0386   20.9375 C.ar      1 UNK         0.0000 
      6 C6          4.1826   53.6421   19.7442 C.ar      1 UNK         0.0000 
      7 C7          5.2409   54.5454   19.7383 C.ar      1 UNK         0.0000 
      8 C8          2.6276   52.1070   20.9515 C.2       1 UNK         0.0000 
      9 C9          2.6039   50.9094   21.5498 C.2       1 UNK         0.0000 
     10 S10         1.0038   50.1849   21.4224 S.3       1 UNK         0.0000 
     11 C11         0.3323   51.6861   20.6686 C.2       1 UNK         0.0000 
     12 N12         1.4210   52.4966   20.4275 N.pl3     1 UNK         0.0000 
     13 N13        -0.8973   51.9930   20.4321 N.2       1 UNK         0.0000 
     14 N14        -1.8794   51.2103   20.8292 N.2       1 UNK         0.0000 
     15 C15        -2.2395   51.1226   22.0731 C.2       1 UNK         0.0000 
     16 C16        -3.3002   50.2233   22.6113 C.2       1 UNK         0.0000 
     17 N17        -3.3812   50.3486   23.8647 N.2       1 UNK         0.0000 
     18 N18        -2.4483   51.2266   24.2715 N.am      1 UNK         0.0000 
     19 C19        -1.7762   51.8170   23.2612 C.2       1 UNK         0.0000 
     20 O20        -0.9442   52.7245   23.3311 O.2       1 UNK         0.0000 
     21 C21        -2.2171   51.3820   25.6453 C.2       1 UNK         0.0000 
     22 N22        -1.1401   51.9482   26.1356 N.2       1 UNK         0.0000 
     23 C23        -1.0430   51.8959   27.4532 C.2       1 UNK         0.0000 
     24 C24        -2.1523   51.2967   28.0618 C.2       1 UNK         0.0000 
     25 S25        -3.2939   50.7609   26.8631 S.3       1 UNK         0.0000 
     26 C26         0.1836   52.4411   28.1295 C.ar      1 UNK         0.0000 
     27 C27         1.2714   52.8979   27.3716 C.ar      1 UNK         0.0000 
     28 C28         2.4004   53.4191   27.9908 C.ar      1 UNK         0.0000 
     29 C29         2.4679   53.4925   29.3888 C.ar      1 UNK         0.0000 
     30 C30         1.3958   53.0193   30.1453 C.ar      1 UNK         0.0000 
     31 C31         0.2631   52.4974   29.5252 C.ar      1 UNK         0.0000 
     32 O32         3.5410   54.0153   30.0818 O.3       1 UNK         0.0000 
     33 C33         4.6716   54.4943   29.3549 C.3       1 UNK         0.0000 
     34 C34        -4.1406   49.2895   21.7621 C.3       1 UNK         0.0000 
     35 H35         7.3040   56.1830   21.9210 H         1 UNK         0.0000 
     36 H36         7.9608   55.3369   20.5064 H         1 UNK         0.0000 
     37 H37         6.8396   56.6858   20.2968 H         1 UNK         0.0000 
     38 H38         6.0101   54.4780   23.0485 H         1 UNK         0.0000 
     39 H39         4.1288   52.9040   23.0545 H         1 UNK         0.0000 
     40 H40         3.6815   53.4066   18.8162 H         1 UNK         0.0000 
     41 H41         5.5519   54.9975   18.8072 H         1 UNK         0.0000 
     42 H42         3.4107   50.4079   22.0628 H         1 UNK         0.0000 
     43 H43        -2.3243   51.0816   29.1072 H         1 UNK         0.0000 
     44 H44         1.2520   52.8605   26.2928 H         1 UNK         0.0000 
     45 H45         3.2108   53.7637   27.3687 H         1 UNK         0.0000 
     46 H46         1.4368   53.0595   31.2228 H         1 UNK         0.0000 
     47 H47        -0.5498   52.1427   30.1438 H         1 UNK         0.0000 
     48 H48         5.4064   54.8990   30.0494 H         1 UNK         0.0000 
     49 H49         4.3979   55.2965   28.6666 H         1 UNK         0.0000 
     50 H50         5.1528   53.6903   28.7961 H         1 UNK         0.0000 
     51 H51        -4.7280   49.8479   21.0332 H         1 UNK         0.0000 
     52 H52        -3.5111   48.5845   21.2182 H         1 UNK         0.0000 
     53 H53        -4.8330   48.7106   22.3745 H         1 UNK         0.0000 
     54 H54         1.2920   53.4425   20.0810 H         1 UNK         0.0000 
@<TRIPOS>BOND
     1    1    2 1    
     2    1   35 1    
     3    1   36 1    
     4    1   37 1    
     5    2    7 ar   
     6    2    3 ar   
     7    3    4 ar   
     8    3   38 1    
     9    4    5 ar   
    10    4   39 1    
    11    5    6 ar   
    12    5    8 1    
    13    6    7 ar   
    14    6   40 1    
    15    7   41 1    
    16    8   12 1    
    17    8    9 2    
    18    9   10 1    
    19    9   42 1    
    20   10   11 1    
    21   11   12 1    
    22   11   13 2    
    23   12   54 1    
    24   13   14 1    
    25   14   15 2    
    26   15   19 1    
    27   15   16 1    
    28   16   17 2    
    29   16   34 1    
    30   17   18 1    
    31   18   19 am   BACKBONE|DICT|INTERRES
    32   18   21 am   BACKBONE|DICT|INTERRES
    33   19   20 2    
    34   21   25 1    
    35   21   22 2    
    36   22   23 1    
    37   23   24 2    
    38   23   26 1    
    39   24   25 1    
    40   24   43 1    
    41   26   31 ar   
    42   26   27 ar   
    43   27   28 ar   
    44   27   44 1    
    45   28   29 ar   
    46   28   45 1    
    47   29   30 ar   
    48   29   32 1    
    49   30   31 ar   
    50   30   46 1    
    51   31   47 1    
    52   32   33 1    
    53   33   48 1    
    54   33   49 1    
    55   33   50 1    
    56   34   51 1    
    57   34   52 1    
    58   34   53 1    
@<TRIPOS>SUBSTRUCTURE
     1 UNK         1 GROUP             0       ****    0 ROOT    
