@<TRIPOS>MOLECULE
ZINC13565560_5481
63   65    1
SMALL
USER_CHARGES


@<TRIPOS>ATOM
      1 C1         -4.3410   50.3296   28.1633 C.3       1 UNK         0.0000 
      2 C2         -3.9962   50.9989   26.8474 C.ar      1 UNK         0.0000 
      3 C3         -4.5841   52.2158   26.4944 C.ar      1 UNK         0.0000 
      4 C4         -4.2324   52.8452   25.3003 C.ar      1 UNK         0.0000 
      5 C5         -3.2860   52.2614   24.4581 C.ar      1 UNK         0.0000 
      6 C6         -2.6865   51.0414   24.7987 C.ar      1 UNK         0.0000 
      7 C7         -3.0634   50.4083   25.9908 C.ar      1 UNK         0.0000 
      8 C8         -1.6316   50.4346   23.8672 C.3       1 UNK         0.0000 
      9 C9         -0.3518   49.8618   24.5586 C.3       1 UNK         0.0000 
     10 H10        -0.6570   48.9678   25.1077 H         1 UNK         0.0000 
     11 C11         0.2573   50.8308   25.5934 C.2       1 UNK         0.0000 
     12 O12         0.9018   51.8068   25.2142 O.2       1 UNK         0.0000 
     13 N13        -0.0047   50.5521   26.8817 N.am      1 UNK         0.0000 
     14 C14         0.4390   51.3327   28.0341 C.3       1 UNK         0.0000 
     15 C15         1.9672   51.2715   28.2678 C.3       1 UNK         0.0000 
     16 C16         2.3973   52.0609   29.5038 C.3       1 UNK         0.0000 
     17 N17         1.9534   53.4479   29.3320 N.pl3     1 UNK         0.0000 
     18 C18         0.4931   53.6542   29.2041 C.3       1 UNK         0.0000 
     19 C19        -0.1004   52.7926   28.0676 C.3       1 UNK         0.0000 
     20 S20         3.1357   54.7000   28.9337 S.o2      1 UNK         0.0000 
     21 O21         2.4211   55.9798   28.8829 O.2       1 UNK         0.0000 
     22 O22         4.2687   54.4966   29.8425 O.2       1 UNK         0.0000 
     23 C23         3.7765   54.3825   27.2727 C.ar      1 UNK         0.0000 
     24 C24         2.9185   54.0968   26.2128 C.ar      1 UNK         0.0000 
     25 C25         3.4084   53.9833   24.9139 C.ar      1 UNK         0.0000 
     26 C26         4.7750   54.1424   24.6607 C.ar      1 UNK         0.0000 
     27 C27         5.6440   54.3865   25.7309 C.ar      1 UNK         0.0000 
     28 C28         5.1495   54.4985   27.0290 C.ar      1 UNK         0.0000 
     29 C29         5.3025   54.1203   23.2195 C.3       1 UNK         0.0000 
     30 F30         4.3656   54.4945   22.3488 F         1 UNK         0.0000 
     31 F31         6.3407   54.9456   23.0818 F         1 UNK         0.0000 
     32 F32         5.7079   52.8984   22.8818 F         1 UNK         0.0000 
     33 N33         0.6767   49.3806   23.6190 N.am      1 UNK         0.0000 
     34 C34         1.2181   50.0367   22.5740 C.2       1 UNK         0.0000 
     35 O35         0.8861   51.1647   22.2128 O.2       1 UNK         0.0000 
     36 C36         2.3088   49.3035   21.8026 C.3       1 UNK         0.0000 
     37 H37        -3.4267   50.0539   28.6933 H         1 UNK         0.0000 
     38 H38        -4.9094   50.9868   28.8227 H         1 UNK         0.0000 
     39 H39        -4.9095   49.4166   27.9911 H         1 UNK         0.0000 
     40 H40        -5.3086   52.6778   27.1452 H         1 UNK         0.0000 
     41 H41        -4.6867   53.7886   25.0339 H         1 UNK         0.0000 
     42 H42        -3.0131   52.7685   23.5443 H         1 UNK         0.0000 
     43 H43        -2.6134   49.4679   26.2745 H         1 UNK         0.0000 
     44 H44        -2.1082   49.6579   23.2715 H         1 UNK         0.0000 
     45 H45        -1.3426   51.2128   23.1620 H         1 UNK         0.0000 
     46 H46        -0.5426   49.7203   27.1054 H         1 UNK         0.0000 
     47 H47        -0.0399   50.8268   28.8761 H         1 UNK         0.0000 
     48 H48         2.3000   50.2424   28.3568 H         1 UNK         0.0000 
     49 H49         2.4798   51.6948   27.4036 H         1 UNK         0.0000 
     50 H50         1.9609   51.6746   30.4225 H         1 UNK         0.0000 
     51 H51         3.4829   52.0418   29.6052 H         1 UNK         0.0000 
     52 H52         0.0325   53.4235   30.1670 H         1 UNK         0.0000 
     53 H53         0.3043   54.7095   29.0145 H         1 UNK         0.0000 
     54 H54         0.0869   53.2960   27.1250 H         1 UNK         0.0000 
     55 H55        -1.1846   52.7538   28.1344 H         1 UNK         0.0000 
     56 H56         1.8608   54.0131   26.3763 H         1 UNK         0.0000 
     57 H57         2.7156   53.7879   24.1061 H         1 UNK         0.0000 
     58 H58         6.7020   54.5089   25.5580 H         1 UNK         0.0000 
     59 H59         5.8316   54.7201   27.8414 H         1 UNK         0.0000 
     60 H60         1.0724   48.4832   23.8637 H         1 UNK         0.0000 
     61 H61         1.8744   48.5414   21.1561 H         1 UNK         0.0000 
     62 H62         2.8664   50.0027   21.1776 H         1 UNK         0.0000 
     63 H63         3.0156   48.8283   22.4822 H         1 UNK         0.0000 
@<TRIPOS>BOND
     1    1    2 1    
     2    1   37 1    
     3    1   38 1    
     4    1   39 1    
     5    2    7 ar   
     6    2    3 ar   
     7    3    4 ar   
     8    3   40 1    
     9    4    5 ar   
    10    4   41 1    
    11    5    6 ar   
    12    5   42 1    
    13    6    7 ar   
    14    6    8 1    
    15    7   43 1    
    16    8    9 1    
    17    8   44 1    
    18    8   45 1    
    19    9   10 1    
    20    9   11 1    
    21    9   33 1    
    22   11   12 2    
    23   11   13 am   BACKBONE|DICT|INTERRES
    24   13   14 1    
    25   13   46 1    
    26   14   19 1    
    27   14   15 1    
    28   14   47 1    
    29   15   16 1    
    30   15   48 1    
    31   15   49 1    
    32   16   17 1    
    33   16   50 1    
    34   16   51 1    
    35   17   18 1    
    36   17   20 1    
    37   18   19 1    
    38   18   52 1    
    39   18   53 1    
    40   19   54 1    
    41   19   55 1    
    42   20   21 2    
    43   20   22 2    
    44   20   23 1    
    45   23   28 ar   
    46   23   24 ar   
    47   24   25 ar   
    48   24   56 1    
    49   25   26 ar   
    50   25   57 1    
    51   26   27 ar   
    52   26   29 1    
    53   27   28 ar   
    54   27   58 1    
    55   28   59 1    
    56   29   30 1    
    57   29   31 1    
    58   29   32 1    
    59   33   34 am   BACKBONE|DICT|INTERRES
    60   33   60 1    
    61   34   35 2    
    62   34   36 1    
    63   36   61 1    
    64   36   62 1    
    65   36   63 1    
@<TRIPOS>SUBSTRUCTURE
     1 UNK         1 GROUP             0       ****    0 ROOT    
