@<TRIPOS>MOLECULE
ZINC14276161_3524
47   50    1
SMALL
USER_CHARGES


@<TRIPOS>ATOM
      1 C1          6.1126   54.1584   15.6207 C.ar      1 UNK         0.0000 
      2 C2          6.8697   55.3325   15.6884 C.ar      1 UNK         0.0000 
      3 C3          7.1466   55.9502   16.9111 C.ar      1 UNK         0.0000 
      4 C4          6.6226   55.3422   18.0589 C.ar      1 UNK         0.0000 
      5 C5          5.8446   54.1617   18.0150 C.ar      1 UNK         0.0000 
      6 C6          5.5958   53.5582   16.7720 C.ar      1 UNK         0.0000 
      7 C7          5.5157   53.8847   19.3761 C.2       1 UNK         0.0000 
      8 C8          6.1082   54.8958   20.1410 C.2       1 UNK         0.0000 
      9 O9          6.7956   55.7714   19.3451 O.3       1 UNK         0.0000 
     10 C10         6.2266   55.0520   21.5674 C.2       1 UNK         0.0000 
     11 O11         7.1442   55.6966   22.0733 O.2       1 UNK         0.0000 
     12 N12         5.2466   54.4375   22.2552 N.am      1 UNK         0.0000 
     13 C13         5.0861   54.4016   23.6459 C.ar      1 UNK         0.0000 
     14 C14         3.7785   54.4963   24.1147 C.ar      1 UNK         0.0000 
     15 C15         3.5297   54.3981   25.4733 C.ar      1 UNK         0.0000 
     16 C16         4.5689   54.1247   26.3683 C.ar      1 UNK         0.0000 
     17 C17         5.8887   54.0971   25.9072 C.ar      1 UNK         0.0000 
     18 C18         6.1504   54.2352   24.5434 C.ar      1 UNK         0.0000 
     19 N19         4.3251   53.8474   27.7299 N.pl3     1 UNK         0.0000 
     20 C20         3.3168   53.1194   28.3070 C.2       1 UNK         0.0000 
     21 S21         3.4238   52.8843   29.9571 S.2       1 UNK         0.0000 
     22 N22         2.3506   52.6346   27.4578 N.am      1 UNK         0.0000 
     23 C23         1.1941   51.9511   27.6346 C.2       1 UNK         0.0000 
     24 O24         0.6681   51.7084   28.7239 O.2       1 UNK         0.0000 
     25 C25         0.5690   51.4393   26.3528 C.ar      1 UNK         0.0000 
     26 C26        -0.1498   50.2390   26.3642 C.ar      1 UNK         0.0000 
     27 C27        -0.6943   49.7097   25.1937 C.ar      1 UNK         0.0000 
     28 C28        -0.5229   50.3746   23.9817 C.ar      1 UNK         0.0000 
     29 C29         0.1733   51.5797   23.9508 C.ar      1 UNK         0.0000 
     30 C30         0.7049   52.1113   25.1254 C.ar      1 UNK         0.0000 
     31 Br31        0.4243   52.4960   22.3025 Br        1 UNK         0.0000 
     32 H32         5.9340   53.7018   14.6566 H         1 UNK         0.0000 
     33 H33         7.2547   55.7645   14.7754 H         1 UNK         0.0000 
     34 H34         7.7360   56.8532   16.9694 H         1 UNK         0.0000 
     35 H35         5.0314   52.6366   16.7147 H         1 UNK         0.0000 
     36 H36         4.9480   53.0403   19.7401 H         1 UNK         0.0000 
     37 H37         4.5008   54.0300   21.7102 H         1 UNK         0.0000 
     38 H38         2.9527   54.6507   23.4344 H         1 UNK         0.0000 
     39 H39         2.5178   54.4972   25.8233 H         1 UNK         0.0000 
     40 H40         6.7070   53.9078   26.5884 H         1 UNK         0.0000 
     41 H41         7.1667   54.1649   24.1837 H         1 UNK         0.0000 
     42 H42         5.0622   54.1399   28.3558 H         1 UNK         0.0000 
     43 H43         2.6051   52.7240   26.4861 H         1 UNK         0.0000 
     44 H44        -0.2844   49.6967   27.2816 H         1 UNK         0.0000 
     45 H45        -1.2353   48.7764   25.2368 H         1 UNK         0.0000 
     46 H46        -0.9291   49.9591   23.0706 H         1 UNK         0.0000 
     47 H47         1.2203   53.0507   25.0536 H         1 UNK         0.0000 
@<TRIPOS>BOND
     1    1    6 ar   
     2    1    2 ar   
     3    1   32 1    
     4    2    3 ar   
     5    2   33 1    
     6    3    4 ar   
     7    3   34 1    
     8    4    9 1    
     9    4    5 ar   
    10    5    6 ar   
    11    5    7 1    
    12    6   35 1    
    13    7    8 2    
    14    7   36 1    
    15    8    9 1    
    16    8   10 1    
    17   10   11 2    
    18   10   12 am   BACKBONE|DICT|INTERRES
    19   12   13 1    
    20   12   37 1    
    21   13   18 ar   
    22   13   14 ar   
    23   14   15 ar   
    24   14   38 1    
    25   15   16 ar   
    26   15   39 1    
    27   16   17 ar   
    28   16   19 1    
    29   17   18 ar   
    30   17   40 1    
    31   18   41 1    
    32   19   20 1    
    33   19   42 1    
    34   20   21 2    
    35   20   22 am   BACKBONE|DICT|INTERRES
    36   22   23 am   BACKBONE|DICT|INTERRES
    37   22   43 1    
    38   23   24 2    
    39   23   25 1    
    40   25   30 ar   
    41   25   26 ar   
    42   26   27 ar   
    43   26   44 1    
    44   27   28 ar   
    45   27   45 1    
    46   28   29 ar   
    47   28   46 1    
    48   29   30 ar   
    49   29   31 1    
    50   30   47 1    
@<TRIPOS>SUBSTRUCTURE
     1 UNK         1 GROUP             0       ****    0 ROOT    
