@<TRIPOS>MOLECULE
ZINC35701846_4630
59   62    1
SMALL
USER_CHARGES


@<TRIPOS>ATOM
      1 C1         -1.1495   51.6763   27.3110 C.3       1 UNK         0.0000 
      2 C2         -0.2023   52.2680   26.2721 C.2       1 UNK         0.0000 
      3 C3         -0.4633   52.4967   24.9444 C.2       1 UNK         0.0000 
      4 C4          0.6855   52.9532   23.9979 C.3       1 UNK         0.0000 
      5 H5          0.3665   53.8523   23.4691 H         1 UNK         0.0000 
      6 N6          1.8803   53.3614   24.7901 N.pl3     1 UNK         0.0000 
      7 C7          3.0372   53.9142   24.2583 C.2       1 UNK         0.0000 
      8 C8          3.9706   54.1405   25.1991 C.2       1 UNK         0.0000 
      9 S9          3.4506   53.6967   26.8236 S.3       1 UNK         0.0000 
     10 C10         1.9141   53.1000   26.1568 C.2       1 UNK         0.0000 
     11 N11         1.0048   52.5372   26.8553 N.2       1 UNK         0.0000 
     12 C12         3.2463   54.1500   22.8380 C.2       1 UNK         0.0000 
     13 C13         4.3523   53.8885   22.1156 C.2       1 UNK         0.0000 
     14 O14         5.4966   53.4259   22.4818 O.co2     1 UNK         0.0000 
     15 N15         4.3042   54.0968   20.7524 N.pl3     1 UNK         0.0000 
     16 C16         5.2901   53.8902   19.6939 C.3       1 UNK         0.0000 
     17 C17         6.2080   55.0736   19.4930 C.2       1 UNK         0.0000 
     18 C18         6.0634   56.3130   18.8851 C.2       1 UNK         0.0000 
     19 C19         7.2947   56.9621   18.9835 C.2       1 UNK         0.0000 
     20 C20         8.1342   56.0967   19.6661 C.2       1 UNK         0.0000 
     21 O21         7.4701   54.9584   19.9820 O.3       1 UNK         0.0000 
     22 C22         1.0256   51.8910   22.9450 C.ar      1 UNK         0.0000 
     23 C23         1.3853   50.6005   23.3412 C.ar      1 UNK         0.0000 
     24 C24         1.6483   49.6261   22.3864 C.ar      1 UNK         0.0000 
     25 C25         1.5622   49.9337   21.0253 C.ar      1 UNK         0.0000 
     26 C26         1.2273   51.2314   20.6300 C.ar      1 UNK         0.0000 
     27 C27         0.9551   52.2039   21.5853 C.ar      1 UNK         0.0000 
     28 C28         1.8245   48.8734   19.9610 C.3       1 UNK         0.0000 
     29 F29         0.6840   48.5879   19.3317 F         1 UNK         0.0000 
     30 F30         2.7036   49.3316   19.0754 F         1 UNK         0.0000 
     31 F31         2.3042   47.7438   20.4794 F         1 UNK         0.0000 
     32 C32        -1.8150   52.4961   24.3337 C.2       1 UNK         0.0000 
     33 O33        -1.9925   52.4880   23.1122 O.2       1 UNK         0.0000 
     34 O34        -2.8322   52.6293   25.2233 O.3       1 UNK         0.0000 
     35 C35        -4.1842   52.8261   24.8150 C.3       1 UNK         0.0000 
     36 C36        -5.0797   52.3513   25.9669 C.3       1 UNK         0.0000 
     37 C37        -4.4290   54.3108   24.4816 C.3       1 UNK         0.0000 
     38 H38        -1.9057   51.0353   26.8592 H         1 UNK         0.0000 
     39 H39        -0.6234   51.0461   28.0306 H         1 UNK         0.0000 
     40 H40        -1.6483   52.4752   27.8532 H         1 UNK         0.0000 
     41 H41         4.9606   54.5345   25.0242 H         1 UNK         0.0000 
     42 H42         2.4011   54.5607   22.3064 H         1 UNK         0.0000 
     43 H43         3.4718   54.5575   20.4129 H         1 UNK         0.0000 
     44 H44         4.7585   53.6616   18.7702 H         1 UNK         0.0000 
     45 H45         5.8676   52.9942   19.9229 H         1 UNK         0.0000 
     46 H46         5.1709   56.6914   18.4091 H         1 UNK         0.0000 
     47 H47         7.5429   57.9415   18.5987 H         1 UNK         0.0000 
     48 H48         9.1675   56.1486   19.9788 H         1 UNK         0.0000 
     49 H49         1.4455   50.3470   24.3896 H         1 UNK         0.0000 
     50 H50         1.9078   48.6319   22.7161 H         1 UNK         0.0000 
     51 H51         1.1747   51.4863   19.5809 H         1 UNK         0.0000 
     52 H52         0.7037   53.2037   21.2635 H         1 UNK         0.0000 
     53 H53        -4.4023   52.2115   23.9390 H         1 UNK         0.0000 
     54 H54        -6.1350   52.4645   25.7173 H         1 UNK         0.0000 
     55 H55        -4.9056   51.2970   26.1868 H         1 UNK         0.0000 
     56 H56        -4.8885   52.9155   26.8810 H         1 UNK         0.0000 
     57 H57        -5.4546   54.4762   24.1498 H         1 UNK         0.0000 
     58 H58        -4.2484   54.9447   25.3501 H         1 UNK         0.0000 
     59 H59        -3.7706   54.6523   23.6827 H         1 UNK         0.0000 
@<TRIPOS>BOND
     1    1    2 1    
     2    1   38 1    
     3    1   39 1    
     4    1   40 1    
     5    2   11 1    
     6    2    3 2    
     7    3    4 1    
     8    3   32 1    
     9    4    5 1    
    10    4    6 1    
    11    4   22 1    
    12    6   10 1    
    13    6    7 1    
    14    7    8 2    
    15    7   12 1    
    16    8    9 1    
    17    8   41 1    
    18    9   10 1    
    19   10   11 2    
    20   12   13 2    
    21   12   42 1    
    22   13   14 1    
    23   13   15 1    
    24   15   16 1    
    25   15   43 1    
    26   16   17 1    
    27   16   44 1    
    28   16   45 1    
    29   17   21 1    
    30   17   18 2    
    31   18   19 1    
    32   18   46 1    
    33   19   20 2    
    34   19   47 1    
    35   20   21 1    
    36   20   48 1    
    37   22   27 ar   
    38   22   23 ar   
    39   23   24 ar   
    40   23   49 1    
    41   24   25 ar   
    42   24   50 1    
    43   25   26 ar   
    44   25   28 1    
    45   26   27 ar   
    46   26   51 1    
    47   27   52 1    
    48   28   29 1    
    49   28   30 1    
    50   28   31 1    
    51   32   33 2    
    52   32   34 1    
    53   34   35 1    
    54   35   36 1    
    55   35   37 1    
    56   35   53 1    
    57   36   54 1    
    58   36   55 1    
    59   36   56 1    
    60   37   57 1    
    61   37   58 1    
    62   37   59 1    
@<TRIPOS>SUBSTRUCTURE
     1 UNK         1 GROUP             0       ****    0 ROOT    
