ZINC58908331_2271
                    3D
 Schrodinger Suite 2024-2.
 57 60  0  0  1  0            999 V2000
    0.0235   51.9071   26.6336 C   0  0  0  0  0  0
    1.1650   52.4969   26.0258 O   0  0  0  0  0  0
    1.1334   52.8970   24.7365 C   0  0  0  0  0  0
    0.1524   52.7846   23.9944 O   0  0  0  0  0  0
    2.4374   53.4212   24.2782 C   0  0  0  0  0  0
    3.4213   54.0956   25.0717 C   0  0  0  0  0  0
    4.5773   54.4432   24.3558 C   0  0  0  0  0  0
    4.4592   53.9518   22.7044 S   0  0  0  0  0  0
    2.8818   53.2777   22.9528 C   0  0  0  0  0  0
    2.1773   52.6180   21.9441 N   0  0  0  0  0  0
    2.5669   52.2811   20.6947 C   0  0  0  0  0  0
    3.6908   52.4809   20.2328 O   0  0  0  0  0  0
    1.5223   51.5497   19.8773 C   0  0  0  0  0  0
    0.1466   51.6964   20.1284 C   0  0  0  0  0  0
   -0.7940   50.9957   19.3734 C   0  0  0  0  0  0
   -0.3804   50.1350   18.3579 C   0  0  0  0  0  0
    0.9856   49.9754   18.0893 C   0  0  0  0  0  0
    1.9219   50.6950   18.8388 C   0  0  0  0  0  0
    1.5044   49.1389   17.0893 N   0  0  0  0  0  0
    0.9569   48.0660   16.4840 C   0  0  0  0  0  0
   -0.1703   47.6281   16.7258 O   0  0  0  0  0  0
    1.8958   47.3360   15.4854 C   0  0  1  0  0  0
    2.5223   48.0976   15.0167 H   0  0  0  0  0  0
    2.7730   46.2862   16.1804 C   0  0  0  0  0  0
    1.9862   44.9909   16.0963 C   0  0  0  0  0  0
    0.9335   45.2378   15.0110 C   0  0  0  0  0  0
    1.1851   46.5559   14.5183 O   0  0  0  0  0  0
    5.8094   55.1318   24.9074 C   0  0  0  0  0  0
    6.5120   54.3151   26.0083 C   0  0  0  0  0  0
    5.8077   54.2973   27.3823 C   0  0  0  0  0  0
    4.3720   53.7302   27.4329 C   0  0  0  0  0  0
    3.3359   54.4583   26.5500 C   0  0  0  0  0  0
    0.2510   51.6348   27.6645 H   0  0  0  0  0  0
   -0.8192   52.6000   26.6425 H   0  0  0  0  0  0
   -0.2791   51.0012   26.1054 H   0  0  0  0  0  0
    1.2631   52.2945   22.2253 H   0  0  0  0  0  0
   -0.2116   52.3572   20.9048 H   0  0  0  0  0  0
   -1.8477   51.1176   19.5754 H   0  0  0  0  0  0
   -1.1292   49.6111   17.7836 H   0  0  0  0  0  0
    2.9773   50.5715   18.6214 H   0  0  0  0  0  0
    2.4953   49.2940   16.8816 H   0  0  0  0  0  0
    3.0438   46.5575   17.2032 H   0  0  0  0  0  0
    3.7236   46.2053   15.6529 H   0  0  0  0  0  0
    1.5002   44.7717   17.0481 H   0  0  0  0  0  0
    2.6339   44.1476   15.8527 H   0  0  0  0  0  0
   -0.0756   45.1861   15.4230 H   0  0  0  0  0  0
    1.0057   44.5147   14.1975 H   0  0  0  0  0  0
    6.5180   55.3504   24.1067 H   0  0  0  0  0  0
    5.5365   56.1001   25.3253 H   0  0  0  0  0  0
    6.6778   53.2967   25.6606 H   0  0  0  0  0  0
    7.5044   54.7321   26.1591 H   0  0  0  0  0  0
    6.4260   53.7229   28.0741 H   0  0  0  0  0  0
    5.8003   55.3085   27.7880 H   0  0  0  0  0  0
    4.3844   52.6672   27.1910 H   0  0  0  0  0  0
    4.0342   53.7826   28.4689 H   0  0  0  0  0  0
    3.5042   55.5268   26.6427 H   0  0  0  0  0  0
    2.3406   54.3346   26.9695 H   0  0  0  0  0  0
  1  2  1  0  0  0
  1 33  1  0  0  0
  1 34  1  0  0  0
  1 35  1  0  0  0
  2  3  1  0  0  0
  3  4  2  0  0  0
  3  5  1  0  0  0
  5  9  2  0  0  0
  5  6  1  0  0  0
  6 32  1  0  0  0
  6  7  2  0  0  0
  7  8  1  0  0  0
  7 28  1  0  0  0
  8  9  1  0  0  0
  9 10  1  0  0  0
 10 11  1  0  0  0
 10 36  1  0  0  0
 11 12  2  0  0  0
 11 13  1  0  0  0
 13 18  2  0  0  0
 13 14  1  0  0  0
 14 15  2  0  0  0
 14 37  1  0  0  0
 15 16  1  0  0  0
 15 38  1  0  0  0
 16 17  2  0  0  0
 16 39  1  0  0  0
 17 18  1  0  0  0
 17 19  1  0  0  0
 18 40  1  0  0  0
 19 20  1  0  0  0
 19 41  1  0  0  0
 20 21  2  0  0  0
 20 22  1  0  0  0
 22 23  1  0  0  0
 22 27  1  0  0  0
 22 24  1  0  0  0
 24 25  1  0  0  0
 24 42  1  0  0  0
 24 43  1  0  0  0
 25 26  1  0  0  0
 25 44  1  0  0  0
 25 45  1  0  0  0
 26 27  1  0  0  0
 26 46  1  0  0  0
 26 47  1  0  0  0
 28 29  1  0  0  0
 28 48  1  0  0  0
 28 49  1  0  0  0
 29 30  1  0  0  0
 29 50  1  0  0  0
 29 51  1  0  0  0
 30 31  1  0  0  0
 30 52  1  0  0  0
 30 53  1  0  0  0
 31 32  1  0  0  0
 31 54  1  0  0  0
 31 55  1  0  0  0
 32 56  1  0  0  0
 32 57  1  0  0  0
M  END
> <i_i_glide_confnum>
487

> <i_i_glide_lignum>
2272

> <i_i_glide_posenum>
83

> <i_i_glide_rotatable_bonds>
8

> <i_m_Source_File_Index>
5807

> <b_m_subgroup_collapsed>
0

> <r_i_docking_score>
-5.32136

> <r_i_glide_ecoul>
-4.93483

> <r_i_glide_eff_state_penalty>
0

> <r_i_glide_einternal>
3.81811

> <r_i_glide_emodel>
-55.5205

> <r_i_glide_energy>
-40.9762

> <r_i_glide_erotb>
0.714331

> <r_i_glide_esite>
-0.164219

> <r_i_glide_evdw>
-36.0414

> <r_i_glide_gscore>
-5.32136

> <r_i_glide_hbond>
-0.16

> <r_i_glide_ligand_efficiency>
-0.171657

> <r_i_glide_ligand_efficiency_ln>
-1.20013

> <r_i_glide_ligand_efficiency_sa>
-0.53924

> <r_i_glide_lipo>
-2.42655

> <r_i_glide_metal>
0

> <r_i_glide_rewards>
-0.742626

> <s_i_glide_gridfile>
wee1_glide-grid

> <s_m_Source_File>
wee1_decoys_glide_SP.sdf

> <s_m_Source_Path>
/Users/zhangxujun/Desktop

> <s_m_entry_id>
6082

> <s_m_entry_name>
wee1_decoys_glide_SP.5807

> <s_m_subgroup_title>
wee1_decoys_glide_SP

> <s_m_subgroupid>
wee1_decoys_glide_SP


$$$$
