@<TRIPOS>MOLECULE
ZINC08758116_2895
76   81    1
SMALL
USER_CHARGES


@<TRIPOS>ATOM
      1 C1         -1.3960   50.7053   25.5822 C.ar      1 UNK         0.0000 
      2 C2         -1.3982   51.7712   24.6859 C.ar      1 UNK         0.0000 
      3 C3         -0.3345   52.6701   24.6828 C.ar      1 UNK         0.0000 
      4 C4          0.7408   52.5072   25.5669 C.ar      1 UNK         0.0000 
      5 C5          0.7044   51.4511   26.4873 C.ar      1 UNK         0.0000 
      6 C6         -0.3483   50.5428   26.4816 C.ar      1 UNK         0.0000 
      7 C7          1.9037   53.5247   25.5580 C.3       1 UNK         0.0000 
      8 C8          2.5379   53.7582   26.9521 C.ar      1 UNK         0.0000 
      9 C9          3.8281   53.3060   27.2666 C.ar      1 UNK         0.0000 
     10 C10         4.3952   53.5705   28.5081 C.ar      1 UNK         0.0000 
     11 C11         3.6730   54.2893   29.4531 C.ar      1 UNK         0.0000 
     12 C12         2.3843   54.7372   29.1691 C.ar      1 UNK         0.0000 
     13 C13         1.8203   54.4688   27.9240 C.ar      1 UNK         0.0000 
     14 C14         3.8985   54.4950   24.2461 C.3       1 UNK         0.0000 
     15 C15         5.0191   54.0841   23.2790 C.3       1 UNK         0.0000 
     16 N16         4.4697   53.8143   21.9407 N.pl3     1 UNK         0.0000 
     17 C17         3.4416   52.7590   21.9658 C.3       1 UNK         0.0000 
     18 C18         2.3253   52.9989   23.0167 C.3       1 UNK         0.0000 
     19 C19         4.8985   54.4933   20.7486 C.2       1 UNK         0.0000 
     20 N20         5.9018   55.2889   20.8280 N.am      1 UNK         0.0000 
     21 C21         6.4129   56.0364   19.7705 C.2       1 UNK         0.0000 
     22 O22         7.2798   56.8967   19.8485 O.2       1 UNK         0.0000 
     23 C23         5.8431   55.7099   18.3682 C.3       1 UNK         0.0000 
     24 C24         4.3702   55.2145   18.4387 C.3       1 UNK         0.0000 
     25 H25         3.6827   56.0488   18.5866 H         1 UNK         0.0000 
     26 N26         4.1953   54.2506   19.5304 N.pl3     1 UNK         0.0000 
     27 C27         3.9664   54.6124   17.0669 C.2       1 UNK         0.0000 
     28 O28         3.9787   55.3605   16.0874 O.2       1 UNK         0.0000 
     29 N29         3.6054   53.3118   16.9932 N.am      1 UNK         0.0000 
     30 C30         3.3145   52.5832   15.8319 C.ar      1 UNK         0.0000 
     31 C31         2.3096   51.6164   15.9078 C.ar      1 UNK         0.0000 
     32 C32         2.0787   50.7723   14.8238 C.ar      1 UNK         0.0000 
     33 C33         2.8605   50.8867   13.6749 C.ar      1 UNK         0.0000 
     34 C34         3.8243   51.8942   13.5759 C.ar      1 UNK         0.0000 
     35 C35         4.0601   52.7365   14.6558 C.ar      1 UNK         0.0000 
     36 O36         2.6925   49.9764   12.6552 O.3       1 UNK         0.0000 
     37 C37         3.7678   49.2185   12.2298 C.ar      1 UNK         0.0000 
     38 C38         3.7765   48.7954   10.9004 C.ar      1 UNK         0.0000 
     39 C39         4.8378   48.0382   10.4107 C.ar      1 UNK         0.0000 
     40 C40         5.8896   47.6967   11.2594 C.ar      1 UNK         0.0000 
     41 C41         5.8856   48.0972   12.5924 C.ar      1 UNK         0.0000 
     42 C42         4.8204   48.8473   13.0805 C.ar      1 UNK         0.0000 
     43 H43        -2.2141   49.9988   25.5918 H         1 UNK         0.0000 
     44 H44        -2.2236   51.8990   24.0005 H         1 UNK         0.0000 
     45 H45        -0.3531   53.4995   23.9910 H         1 UNK         0.0000 
     46 H46         1.5043   51.3108   27.2015 H         1 UNK         0.0000 
     47 H47        -0.3493   49.7141   27.1739 H         1 UNK         0.0000 
     48 H48         1.4911   54.4885   25.2530 H         1 UNK         0.0000 
     49 H49         4.4218   52.7671   26.5465 H         1 UNK         0.0000 
     50 H50         5.3960   53.2281   28.7318 H         1 UNK         0.0000 
     51 H51         4.1269   54.4965   30.4108 H         1 UNK         0.0000 
     52 H52         1.8240   55.2938   29.9075 H         1 UNK         0.0000 
     53 H53         0.8224   54.8222   27.7118 H         1 UNK         0.0000 
     54 H54         3.2780   55.2967   23.8613 H         1 UNK         0.0000 
     55 H55         4.3208   54.7832   25.2063 H         1 UNK         0.0000 
     56 H56         5.6483   53.2511   23.5903 H         1 UNK         0.0000 
     57 H57         5.7110   54.9253   23.2419 H         1 UNK         0.0000 
     58 H58         2.9466   52.6599   20.9990 H         1 UNK         0.0000 
     59 H59         3.9842   51.8209   22.0818 H         1 UNK         0.0000 
     60 H60         1.6767   53.8380   22.7578 H         1 UNK         0.0000 
     61 H61         1.7504   52.0780   23.1281 H         1 UNK         0.0000 
     62 H62         6.5073   54.9586   17.9394 H         1 UNK         0.0000 
     63 H63         5.9228   56.6039   17.7448 H         1 UNK         0.0000 
     64 H64         3.2245   54.0139   19.6757 H         1 UNK         0.0000 
     65 H65         3.5557   52.7867   17.8529 H         1 UNK         0.0000 
     66 H66         1.7395   51.4826   16.8148 H         1 UNK         0.0000 
     67 H67         1.3377   49.9910   14.8946 H         1 UNK         0.0000 
     68 H68         4.4201   51.9870   12.6798 H         1 UNK         0.0000 
     69 H69         4.8482   53.4718   14.5877 H         1 UNK         0.0000 
     70 H70         2.9599   49.0643   10.2459 H         1 UNK         0.0000 
     71 H71         4.8326   47.7122    9.3819 H         1 UNK         0.0000 
     72 H72         6.7055   47.0910   10.8965 H         1 UNK         0.0000 
     73 H73         6.6966   47.8198   13.2512 H         1 UNK         0.0000 
     74 H74         4.8165   49.1460   14.1203 H         1 UNK         0.0000 
     75 N75         2.9436   53.2966   24.4122 N.4       1 UNK         0.0000 
     76 H76         3.4957   52.5032   24.7058 H         1 UNK         0.0000 
@<TRIPOS>BOND
     1    1    6 ar   
     2    1    2 ar   
     3    1   43 1    
     4    2    3 ar   
     5    2   44 1    
     6    3    4 ar   
     7    3   45 1    
     8    4    5 ar   
     9    4    7 1    
    10    5    6 ar   
    11    5   46 1    
    12    6   47 1    
    13    7    8 1    
    14    7   48 1    
    15    7   75 1    
    16    8   13 ar   
    17    8    9 ar   
    18    9   10 ar   
    19    9   49 1    
    20   10   11 ar   
    21   10   50 1    
    22   11   12 ar   
    23   11   51 1    
    24   12   13 ar   
    25   12   52 1    
    26   13   53 1    
    27   14   15 1    
    28   14   54 1    
    29   14   55 1    
    30   14   75 1    
    31   15   16 1    
    32   15   56 1    
    33   15   57 1    
    34   16   17 1    
    35   16   19 1    
    36   17   18 1    
    37   17   58 1    
    38   17   59 1    
    39   18   60 1    
    40   18   61 1    
    41   18   75 1    
    42   19   26 1    
    43   19   20 2    
    44   20   21 am   BACKBONE|DICT|INTERRES
    45   21   22 2    
    46   21   23 1    
    47   23   24 1    
    48   23   62 1    
    49   23   63 1    
    50   24   25 1    
    51   24   26 1    
    52   24   27 1    
    53   26   64 1    
    54   27   28 2    
    55   27   29 am   BACKBONE|DICT|INTERRES
    56   29   30 1    
    57   29   65 1    
    58   30   35 ar   
    59   30   31 ar   
    60   31   32 ar   
    61   31   66 1    
    62   32   33 ar   
    63   32   67 1    
    64   33   34 ar   
    65   33   36 1    
    66   34   35 ar   
    67   34   68 1    
    68   35   69 1    
    69   36   37 1    
    70   37   42 ar   
    71   37   38 ar   
    72   38   39 ar   
    73   38   70 1    
    74   39   40 ar   
    75   39   71 1    
    76   40   41 ar   
    77   40   72 1    
    78   41   42 ar   
    79   41   73 1    
    80   42   74 1    
    81   75   76 1    
@<TRIPOS>SUBSTRUCTURE
     1 UNK         1 GROUP             0       ****    0 ROOT    
