@<TRIPOS>MOLECULE
ZINC40814981_2266
51   54    1
SMALL
USER_CHARGES


@<TRIPOS>ATOM
      1 C1          2.0467   53.7086   24.5467 C.3       1 UNK         0.0000 
      2 C2          2.9083   53.6851   25.8017 C.2       1 UNK         0.0000 
      3 C3          2.5156   53.3194   27.1132 C.2       1 UNK         0.0000 
      4 C4          3.6053   53.5566   27.9402 C.2       1 UNK         0.0000 
      5 O5          4.6476   54.0366   27.2284 O.3       1 UNK         0.0000 
      6 C6          4.2594   54.0684   25.9265 C.2       1 UNK         0.0000 
      7 C7          5.2170   54.5643   24.9713 C.2       1 UNK         0.0000 
      8 O8          6.1178   55.3333   25.3123 O.2       1 UNK         0.0000 
      9 N9          4.9989   54.0991   23.7224 N.am      1 UNK         0.0000 
     10 C10         5.5708   54.4961   22.4997 C.ar      1 UNK         0.0000 
     11 C11         6.7209   55.2929   22.3896 C.ar      1 UNK         0.0000 
     12 C12         7.1934   55.6846   21.1369 C.ar      1 UNK         0.0000 
     13 C13         6.5188   55.2941   19.9818 C.ar      1 UNK         0.0000 
     14 C14         5.3799   54.4951   20.0799 C.ar      1 UNK         0.0000 
     15 C15         4.9081   54.0948   21.3309 C.ar      1 UNK         0.0000 
     16 F16         3.7972   53.3224   21.4016 F         1 UNK         0.0000 
     17 C17         3.7193   53.3065   29.4265 C.3       1 UNK         0.0000 
     18 C18         2.6227   52.2786   29.7808 C.3       1 UNK         0.0000 
     19 C19         1.2285   52.6242   29.1957 C.3       1 UNK         0.0000 
     20 C20         1.2537   52.7618   27.6507 C.2       1 UNK         0.0000 
     21 N21         0.3169   52.4953   26.8304 N.2       1 UNK         0.0000 
     22 N22        -0.8547   51.9848   27.2738 N.pl3     1 UNK         0.0000 
     23 S23        -2.0489   51.4735   26.0793 S.o2      1 UNK         0.0000 
     24 O24        -2.1619   52.5279   25.0631 O.2       1 UNK         0.0000 
     25 O25        -1.7263   50.0996   25.6818 O.2       1 UNK         0.0000 
     26 C26        -3.6031   51.4058   26.9674 C.ar      1 UNK         0.0000 
     27 C27        -3.6959   50.6527   28.1404 C.ar      1 UNK         0.0000 
     28 C28        -4.8984   50.6046   28.8392 C.ar      1 UNK         0.0000 
     29 C29        -6.0049   51.3023   28.3586 C.ar      1 UNK         0.0000 
     30 C30        -5.9193   52.0491   27.1845 C.ar      1 UNK         0.0000 
     31 C31        -4.7155   52.1018   26.4855 C.ar      1 UNK         0.0000 
     32 H32         1.0148   53.9785   24.7661 H         1 UNK         0.0000 
     33 H33         2.3702   54.4570   23.8241 H         1 UNK         0.0000 
     34 H34         2.0216   52.7387   24.0504 H         1 UNK         0.0000 
     35 H35         4.2216   53.4631   23.6229 H         1 UNK         0.0000 
     36 H36         7.2798   55.6111   23.2560 H         1 UNK         0.0000 
     37 H37         8.0948   56.2750   21.0633 H         1 UNK         0.0000 
     38 H38         6.8862   55.5944   19.0112 H         1 UNK         0.0000 
     39 H39         4.8598   54.1816   19.1861 H         1 UNK         0.0000 
     40 H40         4.6979   52.8978   29.6797 H         1 UNK         0.0000 
     41 H41         3.5925   54.2354   29.9825 H         1 UNK         0.0000 
     42 H42         2.9265   51.2970   29.4105 H         1 UNK         0.0000 
     43 H43         2.5520   52.1777   30.8647 H         1 UNK         0.0000 
     44 H44         0.5256   51.8448   29.4927 H         1 UNK         0.0000 
     45 H45         0.8543   53.5527   29.6285 H         1 UNK         0.0000 
     46 H46        -0.8151   51.4154   28.1235 H         1 UNK         0.0000 
     47 H47        -2.8479   50.0969   28.5126 H         1 UNK         0.0000 
     48 H48        -4.9699   50.0194   29.7450 H         1 UNK         0.0000 
     49 H49        -6.9399   51.2568   28.8979 H         1 UNK         0.0000 
     50 H50        -6.7837   52.5817   26.8158 H         1 UNK         0.0000 
     51 H51        -4.6528   52.6798   25.5745 H         1 UNK         0.0000 
@<TRIPOS>BOND
     1    1    2 1    
     2    1   32 1    
     3    1   33 1    
     4    1   34 1    
     5    2    6 2    
     6    2    3 1    
     7    3   20 1    
     8    3    4 2    
     9    4    5 1    
    10    4   17 1    
    11    5    6 1    
    12    6    7 1    
    13    7    8 2    
    14    7    9 am   BACKBONE|DICT|INTERRES
    15    9   10 1    
    16    9   35 1    
    17   10   15 ar   
    18   10   11 ar   
    19   11   12 ar   
    20   11   36 1    
    21   12   13 ar   
    22   12   37 1    
    23   13   14 ar   
    24   13   38 1    
    25   14   15 ar   
    26   14   39 1    
    27   15   16 1    
    28   17   18 1    
    29   17   40 1    
    30   17   41 1    
    31   18   19 1    
    32   18   42 1    
    33   18   43 1    
    34   19   20 1    
    35   19   44 1    
    36   19   45 1    
    37   20   21 2    
    38   21   22 1    
    39   22   23 1    
    40   22   46 1    
    41   23   24 2    
    42   23   25 2    
    43   23   26 1    
    44   26   31 ar   
    45   26   27 ar   
    46   27   28 ar   
    47   27   47 1    
    48   28   29 ar   
    49   28   48 1    
    50   29   30 ar   
    51   29   49 1    
    52   30   31 ar   
    53   30   50 1    
    54   31   51 1    
@<TRIPOS>SUBSTRUCTURE
     1 UNK         1 GROUP             0       ****    0 ROOT    
