@<TRIPOS>MOLECULE
ZINC09309067_6027
72   77    1
SMALL
USER_CHARGES


@<TRIPOS>ATOM
      1 C1          4.7747   54.4964   28.9374 C.3       1 UNK         0.0000 
      2 C2          5.4344   53.5505   27.9304 C.3       1 UNK         0.0000 
      3 O3          6.1436   54.2883   26.9351 O.3       1 UNK         0.0000 
      4 C4          5.6181   54.2899   25.6623 C.ar      1 UNK         0.0000 
      5 C5          4.2591   54.4989   25.4090 C.ar      1 UNK         0.0000 
      6 C6          3.7871   54.4939   24.1004 C.ar      1 UNK         0.0000 
      7 C7          4.6557   54.2425   23.0336 C.ar      1 UNK         0.0000 
      8 C8          6.0168   54.0546   23.2905 C.ar      1 UNK         0.0000 
      9 C9          6.4924   54.0998   24.5959 C.ar      1 UNK         0.0000 
     10 C10         4.1062   54.2611   21.6025 C.3       1 UNK         0.0000 
     11 H11         3.2078   54.8798   21.6302 H         1 UNK         0.0000 
     12 C12         3.7476   52.9076   21.0145 C.2       1 UNK         0.0000 
     13 C13         4.5889   52.7338   19.9748 C.2       1 UNK         0.0000 
     14 N14         5.4656   53.8144   19.8459 N.pl3     1 UNK         0.0000 
     15 N15         5.0018   54.8963   20.6555 N.3       1 UNK         0.0000 
     16 C16         6.4644   54.0752   18.8852 C.ar      1 UNK         0.0000 
     17 C17         6.5638   53.2968   17.7245 C.ar      1 UNK         0.0000 
     18 C18         7.5849   53.5147   16.8038 C.ar      1 UNK         0.0000 
     19 C19         8.5208   54.5181   17.0358 C.ar      1 UNK         0.0000 
     20 C20         8.4426   55.3052   18.1802 C.ar      1 UNK         0.0000 
     21 C21         7.4173   55.0855   19.0964 C.ar      1 UNK         0.0000 
     22 C22         2.6995   51.9792   21.4225 C.2       1 UNK         0.0000 
     23 C23         1.6938   52.2883   22.2734 C.2       1 UNK         0.0000 
     24 C24         0.5287   51.4084   22.7928 C.3       1 UNK         0.0000 
     25 C25         0.4706   51.2667   24.3712 C.3       1 UNK         0.0000 
     26 C26        -0.9494   51.6786   24.6854 C.ar      1 UNK         0.0000 
     27 C27        -1.6173   51.6628   25.9172 C.ar      1 UNK         0.0000 
     28 C28        -2.9055   52.1879   26.0229 C.ar      1 UNK         0.0000 
     29 C29        -3.5205   52.7536   24.9065 C.ar      1 UNK         0.0000 
     30 C30        -2.8554   52.7603   23.6809 C.ar      1 UNK         0.0000 
     31 C31        -1.5966   52.1764   23.5587 C.ar      1 UNK         0.0000 
     32 N32        -0.7327   52.0963   22.4663 N.pl3     1 UNK         0.0000 
     33 C33        -1.1035   51.9677   21.0596 C.3       1 UNK         0.0000 
     34 C34        -1.2923   50.5016   20.6374 C.3       1 UNK         0.0000 
     35 C35        -0.1310   49.6057   21.0924 C.2       1 UNK         0.0000 
     36 O36         0.0865   48.4941   20.6221 O.2       1 UNK         0.0000 
     37 N37         0.6246   50.0933   22.0951 N.am      1 UNK         0.0000 
     38 C38         1.4139   52.2361   25.1350 C.3       1 UNK         0.0000 
     39 C39         0.7043   49.8141   24.8735 C.3       1 UNK         0.0000 
     40 H40         4.2870   53.9366   29.7342 H         1 UNK         0.0000 
     41 H41         5.5107   55.1546   29.3980 H         1 UNK         0.0000 
     42 H42         4.0221   55.1239   28.4637 H         1 UNK         0.0000 
     43 H43         4.6978   52.8614   27.5139 H         1 UNK         0.0000 
     44 H44         6.1602   52.9232   28.4473 H         1 UNK         0.0000 
     45 H45         3.5698   54.6821   26.2186 H         1 UNK         0.0000 
     46 H46         2.7426   54.6944   23.9213 H         1 UNK         0.0000 
     47 H47         6.7091   53.8861   22.4805 H         1 UNK         0.0000 
     48 H48         7.5404   53.9574   24.7824 H         1 UNK         0.0000 
     49 H49         4.6366   51.9016   19.2914 H         1 UNK         0.0000 
     50 H50         4.4357   55.4276   20.0098 H         1 UNK         0.0000 
     51 H51         5.8612   52.4991   17.5315 H         1 UNK         0.0000 
     52 H52         7.6542   52.9000   15.9185 H         1 UNK         0.0000 
     53 H53         9.3181   54.6827   16.3255 H         1 UNK         0.0000 
     54 H54         9.1795   56.0743   18.3622 H         1 UNK         0.0000 
     55 H55         7.3855   55.6891   19.9907 H         1 UNK         0.0000 
     56 H56         2.7423   50.9836   21.0044 H         1 UNK         0.0000 
     57 H57         1.6626   53.2981   22.6464 H         1 UNK         0.0000 
     58 H58        -1.1411   51.2564   26.7986 H         1 UNK         0.0000 
     59 H59        -3.4155   52.1737   26.9749 H         1 UNK         0.0000 
     60 H60        -4.5049   53.1901   24.9922 H         1 UNK         0.0000 
     61 H61        -3.3032   53.2315   22.8274 H         1 UNK         0.0000 
     62 H62        -2.0329   52.5024   20.8731 H         1 UNK         0.0000 
     63 H63        -0.3758   52.4680   20.4175 H         1 UNK         0.0000 
     64 H64        -2.1521   50.0844   21.1611 H         1 UNK         0.0000 
     65 H65        -1.4077   50.4045   19.5581 H         1 UNK         0.0000 
     66 H66         1.3834   49.4955   22.3820 H         1 UNK         0.0000 
     67 H67         2.4576   52.0965   24.8591 H         1 UNK         0.0000 
     68 H68         1.1590   53.2788   24.9419 H         1 UNK         0.0000 
     69 H69         1.3488   52.0964   26.2149 H         1 UNK         0.0000 
     70 H70         1.6567   49.4194   24.5199 H         1 UNK         0.0000 
     71 H71         0.7061   49.7513   25.9628 H         1 UNK         0.0000 
     72 H72        -0.0736   49.1331   24.5246 H         1 UNK         0.0000 
@<TRIPOS>BOND
     1    1    2 1    
     2    1   40 1    
     3    1   41 1    
     4    1   42 1    
     5    2    3 1    
     6    2   43 1    
     7    2   44 1    
     8    3    4 1    
     9    4    9 ar   
    10    4    5 ar   
    11    5    6 ar   
    12    5   45 1    
    13    6    7 ar   
    14    6   46 1    
    15    7    8 ar   
    16    7   10 1    
    17    8    9 ar   
    18    8   47 1    
    19    9   48 1    
    20   10   11 1    
    21   10   15 1    
    22   10   12 1    
    23   12   13 2    
    24   12   22 1    
    25   13   14 1    
    26   13   49 1    
    27   14   15 1    
    28   14   16 1    
    29   15   50 1    
    30   16   21 ar   
    31   16   17 ar   
    32   17   18 ar   
    33   17   51 1    
    34   18   19 ar   
    35   18   52 1    
    36   19   20 ar   
    37   19   53 1    
    38   20   21 ar   
    39   20   54 1    
    40   21   55 1    
    41   22   23 2    
    42   22   56 1    
    43   23   24 1    
    44   23   57 1    
    45   24   32 1    
    46   24   37 1    
    47   24   25 1    
    48   25   26 1    
    49   25   38 1    
    50   25   39 1    
    51   26   31 ar   
    52   26   27 ar   
    53   27   28 ar   
    54   27   58 1    
    55   28   29 ar   
    56   28   59 1    
    57   29   30 ar   
    58   29   60 1    
    59   30   31 ar   
    60   30   61 1    
    61   31   32 1    
    62   32   33 1    
    63   33   34 1    
    64   33   62 1    
    65   33   63 1    
    66   34   35 1    
    67   34   64 1    
    68   34   65 1    
    69   35   36 2    
    70   35   37 am   BACKBONE|DICT|INTERRES
    71   37   66 1    
    72   38   67 1    
    73   38   68 1    
    74   38   69 1    
    75   39   70 1    
    76   39   71 1    
    77   39   72 1    
@<TRIPOS>SUBSTRUCTURE
     1 UNK         1 GROUP             0       ****    0 ROOT    
