ZINC14021394_4020
                    3D
 Schrodinger Suite 2024-2.
 53 56  0  0  1  0            999 V2000
   -0.3810   50.6966   24.7379 C   0  0  0  0  0  0
   -0.0038   51.4128   26.0210 C   0  0  0  0  0  0
    0.7911   52.5549   25.9796 C   0  0  0  0  0  0
    1.1044   53.2233   27.1614 C   0  0  0  0  0  0
    0.6876   52.7124   28.3927 C   0  0  0  0  0  0
   -0.1242   51.5798   28.4299 C   0  0  0  0  0  0
   -0.4828   50.9483   27.2435 C   0  0  0  0  0  0
    1.1147   53.5445   29.9254 S   0  0  0  0  0  0
    0.7052   52.6717   31.0302 O   0  0  0  0  0  0
    0.5810   54.8969   29.8108 O   0  0  0  0  0  0
    2.8724   53.7182   29.9768 N   0  0  0  0  0  0
    3.6888   52.7511   30.7425 C   0  0  0  0  0  0
    4.5358   51.8933   29.7989 C   0  0  0  0  0  0
    5.3066   52.7516   28.7585 C   0  0  0  0  0  0
    4.2758   53.5793   27.9742 C   0  0  1  0  0  0
    3.5885   52.8880   27.4916 H   0  0  0  0  0  0
    3.5947   54.5465   28.9731 C   0  0  0  0  0  0
    5.0107   54.3298   26.8535 C   0  0  0  0  0  0
    5.9794   55.0312   27.1498 O   0  0  0  0  0  0
    4.5707   54.0967   25.5928 N   0  0  0  0  0  0
    5.1948   54.4585   24.4037 C   0  0  0  0  0  0
    4.7240   54.1187   23.2252 N   0  0  0  0  0  0
    5.5096   54.4967   22.2179 C   0  0  0  0  0  0
    6.7037   55.0911   22.6319 C   0  0  0  0  0  0
    6.7045   55.2967   24.3429 S   0  0  0  0  0  0
    5.0989   54.2792   20.7868 C   0  0  0  0  0  0
    4.3225   53.1503   20.4824 C   0  0  0  0  0  0
    3.9073   52.8958   19.1767 C   0  0  0  0  0  0
    4.2619   53.7621   18.1483 C   0  0  0  0  0  0
    5.0260   54.8901   18.4293 C   0  0  0  0  0  0
    5.4424   55.1590   19.7341 C   0  0  0  0  0  0
    6.3065   56.6399   19.9864 Cl  0  0  0  0  0  0
    3.7508   53.4445   16.5311 Cl  0  0  0  0  0  0
   -0.3326   51.3645   23.8770 H   0  0  0  0  0  0
    0.2804   49.8461   24.5682 H   0  0  0  0  0  0
   -1.4057   50.3264   24.7929 H   0  0  0  0  0  0
    1.1372   52.9461   25.0339 H   0  0  0  0  0  0
    1.6672   54.1399   27.1038 H   0  0  0  0  0  0
   -0.4970   51.1896   29.3673 H   0  0  0  0  0  0
   -1.1396   50.0967   27.2811 H   0  0  0  0  0  0
    3.0381   52.1117   31.3396 H   0  0  0  0  0  0
    4.3044   53.2965   31.4553 H   0  0  0  0  0  0
    3.8780   51.1959   29.2822 H   0  0  0  0  0  0
    5.1900   51.2968   30.4218 H   0  0  0  0  0  0
    5.8555   52.0967   28.0915 H   0  0  0  0  0  0
    6.0041   53.4033   29.2815 H   0  0  0  0  0  0
    4.3265   55.1379   29.5271 H   0  0  0  0  0  0
    2.8780   55.2157   28.4968 H   0  0  0  0  0  0
    3.7439   53.5293   25.4905 H   0  0  0  0  0  0
    7.5384   55.4455   22.0456 H   0  0  0  0  0  0
    4.0415   52.4515   21.2564 H   0  0  0  0  0  0
    3.3284   52.0101   18.9562 H   0  0  0  0  0  0
    5.2845   55.5697   17.6304 H   0  0  0  0  0  0
  1  2  1  0  0  0
  1 34  1  0  0  0
  1 35  1  0  0  0
  1 36  1  0  0  0
  2  7  2  0  0  0
  2  3  1  0  0  0
  3  4  2  0  0  0
  3 37  1  0  0  0
  4  5  1  0  0  0
  4 38  1  0  0  0
  5  6  2  0  0  0
  5  8  1  0  0  0
  6  7  1  0  0  0
  6 39  1  0  0  0
  7 40  1  0  0  0
  8  9  2  0  0  0
  8 10  2  0  0  0
  8 11  1  0  0  0
 11 17  1  0  0  0
 11 12  1  0  0  0
 12 13  1  0  0  0
 12 41  1  0  0  0
 12 42  1  0  0  0
 13 14  1  0  0  0
 13 43  1  0  0  0
 13 44  1  0  0  0
 14 15  1  0  0  0
 14 45  1  0  0  0
 14 46  1  0  0  0
 15 16  1  0  0  0
 15 17  1  0  0  0
 15 18  1  0  0  0
 17 47  1  0  0  0
 17 48  1  0  0  0
 18 19  2  0  0  0
 18 20  1  0  0  0
 20 21  1  0  0  0
 20 49  1  0  0  0
 21 25  1  0  0  0
 21 22  2  0  0  0
 22 23  1  0  0  0
 23 24  2  0  0  0
 23 26  1  0  0  0
 24 25  1  0  0  0
 24 50  1  0  0  0
 26 31  2  0  0  0
 26 27  1  0  0  0
 27 28  2  0  0  0
 27 51  1  0  0  0
 28 29  1  0  0  0
 28 52  1  0  0  0
 29 30  2  0  0  0
 29 33  1  0  0  0
 30 31  1  0  0  0
 30 53  1  0  0  0
 31 32  1  0  0  0
M  END
> <i_i_glide_confnum>
14

> <i_i_glide_lignum>
4021

> <i_i_glide_posenum>
73

> <i_i_glide_rotatable_bonds>
6

> <i_m_Source_File_Index>
3842

> <b_m_subgroup_collapsed>
0

> <r_i_docking_score>
-4.23313

> <r_i_glide_ecoul>
-2.32049

> <r_i_glide_eff_state_penalty>
0

> <r_i_glide_einternal>
6.00852

> <r_i_glide_emodel>
-54.2414

> <r_i_glide_energy>
-47.1017

> <r_i_glide_erotb>
0.471739

> <r_i_glide_esite>
-0.0989289

> <r_i_glide_evdw>
-44.7812

> <r_i_glide_gscore>
-4.23313

> <r_i_glide_hbond>
0

> <r_i_glide_ligand_efficiency>
-0.132285

> <r_i_glide_ligand_efficiency_ln>
-0.947913

> <r_i_glide_ligand_efficiency_sa>
-0.419979

> <r_i_glide_lipo>
-2.21901

> <r_i_glide_metal>
0

> <r_i_glide_rewards>
0.200207

> <s_i_glide_gridfile>
wee1_glide-grid

> <s_m_Source_File>
wee1_decoys_glide_SP.sdf

> <s_m_Source_Path>
/Users/zhangxujun/Desktop

> <s_m_entry_id>
4117

> <s_m_entry_name>
wee1_decoys_glide_SP.3842

> <s_m_subgroup_title>
wee1_decoys_glide_SP

> <s_m_subgroupid>
wee1_decoys_glide_SP


$$$$
