ZINC21596006_2404
                    3D
 Schrodinger Suite 2024-2.
 43 47  0  0  1  0            999 V2000
    1.2575   53.4332   23.1891 C   0  0  0  0  0  0
    1.1755   52.3886   22.2753 C   0  0  0  0  0  0
    0.5874   51.1710   22.6392 C   0  0  0  0  0  0
    0.0906   51.0100   23.9434 C   0  0  0  0  0  0
    0.2110   52.0417   24.8830 C   0  0  0  0  0  0
    0.7665   53.2666   24.4795 C   0  0  0  0  0  0
   -0.2184   51.8176   26.2129 N   0  0  0  0  0  0
    0.3804   52.1988   27.3846 C   0  0  0  0  0  0
   -0.4954   52.0966   28.7987 S   0  0  0  0  0  0
    1.6881   52.5783   27.2600 N   0  0  0  0  0  0
    2.6086   53.1195   28.0948 C   0  0  0  0  0  0
    2.5140   53.1904   29.3237 O   0  0  0  0  0  0
    3.8355   53.6496   27.3791 C   0  0  0  0  0  0
    4.9507   54.0860   28.1148 C   0  0  0  0  0  0
    6.0980   54.5804   27.4901 C   0  0  0  0  0  0
    6.0975   54.6530   26.0907 C   0  0  0  0  0  0
    5.0091   54.1993   25.3419 C   0  0  0  0  0  0
    3.8791   53.6968   25.9715 C   0  0  0  0  0  0
    5.1392   54.2576   23.9972 N   0  0  0  0  0  0
    6.6578   54.8976   23.7611 S   0  0  0  0  0  0
    7.1044   55.1467   25.3500 N   0  0  0  0  0  0
    0.5286   50.0747   21.6280 C   0  0  0  0  0  0
   -0.3223   49.0670   21.5870 N   0  0  0  0  0  0
    0.0687   48.3607   20.4822 C   0  0  0  0  0  0
   -0.4382   47.1829   19.9140 C   0  0  0  0  0  0
    0.2186   46.6584   18.7931 C   0  0  0  0  0  0
    1.3337   47.2976   18.2351 C   0  0  0  0  0  0
    1.8450   48.4811   18.7754 C   0  0  0  0  0  0
    1.1868   48.9797   19.9025 C   0  0  0  0  0  0
    1.4693   50.0891   20.6324 O   0  0  0  0  0  0
   -0.3531   45.1883   18.0947 Cl  0  0  0  0  0  0
    1.7065   54.3712   22.8954 H   0  0  0  0  0  0
    1.5616   52.5388   21.2755 H   0  0  0  0  0  0
   -0.3444   50.0647   24.2374 H   0  0  0  0  0  0
    0.8684   54.0945   25.1619 H   0  0  0  0  0  0
   -1.1028   51.3391   26.3049 H   0  0  0  0  0  0
    2.0143   52.5257   26.3098 H   0  0  0  0  0  0
    4.9409   54.0381   29.1947 H   0  0  0  0  0  0
    6.9458   54.8972   28.0794 H   0  0  0  0  0  0
    3.0843   53.3340   25.3513 H   0  0  0  0  0  0
   -1.2948   46.6843   20.3421 H   0  0  0  0  0  0
    1.8140   46.8715   17.3651 H   0  0  0  0  0  0
    2.7042   48.9825   18.3477 H   0  0  0  0  0  0
  1  6  2  0  0  0
  1  2  1  0  0  0
  1 32  1  0  0  0
  2  3  2  0  0  0
  2 33  1  0  0  0
  3  4  1  0  0  0
  3 22  1  0  0  0
  4  5  2  0  0  0
  4 34  1  0  0  0
  5  6  1  0  0  0
  5  7  1  0  0  0
  6 35  1  0  0  0
  7  8  1  0  0  0
  7 36  1  0  0  0
  8  9  2  0  0  0
  8 10  1  0  0  0
 10 11  1  0  0  0
 10 37  1  0  0  0
 11 12  2  0  0  0
 11 13  1  0  0  0
 13 18  2  0  0  0
 13 14  1  0  0  0
 14 15  2  0  0  0
 14 38  1  0  0  0
 15 16  1  0  0  0
 15 39  1  0  0  0
 16 21  2  0  0  0
 16 17  1  0  0  0
 17 18  1  0  0  0
 17 19  2  0  0  0
 18 40  1  0  0  0
 19 20  1  0  0  0
 20 21  1  0  0  0
 22 30  1  0  0  0
 22 23  2  0  0  0
 23 24  1  0  0  0
 24 29  2  0  0  0
 24 25  1  0  0  0
 25 26  2  0  0  0
 25 41  1  0  0  0
 26 27  1  0  0  0
 26 31  1  0  0  0
 27 28  2  0  0  0
 27 42  1  0  0  0
 28 29  1  0  0  0
 28 43  1  0  0  0
 29 30  1  0  0  0
M  END
> <i_i_glide_confnum>
47

> <i_i_glide_lignum>
2405

> <i_i_glide_posenum>
251

> <i_i_glide_rotatable_bonds>
6

> <i_m_Source_File_Index>
4734

> <b_m_subgroup_collapsed>
0

> <r_i_docking_score>
-6.30256

> <r_i_glide_ecoul>
-4.66157

> <r_i_glide_eff_state_penalty>
0

> <r_i_glide_einternal>
6.39515

> <r_i_glide_emodel>
-62.5954

> <r_i_glide_energy>
-46.9707

> <r_i_glide_erotb>
0.464559

> <r_i_glide_esite>
-0.0391086

> <r_i_glide_evdw>
-42.3092

> <r_i_glide_gscore>
-6.30256

> <r_i_glide_hbond>
-0.32

> <r_i_glide_ligand_efficiency>
-0.203308

> <r_i_glide_ligand_efficiency_ln>
-1.42142

> <r_i_glide_ligand_efficiency_sa>
-0.638669

> <r_i_glide_lipo>
-2.39276

> <r_i_glide_metal>
0

> <r_i_glide_rewards>
-1.20056

> <s_i_glide_gridfile>
wee1_glide-grid

> <s_m_Source_File>
wee1_decoys_glide_SP.sdf

> <s_m_Source_Path>
/Users/zhangxujun/Desktop

> <s_m_entry_id>
5009

> <s_m_entry_name>
wee1_decoys_glide_SP.4734

> <s_m_subgroup_title>
wee1_decoys_glide_SP

> <s_m_subgroupid>
wee1_decoys_glide_SP


$$$$
