@<TRIPOS>MOLECULE
ZINC08310536_258
65   68    1
SMALL
USER_CHARGES


@<TRIPOS>ATOM
      1 C1         -0.5842   51.2966   27.6804 C.ar      1 UNK         0.0000 
      2 C2         -0.3105   52.1886   28.7116 C.ar      1 UNK         0.0000 
      3 C3          0.6713   53.1682   28.5765 C.ar      1 UNK         0.0000 
      4 C4          1.3891   53.2536   27.3573 C.ar      1 UNK         0.0000 
      5 C5          1.1043   52.3473   26.3370 C.ar      1 UNK         0.0000 
      6 C6          0.1256   51.3619   26.4771 C.ar      1 UNK         0.0000 
      7 C7         -0.0665   50.3293   25.3610 C.3       1 UNK         0.0000 
      8 H8          0.9233   50.0684   24.9800 H         1 UNK         0.0000 
      9 C9         -0.8123   49.0256   25.6767 C.3       1 UNK         0.0000 
     10 C10        -1.1683   48.4825   24.3034 C.3       1 UNK         0.0000 
     11 C11        -1.6000   49.7132   23.4942 C.3       1 UNK         0.0000 
     12 C12        -0.1440   51.8774   23.1787 C.3       1 UNK         0.0000 
     13 C13         1.0698   51.2676   22.4400 C.2       1 UNK         0.0000 
     14 O14         1.3032   50.0579   22.5208 O.2       1 UNK         0.0000 
     15 N15         1.7996   52.1501   21.7165 N.am      1 UNK         0.0000 
     16 C16         3.0154   51.9361   21.1668 C.2       1 UNK         0.0000 
     17 O17         3.6651   50.8973   21.2554 O.2       1 UNK         0.0000 
     18 N18         3.4988   53.0374   20.5659 N.am      1 UNK         0.0000 
     19 C19         4.9121   53.2481   20.2413 C.3       1 UNK         0.0000 
     20 C20         5.5715   54.4619   20.9392 C.3       1 UNK         0.0000 
     21 C21         5.6785   54.4949   22.4706 C.2       1 UNK         0.0000 
     22 C22         4.6811   54.1333   23.3147 C.2       1 UNK         0.0000 
     23 C23         4.7415   54.1984   24.8374 C.3       1 UNK         0.0000 
     24 C24         6.1710   54.4522   25.3533 C.3       1 UNK         0.0000 
     25 C25         6.9152   55.4633   24.4744 C.3       1 UNK         0.0000 
     26 C26         7.0310   54.9454   23.0238 C.3       1 UNK         0.0000 
     27 O27         2.4102   54.1460   27.1108 O.3       1 UNK         0.0000 
     28 C28         3.3108   54.4199   28.1727 C.3       1 UNK         0.0000 
     29 C29         2.7645   55.4462   29.1679 C.3       1 UNK         0.0000 
     30 C30         1.2567   55.3549   29.3933 C.3       1 UNK         0.0000 
     31 O31         0.8324   54.0248   29.6469 O.3       1 UNK         0.0000 
     32 H32        -1.3348   50.5434   27.8580 H         1 UNK         0.0000 
     33 H33        -0.8647   52.1170   29.6386 H         1 UNK         0.0000 
     34 H34         1.6981   52.3972   25.4363 H         1 UNK         0.0000 
     35 H35        -1.7348   49.2122   26.2283 H         1 UNK         0.0000 
     36 H36        -0.2111   48.3420   26.2770 H         1 UNK         0.0000 
     37 H37        -1.9535   47.7291   24.3580 H         1 UNK         0.0000 
     38 H38        -0.2960   48.0171   23.8403 H         1 UNK         0.0000 
     39 H39        -2.6680   49.9130   23.6203 H         1 UNK         0.0000 
     40 H40        -1.3185   49.6199   22.4425 H         1 UNK         0.0000 
     41 H41         0.1505   52.7400   23.7767 H         1 UNK         0.0000 
     42 H42        -0.9117   52.1771   22.4647 H         1 UNK         0.0000 
     43 H43         1.4381   53.0867   21.6350 H         1 UNK         0.0000 
     44 H44         2.8575   53.7606   20.2634 H         1 UNK         0.0000 
     45 H45         4.9836   53.3706   19.1591 H         1 UNK         0.0000 
     46 H46         5.5049   52.3577   20.4585 H         1 UNK         0.0000 
     47 H47         5.1044   55.3890   20.6095 H         1 UNK         0.0000 
     48 H48         6.5861   54.5191   20.5414 H         1 UNK         0.0000 
     49 H49         3.7301   53.8584   22.9031 H         1 UNK         0.0000 
     50 H50         4.3352   53.2970   25.2910 H         1 UNK         0.0000 
     51 H51         4.0843   55.0039   25.1630 H         1 UNK         0.0000 
     52 H52         6.7243   53.5131   25.3654 H         1 UNK         0.0000 
     53 H53         6.1445   54.8013   26.3857 H         1 UNK         0.0000 
     54 H54         6.3817   56.4159   24.4894 H         1 UNK         0.0000 
     55 H55         7.9036   55.6579   24.8819 H         1 UNK         0.0000 
     56 H56         7.4865   55.7067   22.3895 H         1 UNK         0.0000 
     57 H57         7.7144   54.0944   22.9875 H         1 UNK         0.0000 
     58 H58         4.2400   54.7974   27.7485 H         1 UNK         0.0000 
     59 H59         3.5924   53.4890   28.6734 H         1 UNK         0.0000 
     60 H60         3.0031   56.4673   28.8825 H         1 UNK         0.0000 
     61 H61         3.2910   55.2790   30.0977 H         1 UNK         0.0000 
     62 H62         0.7131   55.7796   28.5467 H         1 UNK         0.0000 
     63 H63         0.9781   55.9669   30.2532 H         1 UNK         0.0000 
     64 N64        -0.8664   50.9057   24.1633 N.4       1 UNK         0.0000 
     65 H65        -1.5889   51.4335   24.6332 H         1 UNK         0.0000 
@<TRIPOS>BOND
     1    1    6 ar   
     2    1    2 ar   
     3    1   32 1    
     4    2    3 ar   
     5    2   33 1    
     6    3   31 1    
     7    3    4 ar   
     8    4    5 ar   
     9    4   27 1    
    10    5    6 ar   
    11    5   34 1    
    12    6    7 1    
    13    7    8 1    
    14    7    9 1    
    15    7   64 1    
    16    9   10 1    
    17    9   35 1    
    18    9   36 1    
    19   10   11 1    
    20   10   37 1    
    21   10   38 1    
    22   11   39 1    
    23   11   40 1    
    24   11   64 1    
    25   12   13 1    
    26   12   41 1    
    27   12   42 1    
    28   12   64 1    
    29   13   14 2    
    30   13   15 am   BACKBONE|DICT|INTERRES
    31   15   16 am   BACKBONE|DICT|INTERRES
    32   15   43 1    
    33   16   17 2    
    34   16   18 am   BACKBONE|DICT|INTERRES
    35   18   19 1    
    36   18   44 1    
    37   19   20 1    
    38   19   45 1    
    39   19   46 1    
    40   20   21 1    
    41   20   47 1    
    42   20   48 1    
    43   21   26 1    
    44   21   22 2    
    45   22   23 1    
    46   22   49 1    
    47   23   24 1    
    48   23   50 1    
    49   23   51 1    
    50   24   25 1    
    51   24   52 1    
    52   24   53 1    
    53   25   26 1    
    54   25   54 1    
    55   25   55 1    
    56   26   56 1    
    57   26   57 1    
    58   27   28 1    
    59   28   29 1    
    60   28   58 1    
    61   28   59 1    
    62   29   30 1    
    63   29   60 1    
    64   29   61 1    
    65   30   31 1    
    66   30   62 1    
    67   30   63 1    
    68   64   65 1    
@<TRIPOS>SUBSTRUCTURE
     1 UNK         1 GROUP             0       ****    0 ROOT    
