ZINC09684902_824
                    3D
 Schrodinger Suite 2024-2.
 51 54  0  0  1  0            999 V2000
    1.1044   56.0833   30.9600 C   0  0  0  0  0  0
    1.5564   56.6288   29.8342 C   0  0  0  0  0  0
    1.6165   55.9736   28.4799 C   0  0  0  0  0  0
    2.0000   54.5599   28.3651 N   0  0  0  0  0  0
    3.2305   54.3285   27.7746 C   0  0  0  0  0  0
    3.4155   54.3641   26.4797 N   0  0  0  0  0  0
    4.6825   54.2278   26.1265 C   0  0  0  0  0  0
    5.5478   54.0553   27.2181 C   0  0  0  0  0  0
    4.6606   54.0980   28.7189 S   0  0  0  0  0  0
    5.0464   54.2726   24.6689 C   0  0  0  0  0  0
    4.0621   54.0980   23.6832 C   0  0  0  0  0  0
    4.3894   54.1501   22.3326 C   0  0  0  0  0  0
    5.7042   54.4046   21.9577 C   0  0  0  0  0  0
    6.6975   54.5729   22.9194 C   0  0  0  0  0  0
    6.3694   54.5015   24.2723 C   0  0  0  0  0  0
    1.0980   53.5616   28.5743 C   0  0  0  0  0  0
   -0.0151   53.7857   29.0560 O   0  0  0  0  0  0
    1.4232   52.1098   28.1820 C   0  0  0  0  0  0
   -0.0159   51.2775   27.4437 S   0  0  0  0  0  0
    0.3059   51.5608   25.7353 C   0  0  0  0  0  0
    0.5836   52.7303   25.2142 N   0  0  0  0  0  0
    0.7570   52.5494   23.8482 N   0  0  0  0  0  0
    0.6560   51.2642   23.6090 C   0  0  0  0  0  0
    0.3822   50.5772   24.7749 N   0  0  0  0  0  0
    0.1959   49.2123   24.9501 N   0  0  0  0  0  0
    0.8344   50.6626   22.2553 C   0  0  0  0  0  0
    1.7700   49.6375   22.0817 C   0  0  0  0  0  0
    1.9769   49.0758   20.8216 C   0  0  0  0  0  0
    1.2629   49.5440   19.7204 C   0  0  0  0  0  0
    0.3269   50.5641   19.8845 C   0  0  0  0  0  0
    0.1089   51.1218   21.1453 C   0  0  0  0  0  0
   -0.8207   52.0967   21.2797 F   0  0  0  0  0  0
    1.1102   56.6611   31.8722 H   0  0  0  0  0  0
    0.7274   55.0745   31.0193 H   0  0  0  0  0  0
    1.8992   57.6525   29.8709 H   0  0  0  0  0  0
    2.2987   56.5670   27.8780 H   0  0  0  0  0  0
    0.6392   56.0966   28.0222 H   0  0  0  0  0  0
    6.6175   53.9082   27.2189 H   0  0  0  0  0  0
    3.0338   53.9171   23.9559 H   0  0  0  0  0  0
    3.6229   54.0142   21.5826 H   0  0  0  0  0  0
    5.9560   54.4622   20.9087 H   0  0  0  0  0  0
    7.7149   54.7599   22.6098 H   0  0  0  0  0  0
    7.1487   54.6392   25.0058 H   0  0  0  0  0  0
    2.2682   52.0118   27.5031 H   0  0  0  0  0  0
    1.6798   51.5769   29.0960 H   0  0  0  0  0  0
    0.9524   48.7896   25.4705 H   0  0  0  0  0  0
   -0.7052   49.0028   25.3586 H   0  0  0  0  0  0
    2.3508   49.2895   22.9239 H   0  0  0  0  0  0
    2.7049   48.2880   20.6947 H   0  0  0  0  0  0
    1.4399   49.1211   18.7414 H   0  0  0  0  0  0
   -0.2279   50.9271   19.0327 H   0  0  0  0  0  0
  1  2  2  0  0  0
  1 33  1  0  0  0
  1 34  1  0  0  0
  2  3  1  0  0  0
  2 35  1  0  0  0
  3  4  1  0  0  0
  3 36  1  0  0  0
  3 37  1  0  0  0
  4  5  1  0  0  0
  4 16  1  0  0  0
  5  9  1  0  0  0
  5  6  2  0  0  0
  6  7  1  0  0  0
  7  8  2  0  0  0
  7 10  1  0  0  0
  8  9  1  0  0  0
  8 38  1  0  0  0
 10 15  2  0  0  0
 10 11  1  0  0  0
 11 12  2  0  0  0
 11 39  1  0  0  0
 12 13  1  0  0  0
 12 40  1  0  0  0
 13 14  2  0  0  0
 13 41  1  0  0  0
 14 15  1  0  0  0
 14 42  1  0  0  0
 15 43  1  0  0  0
 16 17  2  0  0  0
 16 18  1  0  0  0
 18 19  1  0  0  0
 18 44  1  0  0  0
 18 45  1  0  0  0
 19 20  1  0  0  0
 20 24  1  0  0  0
 20 21  2  0  0  0
 21 22  1  0  0  0
 22 23  2  0  0  0
 23 24  1  0  0  0
 23 26  1  0  0  0
 24 25  1  0  0  0
 25 46  1  0  0  0
 25 47  1  0  0  0
 26 31  2  0  0  0
 26 27  1  0  0  0
 27 28  2  0  0  0
 27 48  1  0  0  0
 28 29  1  0  0  0
 28 49  1  0  0  0
 29 30  2  0  0  0
 29 50  1  0  0  0
 30 31  1  0  0  0
 30 51  1  0  0  0
 31 32  1  0  0  0
M  END
> <i_i_glide_confnum>
284

> <i_i_glide_lignum>
825

> <i_i_glide_posenum>
233

> <i_i_glide_rotatable_bonds>
9

> <i_m_Source_File_Index>
3608

> <b_m_subgroup_collapsed>
0

> <r_i_docking_score>
-6.9426

> <r_i_glide_ecoul>
-4.99523

> <r_i_glide_eff_state_penalty>
0

> <r_i_glide_einternal>
18.1763

> <r_i_glide_emodel>
-67.0794

> <r_i_glide_energy>
-54.3954

> <r_i_glide_erotb>
0.834183

> <r_i_glide_esite>
-0.0507514

> <r_i_glide_evdw>
-49.4002

> <r_i_glide_gscore>
-6.9426

> <r_i_glide_hbond>
0

> <r_i_glide_ligand_efficiency>
-0.216956

> <r_i_glide_ligand_efficiency_ln>
-1.55464

> <r_i_glide_ligand_efficiency_sa>
-0.688793

> <r_i_glide_lipo>
-3.45346

> <r_i_glide_metal>
0

> <r_i_glide_rewards>
-1.05328

> <s_i_glide_gridfile>
wee1_glide-grid

> <s_m_Source_File>
wee1_decoys_glide_SP.sdf

> <s_m_Source_Path>
/Users/zhangxujun/Desktop

> <s_m_entry_id>
3883

> <s_m_entry_name>
wee1_decoys_glide_SP.3608

> <s_m_subgroup_title>
wee1_decoys_glide_SP

> <s_m_subgroupid>
wee1_decoys_glide_SP


$$$$
