@<TRIPOS>MOLECULE
ZINC59821777_4006
50   53    1
SMALL
USER_CHARGES


@<TRIPOS>ATOM
      1 C1          2.7041   58.7240   15.4738 C.ar      1 UNK         0.0000 
      2 C2          4.0623   58.4963   15.6709 C.ar      1 UNK         0.0000 
      3 C3          4.4998   57.2430   16.0885 C.ar      1 UNK         0.0000 
      4 C4          3.5771   56.2174   16.3332 C.ar      1 UNK         0.0000 
      5 C5          2.2105   56.4551   16.1128 C.ar      1 UNK         0.0000 
      6 C6          1.7770   57.7062   15.6823 C.ar      1 UNK         0.0000 
      7 C7          4.0660   54.9057   16.8958 C.2       1 UNK         0.0000 
      8 O8          5.1676   54.4476   16.5810 O.2       1 UNK         0.0000 
      9 N9          3.2546   54.3724   17.8345 N.am      1 UNK         0.0000 
     10 N10         3.7011   53.3674   18.6987 N.am      1 UNK         0.0000 
     11 C11         4.3024   53.7570   19.8458 C.2       1 UNK         0.0000 
     12 O12         4.7375   54.8967   20.0270 O.2       1 UNK         0.0000 
     13 C13         4.4002   52.7228   20.9695 C.3       1 UNK         0.0000 
     14 S14         4.9696   53.4467   22.5522 S.3       1 UNK         0.0000 
     15 C15         3.5045   53.5381   23.5715 C.ar      1 UNK         0.0000 
     16 N16         2.2878   53.2550   23.1763 N.2       1 UNK         0.0000 
     17 N17         1.4736   53.2329   24.3035 N.2       1 UNK         0.0000 
     18 C18         2.2177   53.5251   25.3453 C.ar      1 UNK         0.0000 
     19 N19         3.5218   53.7760   24.9415 N.pl3     1 UNK         0.0000 
     20 C20         4.6491   54.0970   25.7358 C.ar      1 UNK         0.0000 
     21 C21         4.8968   53.4133   26.9334 C.ar      1 UNK         0.0000 
     22 C22         6.0397   53.6931   27.6725 C.ar      1 UNK         0.0000 
     23 C23         6.9432   54.6343   27.1975 C.ar      1 UNK         0.0000 
     24 C24         6.7043   55.3188   26.0086 C.ar      1 UNK         0.0000 
     25 C25         5.5491   55.0652   25.2896 C.ar      1 UNK         0.0000 
     26 C26         1.7050   53.5114   26.7611 C.ar      1 UNK         0.0000 
     27 C27         0.8310   52.4964   27.1712 C.ar      1 UNK         0.0000 
     28 C28         0.3642   52.4554   28.4841 C.ar      1 UNK         0.0000 
     29 C29         0.7596   53.4402   29.3881 C.ar      1 UNK         0.0000 
     30 C30         1.6120   54.4651   28.9895 C.ar      1 UNK         0.0000 
     31 C31         2.0846   54.4965   27.6821 C.ar      1 UNK         0.0000 
     32 Br32        0.1421   53.3898   31.1866 Br        1 UNK         0.0000 
     33 H33         2.3712   59.7055   15.1689 H         1 UNK         0.0000 
     34 H34         4.7684   59.3023   15.5261 H         1 UNK         0.0000 
     35 H35         5.5559   57.0887   16.2604 H         1 UNK         0.0000 
     36 H36         1.4744   55.6839   16.2860 H         1 UNK         0.0000 
     37 H37         0.7251   57.8958   15.5305 H         1 UNK         0.0000 
     38 H38         2.2719   54.5796   17.9368 H         1 UNK         0.0000 
     39 H39         3.3444   52.4452   18.4881 H         1 UNK         0.0000 
     40 H40         3.4522   52.2009   21.0937 H         1 UNK         0.0000 
     41 H41         5.1318   51.9765   20.6607 H         1 UNK         0.0000 
     42 H42         4.2252   52.6436   27.2849 H         1 UNK         0.0000 
     43 H43         6.2369   53.1652   28.5932 H         1 UNK         0.0000 
     44 H44         7.8400   54.8402   27.7604 H         1 UNK         0.0000 
     45 H45         7.3894   56.0612   25.6308 H         1 UNK         0.0000 
     46 H46         5.3799   55.6061   24.3731 H         1 UNK         0.0000 
     47 H47         0.5245   51.7269   26.4771 H         1 UNK         0.0000 
     48 H48        -0.2975   51.6603   28.7995 H         1 UNK         0.0000 
     49 H49         1.9087   55.2308   29.6907 H         1 UNK         0.0000 
     50 H50         2.7482   55.2953   27.3846 H         1 UNK         0.0000 
@<TRIPOS>BOND
     1    1    6 ar   
     2    1    2 ar   
     3    1   33 1    
     4    2    3 ar   
     5    2   34 1    
     6    3    4 ar   
     7    3   35 1    
     8    4    5 ar   
     9    4    7 1    
    10    5    6 ar   
    11    5   36 1    
    12    6   37 1    
    13    7    8 2    
    14    7    9 am   BACKBONE|DICT|INTERRES
    15    9   10 1    
    16    9   38 1    
    17   10   11 am   BACKBONE|DICT|INTERRES
    18   10   39 1    
    19   11   12 2    
    20   11   13 1    
    21   13   14 1    
    22   13   40 1    
    23   13   41 1    
    24   14   15 1    
    25   15   19 ar   
    26   15   16 ar   
    27   16   17 ar   
    28   17   18 ar   
    29   18   19 ar   
    30   18   26 1    
    31   19   20 1    
    32   20   25 ar   
    33   20   21 ar   
    34   21   22 ar   
    35   21   42 1    
    36   22   23 ar   
    37   22   43 1    
    38   23   24 ar   
    39   23   44 1    
    40   24   25 ar   
    41   24   45 1    
    42   25   46 1    
    43   26   31 ar   
    44   26   27 ar   
    45   27   28 ar   
    46   27   47 1    
    47   28   29 ar   
    48   28   48 1    
    49   29   30 ar   
    50   29   32 1    
    51   30   31 ar   
    52   30   49 1    
    53   31   50 1    
@<TRIPOS>SUBSTRUCTURE
     1 UNK         1 GROUP             0       ****    0 ROOT    
