@<TRIPOS>MOLECULE
ZINC39608998_892
77   81    1
SMALL
USER_CHARGES


@<TRIPOS>ATOM
      1 C1         -2.3919   45.9391   21.2266 C.3       1 UNK         0.0000 
      2 C2         -2.2261   47.2257   22.0706 C.3       1 UNK         0.0000 
      3 H3         -3.1583   47.7917   22.0760 H         1 UNK         0.0000 
      4 C4         -1.1840   48.2290   21.4977 C.2       1 UNK         0.0000 
      5 O5         -0.5172   47.9082   20.5091 O.2       1 UNK         0.0000 
      6 N6         -1.0581   49.4568   22.0649 N.am      1 UNK         0.0000 
      7 C7         -0.0794   50.4489   21.5970 C.3       1 UNK         0.0000 
      8 C8         -0.1477   51.5858   22.6577 C.3       1 UNK         0.0000 
      9 H9         -0.8249   52.3631   22.3019 H         1 UNK         0.0000 
     10 C10        -0.7102   50.8771   23.9285 C.3       1 UNK         0.0000 
     11 C11        -1.6971   49.8677   23.3088 C.3       1 UNK         0.0000 
     12 C12         0.4240   50.1706   24.7394 C.3       1 UNK         0.0000 
     13 C13        -0.0942   49.3130   25.8847 C.3       1 UNK         0.0000 
     14 N14        -0.9096   50.2235   26.8234 N.4       1 UNK         0.0000 
     15 C15        -2.0228   51.0411   26.1258 C.3       1 UNK         0.0000 
     16 C16        -1.4105   51.8233   24.9383 C.3       1 UNK         0.0000 
     17 C17         1.2684   52.2057   22.8434 C.2       1 UNK         0.0000 
     18 O18         2.2864   51.5724   22.5562 O.2       1 UNK         0.0000 
     19 N19         1.3152   53.4520   23.3529 N.am      1 UNK         0.0000 
     20 C20         2.5302   54.2138   23.6981 C.3       1 UNK         0.0000 
     21 H21         2.2692   55.2281   24.0087 H         1 UNK         0.0000 
     22 C22         3.5687   54.3306   22.5532 C.3       1 UNK         0.0000 
     23 C23         4.9548   54.0964   23.1733 C.3       1 UNK         0.0000 
     24 C24         4.7518   54.1561   24.6890 C.3       1 UNK         0.0000 
     25 C25         3.3216   53.6546   24.9047 C.3       1 UNK         0.0000 
     26 H26         3.2802   52.5658   24.9018 H         1 UNK         0.0000 
     27 O27         2.8797   54.1084   26.1827 O.3       1 UNK         0.0000 
     28 C28         1.9069   53.2965   26.8270 C.3       1 UNK         0.0000 
     29 C29         1.5055   53.8422   28.1930 C.ar      1 UNK         0.0000 
     30 C30         0.7078   53.0532   29.0284 C.ar      1 UNK         0.0000 
     31 C31         0.3117   53.5323   30.2753 C.ar      1 UNK         0.0000 
     32 C32         0.7046   54.8053   30.6773 C.ar      1 UNK         0.0000 
     33 C33         1.5051   55.5987   29.8579 C.ar      1 UNK         0.0000 
     34 C34         1.9079   55.1144   28.6175 C.ar      1 UNK         0.0000 
     35 O35        -1.8440   46.8724   23.4103 O.3       1 UNK         0.0000 
     36 C36        -2.7992   46.5037   24.3454 C.ar      1 UNK         0.0000 
     37 C37        -4.1676   46.3378   24.0683 C.ar      1 UNK         0.0000 
     38 C38        -5.0493   45.9641   25.0810 C.ar      1 UNK         0.0000 
     39 C39        -4.5752   45.7655   26.3729 C.ar      1 UNK         0.0000 
     40 C40        -3.2250   45.9323   26.6655 C.ar      1 UNK         0.0000 
     41 C41        -2.3444   46.2928   25.6471 C.ar      1 UNK         0.0000 
     42 H42        -2.6487   46.1714   20.1922 H         1 UNK         0.0000 
     43 H43        -1.4664   45.3587   21.2188 H         1 UNK         0.0000 
     44 H44        -3.1785   45.2926   21.6142 H         1 UNK         0.0000 
     45 H45         0.8804   49.9276   21.6280 H         1 UNK         0.0000 
     46 H46        -0.3098   50.8097   20.5926 H         1 UNK         0.0000 
     47 H47        -2.5978   50.4255   23.0477 H         1 UNK         0.0000 
     48 H48        -1.9912   49.0897   24.0072 H         1 UNK         0.0000 
     49 H49         1.0012   49.5118   24.0862 H         1 UNK         0.0000 
     50 H50         1.1300   50.8978   25.1319 H         1 UNK         0.0000 
     51 H51        -0.7480   48.5047   25.5751 H         1 UNK         0.0000 
     52 H52         0.7093   48.8895   26.4889 H         1 UNK         0.0000 
     53 H53        -1.2955   49.5744   27.5266 H         1 UNK         0.0000 
     54 H54        -2.7805   50.3184   25.8236 H         1 UNK         0.0000 
     55 H55        -2.4437   51.6943   26.8929 H         1 UNK         0.0000 
     56 H56        -0.7488   52.6127   25.2804 H         1 UNK         0.0000 
     57 H57        -2.2208   52.3501   24.4300 H         1 UNK         0.0000 
     58 H58         0.4427   53.8964   23.5922 H         1 UNK         0.0000 
     59 H59         3.4135   53.6145   21.7468 H         1 UNK         0.0000 
     60 H60         3.5026   55.3026   22.0819 H         1 UNK         0.0000 
     61 H61         5.6922   54.8229   22.8307 H         1 UNK         0.0000 
     62 H62         5.3220   53.1105   22.8878 H         1 UNK         0.0000 
     63 H63         4.8701   55.1717   25.0685 H         1 UNK         0.0000 
     64 H64         5.4784   53.5189   25.1947 H         1 UNK         0.0000 
     65 H65         1.0195   53.2502   26.2056 H         1 UNK         0.0000 
     66 H66         2.2975   52.2854   26.9589 H         1 UNK         0.0000 
     67 H67         0.3980   52.0644   28.7235 H         1 UNK         0.0000 
     68 H68        -0.2982   52.9209   30.9282 H         1 UNK         0.0000 
     69 H69         0.3999   55.1733   31.6479 H         1 UNK         0.0000 
     70 H70         1.8095   56.5852   30.1845 H         1 UNK         0.0000 
     71 H71         2.5314   55.7280   27.9870 H         1 UNK         0.0000 
     72 H72        -4.5717   46.4872   23.0809 H         1 UNK         0.0000 
     73 H73        -6.1013   45.8372   24.8648 H         1 UNK         0.0000 
     74 H74        -5.2575   45.4814   27.1612 H         1 UNK         0.0000 
     75 H75        -2.8587   45.7817   27.6722 H         1 UNK         0.0000 
     76 H76        -1.2976   46.4059   25.8825 H         1 UNK         0.0000 
     77 H77        -0.2818   50.8358   27.3190 H         1 UNK         0.0000 
@<TRIPOS>BOND
     1    1    2 1    
     2    1   42 1    
     3    1   43 1    
     4    1   44 1    
     5    2    3 1    
     6    2    4 1    
     7    2   35 1    
     8    4    5 2    
     9    4    6 am   BACKBONE|DICT|INTERRES
    10    6   11 1    
    11    6    7 1    
    12    7    8 1    
    13    7   45 1    
    14    7   46 1    
    15    8    9 1    
    16    8   10 1    
    17    8   17 1    
    18   10   16 1    
    19   10   11 1    
    20   10   12 1    
    21   11   47 1    
    22   11   48 1    
    23   12   13 1    
    24   12   49 1    
    25   12   50 1    
    26   13   14 1    
    27   13   51 1    
    28   13   52 1    
    29   14   15 1    
    30   14   53 1    
    31   14   77 1    
    32   15   16 1    
    33   15   54 1    
    34   15   55 1    
    35   16   56 1    
    36   16   57 1    
    37   17   18 2    
    38   17   19 am   BACKBONE|DICT|INTERRES
    39   19   20 1    
    40   19   58 1    
    41   20   21 1    
    42   20   25 1    
    43   20   22 1    
    44   22   23 1    
    45   22   59 1    
    46   22   60 1    
    47   23   24 1    
    48   23   61 1    
    49   23   62 1    
    50   24   25 1    
    51   24   63 1    
    52   24   64 1    
    53   25   26 1    
    54   25   27 1    
    55   27   28 1    
    56   28   29 1    
    57   28   65 1    
    58   28   66 1    
    59   29   34 ar   
    60   29   30 ar   
    61   30   31 ar   
    62   30   67 1    
    63   31   32 ar   
    64   31   68 1    
    65   32   33 ar   
    66   32   69 1    
    67   33   34 ar   
    68   33   70 1    
    69   34   71 1    
    70   35   36 1    
    71   36   41 ar   
    72   36   37 ar   
    73   37   38 ar   
    74   37   72 1    
    75   38   39 ar   
    76   38   73 1    
    77   39   40 ar   
    78   39   74 1    
    79   40   41 ar   
    80   40   75 1    
    81   41   76 1    
@<TRIPOS>SUBSTRUCTURE
     1 UNK         1 GROUP             0       ****    0 ROOT    
