@<TRIPOS>MOLECULE
ZINC09576567_3812
46   48    1
SMALL
USER_CHARGES


@<TRIPOS>ATOM
      1 C1          1.9044   50.8209   17.2286 C.3       1 UNK         0.0000 
      2 C2          2.2866   51.5325   18.5131 C.ar      1 UNK         0.0000 
      3 C3          1.7831   51.0859   19.7339 C.ar      1 UNK         0.0000 
      4 C4          2.1267   51.7419   20.9137 C.ar      1 UNK         0.0000 
      5 C5          2.9970   52.8366   20.8940 C.ar      1 UNK         0.0000 
      6 C6          3.5044   53.2966   19.6586 C.ar      1 UNK         0.0000 
      7 C7          3.1495   52.6299   18.4838 C.ar      1 UNK         0.0000 
      8 Br8         4.5750   54.8691   19.4775 Br        1 UNK         0.0000 
      9 N9          3.2065   53.4612   22.1318 N.am      1 UNK         0.0000 
     10 C10         4.3996   53.6967   22.7077 C.2       1 UNK         0.0000 
     11 O11         5.4839   53.6207   22.1303 O.2       1 UNK         0.0000 
     12 C12         4.3300   53.9565   24.1290 C.2       1 UNK         0.0000 
     13 C13         5.3566   54.1982   25.0490 C.2       1 UNK         0.0000 
     14 C14         4.7385   54.1853   26.3154 C.2       1 UNK         0.0000 
     15 C15         3.3788   54.0093   26.0972 C.2       1 UNK         0.0000 
     16 O16         3.1283   53.8761   24.7730 O.3       1 UNK         0.0000 
     17 C17         2.2670   53.9495   27.1455 C.3       1 UNK         0.0000 
     18 C18         2.8869   53.7457   28.5660 C.3       1 UNK         0.0000 
     19 C19         4.1400   54.6684   28.6979 C.3       1 UNK         0.0000 
     20 C20         5.3044   54.3109   27.7234 C.3       1 UNK         0.0000 
     21 H21         5.7970   53.3855   28.0243 H         1 UNK         0.0000 
     22 O22         6.3044   55.2967   27.6817 O.3       1 UNK         0.0000 
     23 C23         1.8293   54.1943   29.5992 C.3       1 UNK         0.0000 
     24 C24         3.2917   52.2789   28.7886 C.3       1 UNK         0.0000 
     25 C25         6.8442   54.3183   24.7733 C.3       1 UNK         0.0000 
     26 H26         1.9043   49.7406   17.3797 H         1 UNK         0.0000 
     27 H27         2.6243   51.0197   16.4333 H         1 UNK         0.0000 
     28 H28         0.9102   51.1217   16.8991 H         1 UNK         0.0000 
     29 H29         1.1192   50.2348   19.7689 H         1 UNK         0.0000 
     30 H30         1.7132   51.3860   21.8465 H         1 UNK         0.0000 
     31 H31         3.5390   52.9808   17.5396 H         1 UNK         0.0000 
     32 H32         2.4160   53.4701   22.7570 H         1 UNK         0.0000 
     33 H33         1.7347   54.8967   27.1362 H         1 UNK         0.0000 
     34 H34         1.5447   53.1629   26.9234 H         1 UNK         0.0000 
     35 H35         3.8230   55.6967   28.5579 H         1 UNK         0.0000 
     36 H36         4.5303   54.6177   29.7153 H         1 UNK         0.0000 
     37 H37         6.6785   55.4404   28.5635 H         1 UNK         0.0000 
     38 H38         2.1490   53.9717   30.6141 H         1 UNK         0.0000 
     39 H39         1.6221   55.2642   29.5430 H         1 UNK         0.0000 
     40 H40         0.8832   53.6715   29.4497 H         1 UNK         0.0000 
     41 H41         3.6939   52.1172   29.7892 H         1 UNK         0.0000 
     42 H42         2.4501   51.5983   28.6527 H         1 UNK         0.0000 
     43 H43         4.0610   52.0030   28.0817 H         1 UNK         0.0000 
     44 H44         7.4471   54.0972   25.6511 H         1 UNK         0.0000 
     45 H45         7.1819   53.6180   24.0103 H         1 UNK         0.0000 
     46 H46         7.1061   55.3142   24.4161 H         1 UNK         0.0000 
@<TRIPOS>BOND
     1    1    2 1    
     2    1   26 1    
     3    1   27 1    
     4    1   28 1    
     5    2    7 ar   
     6    2    3 ar   
     7    3    4 ar   
     8    3   29 1    
     9    4    5 ar   
    10    4   30 1    
    11    5    6 ar   
    12    5    9 1    
    13    6    7 ar   
    14    6    8 1    
    15    7   31 1    
    16    9   10 am   BACKBONE|DICT|INTERRES
    17    9   32 1    
    18   10   11 2    
    19   10   12 1    
    20   12   16 1    
    21   12   13 2    
    22   13   14 1    
    23   13   25 1    
    24   14   20 1    
    25   14   15 2    
    26   15   16 1    
    27   15   17 1    
    28   17   18 1    
    29   17   33 1    
    30   17   34 1    
    31   18   19 1    
    32   18   23 1    
    33   18   24 1    
    34   19   20 1    
    35   19   35 1    
    36   19   36 1    
    37   20   21 1    
    38   20   22 1    
    39   22   37 1    
    40   23   38 1    
    41   23   39 1    
    42   23   40 1    
    43   24   41 1    
    44   24   42 1    
    45   24   43 1    
    46   25   44 1    
    47   25   45 1    
    48   25   46 1    
@<TRIPOS>SUBSTRUCTURE
     1 UNK         1 GROUP             0       ****    0 ROOT    
