@<TRIPOS>MOLECULE
ZINC40325749_6153
45   47    1
SMALL
USER_CHARGES


@<TRIPOS>ATOM
      1 C1          5.1882   54.7980   27.5939 C.3       1 UNK         0.0000 
      2 C2          4.0129   54.6064   26.6073 C.3       1 UNK         0.0000 
      3 H3          3.5047   55.5598   26.4781 H         1 UNK         0.0000 
      4 C4          4.5366   54.1953   25.2408 C.3       1 UNK         0.0000 
      5 C5          3.4464   54.0472   24.1722 C.3       1 UNK         0.0000 
      6 N6          2.3874   53.0909   24.6058 N.am      1 UNK         0.0000 
      7 C7          1.8324   53.3033   26.0012 C.3       1 UNK         0.0000 
      8 H8          1.3075   54.2485   25.8932 H         1 UNK         0.0000 
      9 C9          2.9516   53.5857   27.0719 C.3       1 UNK         0.0000 
     10 H10         3.4645   52.6261   27.1715 H         1 UNK         0.0000 
     11 C11         2.3821   53.8965   28.4821 C.3       1 UNK         0.0000 
     12 C12         1.3724   52.8510   28.9717 C.3       1 UNK         0.0000 
     13 C13         0.2161   52.7217   27.9778 C.3       1 UNK         0.0000 
     14 C14         0.7068   52.3694   26.5605 C.3       1 UNK         0.0000 
     15 C15         1.9016   52.1216   23.7425 C.2       1 UNK         0.0000 
     16 O16         1.0213   51.3221   24.0566 O.2       1 UNK         0.0000 
     17 C17         2.4667   51.9447   22.4004 C.ar      1 UNK         0.0000 
     18 C18         2.8539   52.9000   21.4583 C.ar      1 UNK         0.0000 
     19 C19         3.3027   52.2961   20.2878 C.ar      1 UNK         0.0000 
     20 C20         3.0843   50.9530   20.4799 C.ar      1 UNK         0.0000 
     21 N21         2.5604   50.7267   21.7307 N.pl3     1 UNK         0.0000 
     22 C22         2.2449   49.3981   22.2421 C.3       1 UNK         0.0000 
     23 N23         3.8242   52.8928   19.1832 N.pl3     1 UNK         0.0000 
     24 H24         5.6560   53.8442   27.8449 H         1 UNK         0.0000 
     25 H25         5.9647   55.4360   27.1704 H         1 UNK         0.0000 
     26 H26         4.8709   55.2709   28.5252 H         1 UNK         0.0000 
     27 H27         5.1261   53.2896   25.3243 H         1 UNK         0.0000 
     28 H28         5.2628   54.9328   24.8954 H         1 UNK         0.0000 
     29 H29         4.0409   53.6855   23.3381 H         1 UNK         0.0000 
     30 H30         2.9956   55.0165   23.9568 H         1 UNK         0.0000 
     31 H31         1.9209   54.8857   28.4755 H         1 UNK         0.0000 
     32 H32         3.1872   53.9634   29.2142 H         1 UNK         0.0000 
     33 H33         1.8655   51.8858   29.0963 H         1 UNK         0.0000 
     34 H34         0.9901   53.1306   29.9535 H         1 UNK         0.0000 
     35 H35        -0.4853   51.9606   28.3260 H         1 UNK         0.0000 
     36 H36        -0.3445   53.6571   27.9542 H         1 UNK         0.0000 
     37 H37         1.0780   51.3438   26.5960 H         1 UNK         0.0000 
     38 H38        -0.1660   52.3886   25.9076 H         1 UNK         0.0000 
     39 H39         2.8424   53.9674   21.6143 H         1 UNK         0.0000 
     40 H40         3.2636   50.1288   19.8061 H         1 UNK         0.0000 
     41 H41         2.7041   48.6300   21.6188 H         1 UNK         0.0000 
     42 H42         2.6196   49.2968   23.2604 H         1 UNK         0.0000 
     43 H43         1.1640   49.2619   22.2299 H         1 UNK         0.0000 
     44 H44         4.3015   52.3348   18.4823 H         1 UNK         0.0000 
     45 H45         3.6287   53.8589   18.9555 H         1 UNK         0.0000 
@<TRIPOS>BOND
     1    1    2 1    
     2    1   24 1    
     3    1   25 1    
     4    1   26 1    
     5    2    3 1    
     6    2    9 1    
     7    2    4 1    
     8    4    5 1    
     9    4   27 1    
    10    4   28 1    
    11    5    6 1    
    12    5   29 1    
    13    5   30 1    
    14    6    7 1    
    15    6   15 am   BACKBONE|DICT|INTERRES
    16    7    8 1    
    17    7   14 1    
    18    7    9 1    
    19    9   10 1    
    20    9   11 1    
    21   11   12 1    
    22   11   31 1    
    23   11   32 1    
    24   12   13 1    
    25   12   33 1    
    26   12   34 1    
    27   13   14 1    
    28   13   35 1    
    29   13   36 1    
    30   14   37 1    
    31   14   38 1    
    32   15   16 2    
    33   15   17 1    
    34   17   21 ar   
    35   17   18 ar   
    36   18   19 ar   
    37   18   39 1    
    38   19   20 ar   
    39   19   23 1    
    40   20   21 ar   
    41   20   40 1    
    42   21   22 1    
    43   22   41 1    
    44   22   42 1    
    45   22   43 1    
    46   23   44 1    
    47   23   45 1    
@<TRIPOS>SUBSTRUCTURE
     1 UNK         1 GROUP             0       ****    0 ROOT    
