@<TRIPOS>MOLECULE
ZINC05146069_1467
46   48    1
SMALL
USER_CHARGES


@<TRIPOS>ATOM
      1 C1          3.8047   51.8072   32.0359 C.3       1 UNK         0.0000 
      2 O2          3.6876   51.9202   30.6265 O.3       1 UNK         0.0000 
      3 C3          2.5302   52.4965   30.1610 C.2       1 UNK         0.0000 
      4 O4          1.5551   52.8708   30.8171 O.2       1 UNK         0.0000 
      5 N5          2.6999   52.6075   28.8356 N.am      1 UNK         0.0000 
      6 C6          1.8230   53.0708   27.9236 C.2       1 UNK         0.0000 
      7 O7          0.5984   53.1257   28.0735 O.2       1 UNK         0.0000 
      8 C8          2.4568   53.4579   26.6713 C.2       1 UNK         0.0000 
      9 C9          3.6973   54.1546   26.5721 C.2       1 UNK         0.0000 
     10 C10         4.0901   54.3904   25.2466 C.2       1 UNK         0.0000 
     11 S11         2.8759   53.8360   24.1356 S.3       1 UNK         0.0000 
     12 C12         1.8567   53.2676   25.4212 C.2       1 UNK         0.0000 
     13 N13         0.6187   52.6616   25.2142 N.am      1 UNK         0.0000 
     14 C14        -0.0074   52.3241   24.0641 C.2       1 UNK         0.0000 
     15 O15         0.4630   52.5001   22.9391 O.2       1 UNK         0.0000 
     16 C16        -1.3264   51.7370   24.2460 C.2       1 UNK         0.0000 
     17 C17        -1.6962   51.0590   25.3681 C.2       1 UNK         0.0000 
     18 O18        -2.9025   50.4684   25.5707 O.3       1 UNK         0.0000 
     19 C19        -3.6572   50.2863   24.3683 C.3       1 UNK         0.0000 
     20 C20        -3.5358   51.5135   23.4302 C.3       1 UNK         0.0000 
     21 O21        -2.1662   51.8641   23.1732 O.3       1 UNK         0.0000 
     22 C22         5.3829   55.0492   24.7966 C.3       1 UNK         0.0000 
     23 C23         6.6568   54.3494   25.3067 C.3       1 UNK         0.0000 
     24 C24         6.9613   54.5062   26.8120 C.3       1 UNK         0.0000 
     25 C25         5.9308   53.9432   27.8036 C.3       1 UNK         0.0000 
     26 C26         4.5733   54.6475   27.7173 C.3       1 UNK         0.0000 
     27 H27         4.7035   51.2510   32.2897 H         1 UNK         0.0000 
     28 H28         3.9055   52.7942   32.4812 H         1 UNK         0.0000 
     29 H29         2.9504   51.2946   32.4814 H         1 UNK         0.0000 
     30 H30         3.6108   52.3485   28.4935 H         1 UNK         0.0000 
     31 H31         0.1264   52.4503   26.0698 H         1 UNK         0.0000 
     32 H32        -1.0685   50.9049   26.2366 H         1 UNK         0.0000 
     33 H33        -3.2950   49.3943   23.8504 H         1 UNK         0.0000 
     34 H34        -4.7023   50.1136   24.6278 H         1 UNK         0.0000 
     35 H35        -4.0424   52.3684   23.8823 H         1 UNK         0.0000 
     36 H36        -4.0284   51.2964   22.4822 H         1 UNK         0.0000 
     37 H37         5.4205   56.0833   25.1422 H         1 UNK         0.0000 
     38 H38         5.4273   55.0886   23.7081 H         1 UNK         0.0000 
     39 H39         7.5044   54.7479   24.7481 H         1 UNK         0.0000 
     40 H40         6.6171   53.2968   25.0446 H         1 UNK         0.0000 
     41 H41         7.1057   55.5647   27.0335 H         1 UNK         0.0000 
     42 H42         7.9044   54.0230   27.0334 H         1 UNK         0.0000 
     43 H43         6.3289   54.0783   28.8106 H         1 UNK         0.0000 
     44 H44         5.8171   52.8657   27.6715 H         1 UNK         0.0000 
     45 H45         4.0806   54.6637   28.6870 H         1 UNK         0.0000 
     46 H46         4.7853   55.6954   27.5468 H         1 UNK         0.0000 
@<TRIPOS>BOND
     1    1    2 1    
     2    1   27 1    
     3    1   28 1    
     4    1   29 1    
     5    2    3 1    
     6    3    4 2    
     7    3    5 am   BACKBONE|DICT|INTERRES
     8    5    6 am   BACKBONE|DICT|INTERRES
     9    5   30 1    
    10    6    7 2    
    11    6    8 1    
    12    8   12 2    
    13    8    9 1    
    14    9   26 1    
    15    9   10 2    
    16   10   11 1    
    17   10   22 1    
    18   11   12 1    
    19   12   13 am   BACKBONE|DICT|INTERRES
    20   13   14 am   BACKBONE|DICT|INTERRES
    21   13   31 1    
    22   14   15 2    
    23   14   16 1    
    24   16   21 1    
    25   16   17 2    
    26   17   18 1    
    27   17   32 1    
    28   18   19 1    
    29   19   20 1    
    30   19   33 1    
    31   19   34 1    
    32   20   21 1    
    33   20   35 1    
    34   20   36 1    
    35   22   23 1    
    36   22   37 1    
    37   22   38 1    
    38   23   24 1    
    39   23   39 1    
    40   23   40 1    
    41   24   25 1    
    42   24   41 1    
    43   24   42 1    
    44   25   26 1    
    45   25   43 1    
    46   25   44 1    
    47   26   45 1    
    48   26   46 1    
@<TRIPOS>SUBSTRUCTURE
     1 UNK         1 GROUP             0       ****    0 ROOT    
