ZINC39684462_2160
                    3D
 Schrodinger Suite 2024-2.
 68 70  0  0  1  0            999 V2000
    5.0654   53.8943   26.8564 C   0  0  0  0  0  0
    3.5701   53.5555   26.6756 C   0  0  2  0  0  0
    3.4980   52.4967   26.8811 H   0  0  0  0  0  0
    3.0490   53.7881   25.2282 C   0  0  0  0  0  0
    3.7124   54.4967   24.4671 O   0  0  0  0  0  0
    1.9212   53.1656   24.7908 N   0  0  0  0  0  0
    1.4768   53.2774   23.4013 C   0  0  0  0  0  0
    0.0454   52.6948   23.4312 C   0  0  2  0  0  0
   -0.6067   53.5527   23.6048 H   0  0  0  0  0  0
    0.0057   51.7063   24.6246 C   0  0  0  0  0  0
    0.9984   52.3733   25.6077 C   0  0  0  0  0  0
   -1.4420   51.5571   25.1557 C   0  0  0  0  0  0
   -1.5056   50.7018   26.4288 C   0  0  0  0  0  0
   -0.9746   49.2967   26.0817 N   0  3  0  0  0  0
    0.4525   49.2952   25.4947 C   0  0  0  0  0  0
    0.4867   50.2548   24.2786 C   0  0  0  0  0  0
   -0.3426   52.0967   22.0513 C   0  0  0  0  0  0
   -1.5262   52.0965   21.7138 O   0  0  0  0  0  0
    0.6279   51.5707   21.2878 N   0  0  0  0  0  0
    0.4956   50.9354   19.9762 C   0  0  1  0  0  0
   -0.3975   50.3054   20.0069 H   0  0  0  0  0  0
    0.2491   52.0063   18.8878 C   0  0  0  0  0  0
    1.7129   49.9812   19.7011 C   0  0  0  0  0  0
    1.5646   49.2595   18.3385 C   0  0  0  0  0  0
    1.7909   48.8853   20.7974 C   0  0  0  0  0  0
    3.0489   50.7678   19.7138 C   0  0  0  0  0  0
    2.8526   54.3908   27.5945 O   0  0  0  0  0  0
    2.0208   53.8681   28.5700 C   0  0  0  0  0  0
    1.7102   52.5072   28.7288 C   0  0  0  0  0  0
    0.7676   52.1021   29.6614 C   0  0  0  0  0  0
    0.2111   53.0355   30.5294 C   0  0  0  0  0  0
    0.5593   54.3809   30.4342 C   0  0  0  0  0  0
    1.4446   54.7951   29.4407 C   0  0  0  0  0  0
    5.6924   53.3234   26.1700 H   0  0  0  0  0  0
    5.2604   54.9542   26.6862 H   0  0  0  0  0  0
    5.3956   53.6600   27.8689 H   0  0  0  0  0  0
    2.1722   52.6511   22.8423 H   0  0  0  0  0  0
    1.4810   54.3057   23.0327 H   0  0  0  0  0  0
    0.4454   53.0818   26.2253 H   0  0  0  0  0  0
    1.4657   51.6509   26.2621 H   0  0  0  0  0  0
   -2.1074   51.1671   24.3829 H   0  0  0  0  0  0
   -1.8400   52.5426   25.4039 H   0  0  0  0  0  0
   -2.5240   50.5547   26.7929 H   0  0  0  0  0  0
   -0.8918   51.0798   27.2481 H   0  0  0  0  0  0
   -1.6131   48.8416   25.4457 H   0  0  0  0  0  0
    0.6757   48.2609   25.2240 H   0  0  0  0  0  0
    1.1044   49.5763   26.3193 H   0  0  0  0  0  0
    1.5067   50.2871   23.8929 H   0  0  0  0  0  0
   -0.1085   49.8176   23.4756 H   0  0  0  0  0  0
    1.5680   51.5835   21.6486 H   0  0  0  0  0  0
    0.1655   51.5639   17.8965 H   0  0  0  0  0  0
   -0.6848   52.5405   19.0611 H   0  0  0  0  0  0
    1.0621   52.7322   18.8426 H   0  0  0  0  0  0
    1.6751   49.9428   17.4960 H   0  0  0  0  0  0
    2.3314   48.4949   18.2039 H   0  0  0  0  0  0
    0.5959   48.7678   18.2433 H   0  0  0  0  0  0
    2.0172   49.3002   21.7791 H   0  0  0  0  0  0
    0.8502   48.3400   20.8805 H   0  0  0  0  0  0
    2.5718   48.1538   20.5828 H   0  0  0  0  0  0
    3.1731   51.3741   20.6106 H   0  0  0  0  0  0
    3.9041   50.0969   19.6817 H   0  0  0  0  0  0
    3.1340   51.4356   18.8556 H   0  0  0  0  0  0
    2.1488   51.7240   28.1400 H   0  0  0  0  0  0
    0.4729   51.0652   29.6817 H   0  0  0  0  0  0
   -0.4966   52.7106   31.2805 H   0  0  0  0  0  0
    0.1267   55.1027   31.1112 H   0  0  0  0  0  0
    1.6866   55.8435   29.3420 H   0  0  0  0  0  0
   -1.0173   48.7587   26.9636 H   0  0  0  0  0  0
  1  2  1  0  0  0
  1 34  1  0  0  0
  1 35  1  0  0  0
  1 36  1  0  0  0
  2  3  1  0  0  0
  2  4  1  0  0  0
  2 27  1  0  0  0
  4  5  2  0  0  0
  4  6  1  0  0  0
  6 11  1  0  0  0
  6  7  1  0  0  0
  7  8  1  0  0  0
  7 37  1  0  0  0
  7 38  1  0  0  0
  8  9  1  0  0  0
  8 10  1  0  0  0
  8 17  1  0  0  0
 10 16  1  0  0  0
 10 11  1  0  0  0
 10 12  1  0  0  0
 11 39  1  0  0  0
 11 40  1  0  0  0
 12 13  1  0  0  0
 12 41  1  0  0  0
 12 42  1  0  0  0
 13 14  1  0  0  0
 13 43  1  0  0  0
 13 44  1  0  0  0
 14 15  1  0  0  0
 14 45  1  0  0  0
 14 68  1  0  0  0
 15 16  1  0  0  0
 15 46  1  0  0  0
 15 47  1  0  0  0
 16 48  1  0  0  0
 16 49  1  0  0  0
 17 18  2  0  0  0
 17 19  1  0  0  0
 19 20  1  0  0  0
 19 50  1  0  0  0
 20 21  1  0  0  0
 20 22  1  0  0  0
 20 23  1  0  0  0
 22 51  1  0  0  0
 22 52  1  0  0  0
 22 53  1  0  0  0
 23 24  1  0  0  0
 23 25  1  0  0  0
 23 26  1  0  0  0
 24 54  1  0  0  0
 24 55  1  0  0  0
 24 56  1  0  0  0
 25 57  1  0  0  0
 25 58  1  0  0  0
 25 59  1  0  0  0
 26 60  1  0  0  0
 26 61  1  0  0  0
 26 62  1  0  0  0
 27 28  1  0  0  0
 28 33  2  0  0  0
 28 29  1  0  0  0
 29 30  2  0  0  0
 29 63  1  0  0  0
 30 31  1  0  0  0
 30 64  1  0  0  0
 31 32  2  0  0  0
 31 65  1  0  0  0
 32 33  1  0  0  0
 32 66  1  0  0  0
 33 67  1  0  0  0
M  CHG  1  14   1
M  END
> <i_i_glide_confnum>
318

> <i_i_glide_lignum>
2161

> <i_i_glide_posenum>
378

> <i_i_glide_rotatable_bonds>
8

> <i_m_Source_File_Index>
5436

> <b_m_subgroup_collapsed>
0

> <r_i_docking_score>
-5.79238

> <r_i_glide_ecoul>
-8.97346

> <r_i_glide_eff_state_penalty>
0

> <r_i_glide_einternal>
12.0381

> <r_i_glide_emodel>
-58.2119

> <r_i_glide_energy>
-44.753

> <r_i_glide_erotb>
0.683105

> <r_i_glide_esite>
-0.100997

> <r_i_glide_evdw>
-35.7795

> <r_i_glide_gscore>
-5.79238

> <r_i_glide_hbond>
-0.2

> <r_i_glide_ligand_efficiency>
-0.193079

> <r_i_glide_ligand_efficiency_ln>
-1.31609

> <r_i_glide_ligand_efficiency_sa>
-0.599942

> <r_i_glide_lipo>
-1.8413

> <r_i_glide_metal>
0

> <r_i_glide_rewards>
-1.19819

> <s_i_glide_gridfile>
wee1_glide-grid

> <s_m_Source_File>
wee1_decoys_glide_SP.sdf

> <s_m_Source_Path>
/Users/zhangxujun/Desktop

> <s_m_entry_id>
5711

> <s_m_entry_name>
wee1_decoys_glide_SP.5436

> <s_m_subgroup_title>
wee1_decoys_glide_SP

> <s_m_subgroupid>
wee1_decoys_glide_SP


$$$$
