@<TRIPOS>MOLECULE
ZINC63361821_5468
72   76    1
SMALL
USER_CHARGES


@<TRIPOS>ATOM
      1 C1          6.5775   54.6455   26.3477 C.3       1 UNK         0.0000 
      2 C2          6.7299   54.8368   24.8301 C.3       1 UNK         0.0000 
      3 C3          5.4170   54.5725   24.0726 C.3       1 UNK         0.0000 
      4 C4          5.5577   54.6597   22.5360 C.3       1 UNK         0.0000 
      5 C5          4.2477   54.3590   21.7654 C.3       1 UNK         0.0000 
      6 C6          3.7722   52.8894   21.8288 C.3       1 UNK         0.0000 
      7 H7          3.7127   52.6201   22.8816 H         1 UNK         0.0000 
      8 C8          4.7538   51.9255   21.1317 C.3       1 UNK         0.0000 
      9 N9          2.4157   52.7414   21.2986 N.am      1 UNK         0.0000 
     10 C10         1.6211   51.6817   21.5500 C.2       1 UNK         0.0000 
     11 O11         1.9622   50.7470   22.2778 O.2       1 UNK         0.0000 
     12 C12         0.2595   51.6945   20.8912 C.ar      1 UNK         0.0000 
     13 C13         0.1552   52.0967   19.5495 C.ar      1 UNK         0.0000 
     14 C14        -1.0729   52.0970   18.8907 C.ar      1 UNK         0.0000 
     15 C15        -2.2237   51.6966   19.5622 C.ar      1 UNK         0.0000 
     16 C16        -2.1457   51.2835   20.8900 C.ar      1 UNK         0.0000 
     17 C17        -0.9150   51.2660   21.5621 C.ar      1 UNK         0.0000 
     18 N18        -0.9067   50.7593   22.8819 N.am      1 UNK         0.0000 
     19 C19        -0.8770   49.4329   23.1426 C.2       1 UNK         0.0000 
     20 O20        -0.8569   48.4968   22.3380 O.2       1 UNK         0.0000 
     21 C21        -0.9400   49.2881   24.6558 C.3       1 UNK         0.0000 
     22 C22        -2.2727   48.6031   25.1900 C.3       1 UNK         0.0000 
     23 H23        -2.0657   48.0077   26.0814 H         1 UNK         0.0000 
     24 C24        -3.3516   49.6294   25.4848 C.2       1 UNK         0.0000 
     25 C25        -4.4222   49.3911   24.7139 C.2       1 UNK         0.0000 
     26 C26        -5.6703   50.1397   24.5195 C.2       1 UNK         0.0000 
     27 C27        -6.6233   49.7028   23.6564 C.2       1 UNK         0.0000 
     28 C28        -6.3459   48.4533   22.9561 C.2       1 UNK         0.0000 
     29 C29        -5.1942   47.7515   23.1198 C.2       1 UNK         0.0000 
     30 C30        -4.2061   48.2169   23.9916 C.2       1 UNK         0.0000 
     31 N31        -3.0183   47.7182   24.2608 N.pl3     1 UNK         0.0000 
     32 O32        -7.7959   50.3375   23.3765 O.3       1 UNK         0.0000 
     33 C33        -8.0606   51.6098   23.9633 C.3       1 UNK         0.0000 
     34 C34        -2.9629   50.7734   26.4082 C.3       1 UNK         0.0000 
     35 C35        -1.4232   50.9964   26.3855 C.3       1 UNK         0.0000 
     36 N36        -0.8752   50.6892   25.0498 N.am      1 UNK         0.0000 
     37 C37        -0.9081   51.5373   24.0002 C.2       1 UNK         0.0000 
     38 O38        -0.9498   52.7686   24.0525 O.2       1 UNK         0.0000 
     39 C39         0.3044   48.4980   25.1219 C.3       1 UNK         0.0000 
     40 H40         7.5048   54.8567   26.8774 H         1 UNK         0.0000 
     41 H41         5.8098   55.3019   26.7572 H         1 UNK         0.0000 
     42 H42         6.2948   53.6195   26.5870 H         1 UNK         0.0000 
     43 H43         7.0803   55.8482   24.6190 H         1 UNK         0.0000 
     44 H44         7.5043   54.1621   24.4622 H         1 UNK         0.0000 
     45 H45         5.0519   53.5853   24.3544 H         1 UNK         0.0000 
     46 H46         4.6620   55.2835   24.4126 H         1 UNK         0.0000 
     47 H47         5.9055   55.6552   22.2583 H         1 UNK         0.0000 
     48 H48         6.3517   53.9956   22.2038 H         1 UNK         0.0000 
     49 H49         3.4610   55.0051   22.1574 H         1 UNK         0.0000 
     50 H50         4.3677   54.6492   20.7204 H         1 UNK         0.0000 
     51 H51         4.4237   50.8924   21.2025 H         1 UNK         0.0000 
     52 H52         4.8779   52.1725   20.0762 H         1 UNK         0.0000 
     53 H53         5.7403   51.9685   21.5873 H         1 UNK         0.0000 
     54 H54         2.0379   53.5246   20.7785 H         1 UNK         0.0000 
     55 H55         1.0334   52.4037   18.9966 H         1 UNK         0.0000 
     56 H56        -1.1258   52.4008   17.8553 H         1 UNK         0.0000 
     57 H57        -3.1735   51.6870   19.0472 H         1 UNK         0.0000 
     58 H58        -3.0433   50.9486   21.3916 H         1 UNK         0.0000 
     59 H59        -5.8262   51.0603   25.0600 H         1 UNK         0.0000 
     60 H60        -7.0957   48.0747   22.2770 H         1 UNK         0.0000 
     61 H61        -5.0591   46.8359   22.5625 H         1 UNK         0.0000 
     62 H62        -9.0198   51.9765   23.6015 H         1 UNK         0.0000 
     63 H63        -8.1200   51.5491   25.0511 H         1 UNK         0.0000 
     64 H64        -7.3055   52.3458   23.6829 H         1 UNK         0.0000 
     65 H65        -3.4801   51.6894   26.1226 H         1 UNK         0.0000 
     66 H66        -3.2644   50.5349   27.4302 H         1 UNK         0.0000 
     67 H67        -1.0868   51.9762   26.7281 H         1 UNK         0.0000 
     68 H68        -0.9354   50.2986   27.0706 H         1 UNK         0.0000 
     69 H69         1.2338   48.9326   24.7523 H         1 UNK         0.0000 
     70 H70         0.3749   48.4967   26.2108 H         1 UNK         0.0000 
     71 H71         0.2775   47.4580   24.7949 H         1 UNK         0.0000 
     72 H72        -2.6153   46.8893   23.8358 H         1 UNK         0.0000 
@<TRIPOS>BOND
     1    1    2 1    
     2    1   40 1    
     3    1   41 1    
     4    1   42 1    
     5    2    3 1    
     6    2   43 1    
     7    2   44 1    
     8    3    4 1    
     9    3   45 1    
    10    3   46 1    
    11    4    5 1    
    12    4   47 1    
    13    4   48 1    
    14    5    6 1    
    15    5   49 1    
    16    5   50 1    
    17    6    7 1    
    18    6    8 1    
    19    6    9 1    
    20    8   51 1    
    21    8   52 1    
    22    8   53 1    
    23    9   10 am   BACKBONE|DICT|INTERRES
    24    9   54 1    
    25   10   11 2    
    26   10   12 1    
    27   12   17 ar   
    28   12   13 ar   
    29   13   14 ar   
    30   13   55 1    
    31   14   15 ar   
    32   14   56 1    
    33   15   16 ar   
    34   15   57 1    
    35   16   17 ar   
    36   16   58 1    
    37   17   18 1    
    38   18   37 am   BACKBONE|DICT|INTERRES
    39   18   19 am   BACKBONE|DICT|INTERRES
    40   19   20 2    
    41   19   21 1    
    42   21   36 1    
    43   21   22 1    
    44   21   39 1    
    45   22   23 1    
    46   22   31 1    
    47   22   24 1    
    48   24   25 2    
    49   24   34 1    
    50   25   30 1    
    51   25   26 1    
    52   26   27 2    
    53   26   59 1    
    54   27   28 1    
    55   27   32 1    
    56   28   29 2    
    57   28   60 1    
    58   29   30 1    
    59   29   61 1    
    60   30   31 2    
    61   31   72 1    
    62   32   33 1    
    63   33   62 1    
    64   33   63 1    
    65   33   64 1    
    66   34   35 1    
    67   34   65 1    
    68   34   66 1    
    69   35   36 1    
    70   35   67 1    
    71   35   68 1    
    72   36   37 am   BACKBONE|DICT|INTERRES
    73   37   38 2    
    74   39   69 1    
    75   39   70 1    
    76   39   71 1    
@<TRIPOS>SUBSTRUCTURE
     1 UNK         1 GROUP             0       ****    0 ROOT    
