@<TRIPOS>MOLECULE
ZINC39677318_2208
63   67    1
SMALL
USER_CHARGES


@<TRIPOS>ATOM
      1 C1          1.5243   50.9075   17.1266 C.3       1 UNK         0.0000 
      2 C2          1.5808   50.1265   18.4224 C.2       1 UNK         0.0000 
      3 C3          1.8691   48.7561   18.4817 C.2       1 UNK         0.0000 
      4 C4          1.9044   48.2459   19.7617 C.2       1 UNK         0.0000 
      5 S5          1.6676   49.4767   20.9363 S.3       1 UNK         0.0000 
      6 C6          1.4711   50.7000   19.6977 C.2       1 UNK         0.0000 
      7 C7          1.2165   52.1652   20.0218 C.3       1 UNK         0.0000 
      8 N8          1.3088   52.4967   21.4424 N.am      1 UNK         0.0000 
      9 C9          0.2953   52.4435   22.3251 C.2       1 UNK         0.0000 
     10 O10        -0.8379   52.0967   21.9904 O.2       1 UNK         0.0000 
     11 C11         0.5116   52.9337   23.7837 C.3       1 UNK         0.0000 
     12 H12        -0.0821   53.8417   23.9008 H         1 UNK         0.0000 
     13 C13         1.9784   53.3429   24.0070 C.3       1 UNK         0.0000 
     14 N14         2.1780   53.2187   25.4496 N.am      1 UNK         0.0000 
     15 C15         1.0622   52.4963   26.0742 C.3       1 UNK         0.0000 
     16 C16         0.2329   51.8955   24.9018 C.3       1 UNK         0.0000 
     17 C17        -1.2791   51.7541   25.2052 C.3       1 UNK         0.0000 
     18 C18        -1.5323   50.8278   26.4077 C.3       1 UNK         0.0000 
     19 N19        -0.9564   49.4317   26.0817 N.4       1 UNK         0.0000 
     20 C20         0.5320   49.4386   25.6690 C.3       1 UNK         0.0000 
     21 C21         0.7046   50.4506   24.5170 C.3       1 UNK         0.0000 
     22 C22         3.2308   53.6967   26.1759 C.2       1 UNK         0.0000 
     23 O23         3.2289   53.6847   27.4087 O.2       1 UNK         0.0000 
     24 C24         4.4332   54.1430   25.4827 C.2       1 UNK         0.0000 
     25 C25         5.6498   54.6078   25.9760 C.2       1 UNK         0.0000 
     26 C26         6.4785   54.8413   24.8716 C.2       1 UNK         0.0000 
     27 C27         5.7481   54.5165   23.7375 C.2       1 UNK         0.0000 
     28 O28         4.5206   54.0944   24.1270 O.3       1 UNK         0.0000 
     29 C29         5.9897   54.6149   22.2681 C.ar      1 UNK         0.0000 
     30 C30         7.1044   55.3136   21.7939 C.ar      1 UNK         0.0000 
     31 C31         7.3089   55.4631   20.4241 C.ar      1 UNK         0.0000 
     32 C32         6.3997   54.9067   19.5266 C.ar      1 UNK         0.0000 
     33 C33         5.2896   54.2020   19.9864 C.ar      1 UNK         0.0000 
     34 C34         5.0850   54.0578   21.3559 C.ar      1 UNK         0.0000 
     35 H35         0.5263   50.9005   16.6895 H         1 UNK         0.0000 
     36 H36         1.8305   51.9457   17.2507 H         1 UNK         0.0000 
     37 H37         2.2082   50.4967   16.3831 H         1 UNK         0.0000 
     38 H38         2.0512   48.1597   17.5990 H         1 UNK         0.0000 
     39 H39         2.1027   47.2334   20.0681 H         1 UNK         0.0000 
     40 H40         1.9478   52.7895   19.5066 H         1 UNK         0.0000 
     41 H41         0.2534   52.4837   19.6180 H         1 UNK         0.0000 
     42 H42         2.1932   52.8712   21.7451 H         1 UNK         0.0000 
     43 H43         2.6533   52.6075   23.5649 H         1 UNK         0.0000 
     44 H44         2.1652   54.3494   23.6266 H         1 UNK         0.0000 
     45 H45         0.4496   53.2486   26.5720 H         1 UNK         0.0000 
     46 H46         1.3406   51.7697   26.8363 H         1 UNK         0.0000 
     47 H47        -1.6922   52.7349   25.4464 H         1 UNK         0.0000 
     48 H48        -1.8348   51.4195   24.3276 H         1 UNK         0.0000 
     49 H49        -1.0435   51.1564   27.3266 H         1 UNK         0.0000 
     50 H50        -2.5935   50.6752   26.6114 H         1 UNK         0.0000 
     51 H51        -1.0771   48.8749   26.9436 H         1 UNK         0.0000 
     52 H52         1.1044   49.6731   26.5661 H         1 UNK         0.0000 
     53 H53         0.7712   48.4166   25.3695 H         1 UNK         0.0000 
     54 H54         0.1798   50.0791   23.6354 H         1 UNK         0.0000 
     55 H55         1.7556   50.4619   24.2255 H         1 UNK         0.0000 
     56 H56         5.9045   54.7492   27.0172 H         1 UNK         0.0000 
     57 H57         7.4912   55.2144   24.8815 H         1 UNK         0.0000 
     58 H58         7.8140   55.7508   22.4817 H         1 UNK         0.0000 
     59 H59         8.1733   55.9988   20.0584 H         1 UNK         0.0000 
     60 H60         6.5598   55.0166   18.4637 H         1 UNK         0.0000 
     61 H61         4.5919   53.7690   19.2835 H         1 UNK         0.0000 
     62 H62         4.2179   53.5158   21.7007 H         1 UNK         0.0000 
     63 H63        -1.5148   48.9849   25.3693 H         1 UNK         0.0000 
@<TRIPOS>BOND
     1    1    2 1    
     2    1   35 1    
     3    1   36 1    
     4    1   37 1    
     5    2    6 2    
     6    2    3 1    
     7    3    4 2    
     8    3   38 1    
     9    4    5 1    
    10    4   39 1    
    11    5    6 1    
    12    6    7 1    
    13    7    8 1    
    14    7   40 1    
    15    7   41 1    
    16    8    9 am   BACKBONE|DICT|INTERRES
    17    8   42 1    
    18    9   10 2    
    19    9   11 1    
    20   11   12 1    
    21   11   16 1    
    22   11   13 1    
    23   13   14 1    
    24   13   43 1    
    25   13   44 1    
    26   14   15 1    
    27   14   22 am   BACKBONE|DICT|INTERRES
    28   15   16 1    
    29   15   45 1    
    30   15   46 1    
    31   16   21 1    
    32   16   17 1    
    33   17   18 1    
    34   17   47 1    
    35   17   48 1    
    36   18   19 1    
    37   18   49 1    
    38   18   50 1    
    39   19   20 1    
    40   19   51 1    
    41   19   63 1    
    42   20   21 1    
    43   20   52 1    
    44   20   53 1    
    45   21   54 1    
    46   21   55 1    
    47   22   23 2    
    48   22   24 1    
    49   24   28 1    
    50   24   25 2    
    51   25   26 1    
    52   25   56 1    
    53   26   27 2    
    54   26   57 1    
    55   27   28 1    
    56   27   29 1    
    57   29   34 ar   
    58   29   30 ar   
    59   30   31 ar   
    60   30   58 1    
    61   31   32 ar   
    62   31   59 1    
    63   32   33 ar   
    64   32   60 1    
    65   33   34 ar   
    66   33   61 1    
    67   34   62 1    
@<TRIPOS>SUBSTRUCTURE
     1 UNK         1 GROUP             0       ****    0 ROOT    
