@<TRIPOS>MOLECULE
ZINC41684295_1684
45   46    1
SMALL
USER_CHARGES


@<TRIPOS>ATOM
      1 C1          4.7560   54.4968   28.6705 C.3       1 UNK         0.0000 
      2 C2          3.3114   54.1571   28.2818 C.3       1 UNK         0.0000 
      3 H3          2.7704   55.0938   28.1383 H         1 UNK         0.0000 
      4 C4          3.2642   53.3191   26.9808 C.3       1 UNK         0.0000 
      5 N5          1.9111   52.7355   26.8007 N.am      1 UNK         0.0000 
      6 C6          1.4326   51.9912   27.9815 C.3       1 UNK         0.0000 
      7 C7          1.4168   52.9527   29.2085 C.3       1 UNK         0.0000 
      8 O8          2.7445   53.4476   29.3814 O.3       1 UNK         0.0000 
      9 C9          0.4029   54.0968   29.0585 C.3       1 UNK         0.0000 
     10 C10         1.1634   52.1539   30.4882 C.3       1 UNK         0.0000 
     11 C11         1.2236   52.9455   25.6335 C.2       1 UNK         0.0000 
     12 O12         1.7035   53.6957   24.7759 O.2       1 UNK         0.0000 
     13 C13        -0.0998   52.1732   25.2440 C.3       1 UNK         0.0000 
     14 C14        -1.2413   52.3722   26.3119 C.3       1 UNK         0.0000 
     15 C15        -2.5898   52.4788   25.5748 C.3       1 UNK         0.0000 
     16 C16        -2.2666   52.5035   24.0834 C.3       1 UNK         0.0000 
     17 C17        -0.7871   52.8794   24.0212 C.3       1 UNK         0.0000 
     18 C18         0.3049   50.7056   24.9090 C.2       1 UNK         0.0000 
     19 N19        -0.0988   49.7824   25.6860 N.2       1 UNK         0.0000 
     20 O20         0.2968   48.4967   25.2819 O.3       1 UNK         0.0000 
     21 N21         1.0915   50.5748   23.7722 N.pl3     1 UNK         0.0000 
     22 H22         5.2641   55.0431   27.8761 H         1 UNK         0.0000 
     23 H23         4.7874   55.1172   29.5666 H         1 UNK         0.0000 
     24 H24         5.3338   53.5948   28.8766 H         1 UNK         0.0000 
     25 H25         3.9710   52.4968   27.0835 H         1 UNK         0.0000 
     26 H26         3.6112   53.9218   26.1403 H         1 UNK         0.0000 
     27 H27         0.5352   51.3976   27.8482 H         1 UNK         0.0000 
     28 H28         2.1953   51.2330   28.1649 H         1 UNK         0.0000 
     29 H29        -0.6132   53.7179   29.1256 H         1 UNK         0.0000 
     30 H30         0.5270   54.8265   29.8593 H         1 UNK         0.0000 
     31 H31         0.5044   54.6353   28.1166 H         1 UNK         0.0000 
     32 H32         0.1728   51.6972   30.4806 H         1 UNK         0.0000 
     33 H33         1.9041   51.3683   30.6147 H         1 UNK         0.0000 
     34 H34         1.2179   52.7898   31.3724 H         1 UNK         0.0000 
     35 H35        -1.1067   53.2934   26.8805 H         1 UNK         0.0000 
     36 H36        -1.3125   51.5761   27.0525 H         1 UNK         0.0000 
     37 H37        -3.1219   53.3823   25.8757 H         1 UNK         0.0000 
     38 H38        -3.2394   51.6349   25.8135 H         1 UNK         0.0000 
     39 H39        -2.8961   53.2024   23.5316 H         1 UNK         0.0000 
     40 H40        -2.4172   51.5130   23.6508 H         1 UNK         0.0000 
     41 H41        -0.3530   52.6178   23.0549 H         1 UNK         0.0000 
     42 H42        -0.7162   53.9679   24.0819 H         1 UNK         0.0000 
     43 H43         0.0679   47.9528   26.0485 H         1 UNK         0.0000 
     44 H44         1.4211   49.6514   23.5279 H         1 UNK         0.0000 
     45 H45         1.5042   51.3840   23.3325 H         1 UNK         0.0000 
@<TRIPOS>BOND
     1    1    2 1    
     2    1   22 1    
     3    1   23 1    
     4    1   24 1    
     5    2    3 1    
     6    2    8 1    
     7    2    4 1    
     8    4    5 1    
     9    4   25 1    
    10    4   26 1    
    11    5    6 1    
    12    5   11 am   BACKBONE|DICT|INTERRES
    13    6    7 1    
    14    6   27 1    
    15    6   28 1    
    16    7    8 1    
    17    7    9 1    
    18    7   10 1    
    19    9   29 1    
    20    9   30 1    
    21    9   31 1    
    22   10   32 1    
    23   10   33 1    
    24   10   34 1    
    25   11   12 2    
    26   11   13 1    
    27   13   17 1    
    28   13   14 1    
    29   13   18 1    
    30   14   15 1    
    31   14   35 1    
    32   14   36 1    
    33   15   16 1    
    34   15   37 1    
    35   15   38 1    
    36   16   17 1    
    37   16   39 1    
    38   16   40 1    
    39   17   41 1    
    40   17   42 1    
    41   18   19 2    
    42   18   21 1    
    43   19   20 1    
    44   20   43 1    
    45   21   44 1    
    46   21   45 1    
@<TRIPOS>SUBSTRUCTURE
     1 UNK         1 GROUP             0       ****    0 ROOT    
