@<TRIPOS>MOLECULE
ZINC08743948_3006
59   62    1
SMALL
USER_CHARGES


@<TRIPOS>ATOM
      1 C1          1.5662   53.8543   23.1992 C.3       1 UNK         0.0000 
      2 C2          2.3263   53.7308   24.5178 C.2       1 UNK         0.0000 
      3 C3          1.9027   53.1287   25.6711 C.2       1 UNK         0.0000 
      4 C4          2.7678   53.1392   26.9727 C.3       1 UNK         0.0000 
      5 H5          3.0015   52.1060   27.2462 H         1 UNK         0.0000 
      6 C6          4.1541   53.7641   26.6786 C.2       1 UNK         0.0000 
      7 C7          4.4683   54.3158   25.4860 C.2       1 UNK         0.0000 
      8 N8          3.5592   54.3383   24.4592 N.pl3     1 UNK         0.0000 
      9 S9          6.0568   55.0124   25.0477 S.3       1 UNK         0.0000 
     10 C10         6.5168   54.0924   23.5421 C.3       1 UNK         0.0000 
     11 C11         6.3878   54.8959   22.2450 C.2       1 UNK         0.0000 
     12 O12         7.1042   55.8803   22.0806 O.2       1 UNK         0.0000 
     13 N13         5.5028   54.4221   21.3422 N.am      1 UNK         0.0000 
     14 C14         5.2580   54.8962   20.0587 C.2       1 UNK         0.0000 
     15 N15         4.3353   54.3398   19.3140 N.2       1 UNK         0.0000 
     16 C16         4.2341   54.9246   18.1359 C.2       1 UNK         0.0000 
     17 C17         5.0967   55.9907   17.8956 C.2       1 UNK         0.0000 
     18 S18         6.1062   56.2208   19.2892 S.3       1 UNK         0.0000 
     19 C19         5.1509   53.7207   27.6962 C.1       1 UNK         0.0000 
     20 N20         5.9969   53.6963   28.4816 N.1       1 UNK         0.0000 
     21 C21         2.0763   53.7082   28.2244 C.ar      1 UNK         0.0000 
     22 C22         2.1301   55.0777   28.4973 C.ar      1 UNK         0.0000 
     23 C23         1.5035   55.5994   29.6255 C.ar      1 UNK         0.0000 
     24 C24         0.8115   54.7456   30.4818 C.ar      1 UNK         0.0000 
     25 C25         0.7628   53.3758   30.2343 C.ar      1 UNK         0.0000 
     26 C26         1.4026   52.8568   29.1109 C.ar      1 UNK         0.0000 
     27 C27         0.6990   52.3125   25.7171 C.2       1 UNK         0.0000 
     28 O28        -0.1837   52.4728   26.5583 O.2       1 UNK         0.0000 
     29 N29         0.7060   51.3398   24.7821 N.am      1 UNK         0.0000 
     30 C30        -0.1649   50.2593   24.5671 C.ar      1 UNK         0.0000 
     31 C31        -1.0396   49.7669   25.5472 C.ar      1 UNK         0.0000 
     32 C32        -1.8316   48.6530   25.2822 C.ar      1 UNK         0.0000 
     33 C33        -1.7615   48.0230   24.0436 C.ar      1 UNK         0.0000 
     34 C34        -0.8940   48.5049   23.0652 C.ar      1 UNK         0.0000 
     35 C35        -0.0792   49.6228   23.3155 C.ar      1 UNK         0.0000 
     36 O36         0.8162   50.1415   22.3910 O.3       1 UNK         0.0000 
     37 C37         0.9557   49.5229   21.1171 C.3       1 UNK         0.0000 
     38 H38         0.5343   53.5158   23.2718 H         1 UNK         0.0000 
     39 H39         1.5264   54.8958   22.8777 H         1 UNK         0.0000 
     40 H40         2.0556   53.2769   22.4145 H         1 UNK         0.0000 
     41 H41         3.8045   54.8411   23.6187 H         1 UNK         0.0000 
     42 H42         5.9593   53.1566   23.4921 H         1 UNK         0.0000 
     43 H43         7.5658   53.8163   23.6399 H         1 UNK         0.0000 
     44 H44         4.9545   53.6172   21.6052 H         1 UNK         0.0000 
     45 H45         3.4980   54.5517   17.4381 H         1 UNK         0.0000 
     46 H46         5.1914   56.6144   17.0180 H         1 UNK         0.0000 
     47 H47         2.6574   55.7334   27.8250 H         1 UNK         0.0000 
     48 H48         1.5459   56.6598   29.8295 H         1 UNK         0.0000 
     49 H49         0.3141   55.1488   31.3516 H         1 UNK         0.0000 
     50 H50         0.2267   52.7200   30.9070 H         1 UNK         0.0000 
     51 H51         1.3476   51.7954   28.9159 H         1 UNK         0.0000 
     52 H52         1.4324   51.4054   24.0851 H         1 UNK         0.0000 
     53 H53        -1.0984   50.2066   26.5321 H         1 UNK         0.0000 
     54 H54        -2.4832   48.2716   26.0561 H         1 UNK         0.0000 
     55 H55        -2.3745   47.1571   23.8450 H         1 UNK         0.0000 
     56 H56        -0.8618   47.9909   22.1181 H         1 UNK         0.0000 
     57 H57         1.6902   50.0737   20.5295 H         1 UNK         0.0000 
     58 H58         1.3139   48.4975   21.2094 H         1 UNK         0.0000 
     59 H59         0.0177   49.5304   20.5607 H         1 UNK         0.0000 
@<TRIPOS>BOND
     1    1    2 1    
     2    1   38 1    
     3    1   39 1    
     4    1   40 1    
     5    2    8 1    
     6    2    3 2    
     7    3    4 1    
     8    3   27 1    
     9    4    5 1    
    10    4    6 1    
    11    4   21 1    
    12    6    7 2    
    13    6   19 1    
    14    7    8 1    
    15    7    9 1    
    16    8   41 1    
    17    9   10 1    
    18   10   11 1    
    19   10   42 1    
    20   10   43 1    
    21   11   12 2    
    22   11   13 am   BACKBONE|DICT|INTERRES
    23   13   14 am   BACKBONE|DICT|INTERRES
    24   13   44 1    
    25   14   18 1    
    26   14   15 2    
    27   15   16 1    
    28   16   17 2    
    29   16   45 1    
    30   17   18 1    
    31   17   46 1    
    32   19   20 3    
    33   21   26 ar   
    34   21   22 ar   
    35   22   23 ar   
    36   22   47 1    
    37   23   24 ar   
    38   23   48 1    
    39   24   25 ar   
    40   24   49 1    
    41   25   26 ar   
    42   25   50 1    
    43   26   51 1    
    44   27   28 2    
    45   27   29 am   BACKBONE|DICT|INTERRES
    46   29   30 1    
    47   29   52 1    
    48   30   35 ar   
    49   30   31 ar   
    50   31   32 ar   
    51   31   53 1    
    52   32   33 ar   
    53   32   54 1    
    54   33   34 ar   
    55   33   55 1    
    56   34   35 ar   
    57   34   56 1    
    58   35   36 1    
    59   36   37 1    
    60   37   57 1    
    61   37   58 1    
    62   37   59 1    
@<TRIPOS>SUBSTRUCTURE
     1 UNK         1 GROUP             0       ****    0 ROOT    
