ZINC09331020_263
                    3D
 Schrodinger Suite 2024-2.
 50 54  0  0  1  0            999 V2000
    1.4411   52.9194   29.6588 C   0  0  0  0  0  0
    0.4258   51.8437   29.2274 C   0  0  0  0  0  0
   -0.6952   51.7586   30.2688 C   0  0  0  0  0  0
   -0.1625   52.0461   27.8040 C   0  0  1  0  0  0
   -0.7950   52.9374   27.7833 H   0  0  0  0  0  0
    0.8420   52.0828   26.6528 C   0  0  1  0  0  0
    1.5044   51.2388   26.8432 H   0  0  0  0  0  0
   -0.0176   51.9774   25.4720 C   0  0  1  0  0  0
   -0.7129   52.8149   25.3398 H   0  0  0  0  0  0
    1.0089   52.1381   24.3687 C   0  0  0  0  0  0
    0.9508   51.5860   23.2705 O   0  0  0  0  0  0
    1.9369   53.0325   24.8684 N   0  0  0  0  0  0
    1.7285   53.2352   26.2181 C   0  0  0  0  0  0
    2.1957   54.0965   26.9602 O   0  0  0  0  0  0
    3.0170   53.6082   24.1106 C   0  0  0  0  0  0
    4.2035   54.0353   24.7439 C   0  0  0  0  0  0
    5.3003   54.4657   24.0041 C   0  0  0  0  0  0
    5.2275   54.4965   22.6168 C   0  0  0  0  0  0
    4.0580   54.1199   21.9654 C   0  0  0  0  0  0
    2.9588   53.6948   22.7054 C   0  0  0  0  0  0
    6.7081   55.1519   21.6170 Br  0  0  0  0  0  0
   -0.9105   50.7509   25.7456 C   0  0  1  0  0  0
   -2.1836   50.6292   24.9644 C   0  0  0  0  0  0
   -3.2792   51.4851   24.8272 C   0  0  0  0  0  0
   -4.3217   51.1298   23.9671 C   0  0  0  0  0  0
   -4.2606   49.9356   23.2415 C   0  0  0  0  0  0
   -3.1601   49.0851   23.3776 C   0  0  0  0  0  0
   -2.1311   49.4484   24.2455 C   0  0  0  0  0  0
   -0.9756   48.7538   24.5760 N   0  0  0  0  0  0
   -0.2386   49.3772   25.5100 C   0  0  0  0  0  0
    0.7618   48.9458   26.0743 O   0  0  0  0  0  0
    1.0511   53.9273   29.5110 H   0  0  0  0  0  0
    1.7046   52.8206   30.7126 H   0  0  0  0  0  0
    2.3756   52.8273   29.1067 H   0  0  0  0  0  0
    0.9608   50.8967   29.2408 H   0  0  0  0  0  0
   -1.2954   52.6610   30.2269 H   0  0  0  0  0  0
   -1.3481   50.8972   30.1182 H   0  0  0  0  0  0
   -0.3003   51.6967   31.2817 H   0  0  0  0  0  0
    4.3274   53.9822   25.8146 H   0  0  0  0  0  0
    6.2073   54.7704   24.5051 H   0  0  0  0  0  0
    3.9930   54.1718   20.8879 H   0  0  0  0  0  0
    2.0710   53.4233   22.1541 H   0  0  0  0  0  0
   -3.3317   52.4179   25.3693 H   0  0  0  0  0  0
   -5.1761   51.7820   23.8568 H   0  0  0  0  0  0
   -5.0691   49.6686   22.5764 H   0  0  0  0  0  0
   -3.1248   48.1608   22.8203 H   0  0  0  0  0  0
   -0.7512   47.8253   24.2564 H   0  0  0  0  0  0
   -1.0923   50.8968   27.2826 N   0  3  0  0  0  0
   -2.0600   51.0706   27.5104 H   0  0  0  0  0  0
   -0.8957   49.9921   27.7142 H   0  0  0  0  0  0
  1  2  1  0  0  0
  1 32  1  0  0  0
  1 33  1  0  0  0
  1 34  1  0  0  0
  2  3  1  0  0  0
  2  4  1  0  0  0
  2 35  1  0  0  0
  3 36  1  0  0  0
  3 37  1  0  0  0
  3 38  1  0  0  0
  4  5  1  0  0  0
  4  6  1  0  0  0
  4 48  1  0  0  0
  6  7  1  0  0  0
  6 13  1  0  0  0
  6  8  1  0  0  0
  8  9  1  0  0  0
  8 10  1  0  0  0
  8 22  1  0  0  0
 10 11  2  0  0  0
 10 12  1  0  0  0
 12 13  1  0  0  0
 12 15  1  0  0  0
 13 14  2  0  0  0
 15 20  2  0  0  0
 15 16  1  0  0  0
 16 17  2  0  0  0
 16 39  1  0  0  0
 17 18  1  0  0  0
 17 40  1  0  0  0
 18 19  2  0  0  0
 18 21  1  0  0  0
 19 20  1  0  0  0
 19 41  1  0  0  0
 20 42  1  0  0  0
 22 30  1  0  0  0
 22 23  1  0  0  0
 22 48  1  0  0  0
 23 28  2  0  0  0
 23 24  1  0  0  0
 24 25  2  0  0  0
 24 43  1  0  0  0
 25 26  1  0  0  0
 25 44  1  0  0  0
 26 27  2  0  0  0
 26 45  1  0  0  0
 27 28  1  0  0  0
 27 46  1  0  0  0
 28 29  1  0  0  0
 29 30  1  0  0  0
 29 47  1  0  0  0
 30 31  2  0  0  0
 48 49  1  0  0  0
 48 50  1  0  0  0
M  CHG  1  48   1
M  END
> <i_i_glide_confnum>
4

> <i_i_glide_lignum>
264

> <i_i_glide_posenum>
378

> <i_i_glide_rotatable_bonds>
2

> <i_m_Source_File_Index>
4078

> <b_m_subgroup_collapsed>
0

> <r_i_docking_score>
-4.56214

> <r_i_glide_ecoul>
-0.272698

> <r_i_glide_eff_state_penalty>
0

> <r_i_glide_einternal>
1.67004

> <r_i_glide_emodel>
-43.1842

> <r_i_glide_energy>
-32.8518

> <r_i_glide_erotb>
0.0968943

> <r_i_glide_esite>
-0.211213

> <r_i_glide_evdw>
-32.5791

> <r_i_glide_gscore>
-4.56214

> <r_i_glide_hbond>
-0.2

> <r_i_glide_ligand_efficiency>
-0.157315

> <r_i_glide_ligand_efficiency_ln>
-1.04461

> <r_i_glide_ligand_efficiency_sa>
-0.483322

> <r_i_glide_lipo>
-1.60039

> <r_i_glide_metal>
0

> <r_i_glide_rewards>
-0.977574

> <s_i_glide_gridfile>
wee1_glide-grid

> <s_m_Source_File>
wee1_decoys_glide_SP.sdf

> <s_m_Source_Path>
/Users/zhangxujun/Desktop

> <s_m_entry_id>
4353

> <s_m_entry_name>
wee1_decoys_glide_SP.4078

> <s_m_subgroup_title>
wee1_decoys_glide_SP

> <s_m_subgroupid>
wee1_decoys_glide_SP


$$$$
