ZINC12559781_4832
                    3D
 Schrodinger Suite 2024-2.
 57 59  0  0  1  0            999 V2000
   -2.3919   53.2833   23.8559 C   0  0  0  0  0  0
   -2.0881   51.8451   23.3859 C   0  0  0  0  0  0
   -3.2811   50.9437   23.7859 C   0  0  0  0  0  0
   -1.9515   51.7941   21.8473 C   0  0  0  0  0  0
   -0.4597   51.2930   24.1770 P   0  0  1  0  0  0
    0.6768   52.2165   23.5183 N   0  0  0  0  0  0
    1.4715   51.8687   22.4351 C   0  0  0  0  0  0
    1.1778   50.9512   21.6640 O   0  0  0  0  0  0
    2.7281   52.6900   22.2335 C   0  0  0  0  0  0
    3.2095   53.5479   23.2326 C   0  0  0  0  0  0
    4.3907   54.2551   23.0445 C   0  0  0  0  0  0
    5.0890   54.1724   21.8353 C   0  0  0  0  0  0
    4.6113   53.3176   20.8325 C   0  0  0  0  0  0
    3.4537   52.5733   21.0374 C   0  0  0  0  0  0
    6.3023   54.9945   21.6181 N   0  3  0  0  0  0
    6.8704   55.4624   22.5987 O   0  0  0  0  0  0
    6.6783   55.1903   20.4667 O   0  5  0  0  0  0
   -0.3584   51.5540   25.9924 C   0  0  0  0  0  0
    0.7519   52.1992   26.5600 C   0  0  0  0  0  0
    0.8299   52.3682   27.9462 C   0  0  0  0  0  0
   -0.1697   51.9083   28.7251 N   0  3  0  0  0  0
   -1.2618   51.2967   28.2269 C   0  0  0  0  0  0
   -1.3776   51.1120   26.8483 C   0  0  0  0  0  0
   -0.0698   49.6738   23.7930 N   0  0  0  0  0  0
   -0.9131   48.5609   23.9333 C   0  0  0  0  0  0
   -1.3940   48.1721   25.1829 C   0  0  0  0  0  0
   -2.3273   47.1456   25.2846 C   0  0  0  0  0  0
   -2.7698   46.4955   24.1338 C   0  0  0  0  0  0
   -2.2389   46.8244   22.8799 C   0  0  0  0  0  0
   -1.3023   47.8618   22.7904 C   0  0  0  0  0  0
   -2.6844   46.0539   21.6380 C   0  0  0  0  0  0
   -1.8406   46.2198   20.6153 F   0  0  0  0  0  0
   -2.7606   44.7475   21.9036 F   0  0  0  0  0  0
   -3.8879   46.4882   21.2652 F   0  0  0  0  0  0
   -1.5544   53.9576   23.6816 H   0  0  0  0  0  0
   -3.2652   53.6974   23.3479 H   0  0  0  0  0  0
   -2.6017   53.3003   24.9257 H   0  0  0  0  0  0
   -3.1376   49.9042   23.4989 H   0  0  0  0  0  0
   -3.4963   50.9738   24.8496 H   0  0  0  0  0  0
   -4.1979   51.2682   23.2909 H   0  0  0  0  0  0
   -1.6611   50.8013   21.5021 H   0  0  0  0  0  0
   -2.8909   52.0455   21.3526 H   0  0  0  0  0  0
   -1.2033   52.4954   21.4805 H   0  0  0  0  0  0
    2.6871   53.6641   24.1711 H   0  0  0  0  0  0
    4.7428   54.8967   23.8399 H   0  0  0  0  0  0
    5.1333   53.2234   19.8897 H   0  0  0  0  0  0
    3.1202   51.9177   20.2444 H   0  0  0  0  0  0
    1.5558   52.5547   25.9307 H   0  0  0  0  0  0
    1.6578   52.8407   28.4558 H   0  0  0  0  0  0
   -1.9785   50.9245   28.9495 H   0  0  0  0  0  0
   -2.2312   50.5737   26.4714 H   0  0  0  0  0  0
    0.5487   49.6174   22.9826 H   0  0  0  0  0  0
   -1.0492   48.6544   26.0813 H   0  0  0  0  0  0
   -2.7085   46.8712   26.2596 H   0  0  0  0  0  0
   -3.5212   45.7239   24.2206 H   0  0  0  0  0  0
   -0.9131   48.1563   21.8254 H   0  0  0  0  0  0
   -0.0919   52.0050   29.7289 H   0  0  0  0  0  0
  1  2  1  0  0  0
  1 35  1  0  0  0
  1 36  1  0  0  0
  1 37  1  0  0  0
  2  3  1  0  0  0
  2  4  1  0  0  0
  2  5  1  0  0  0
  3 38  1  0  0  0
  3 39  1  0  0  0
  3 40  1  0  0  0
  4 41  1  0  0  0
  4 42  1  0  0  0
  4 43  1  0  0  0
  5  6  2  0  0  0
  5 18  1  0  0  0
  5 24  1  0  0  0
  6  7  1  0  0  0
  7  8  2  0  0  0
  7  9  1  0  0  0
  9 14  2  0  0  0
  9 10  1  0  0  0
 10 11  2  0  0  0
 10 44  1  0  0  0
 11 12  1  0  0  0
 11 45  1  0  0  0
 12 13  2  0  0  0
 12 15  1  0  0  0
 13 14  1  0  0  0
 13 46  1  0  0  0
 14 47  1  0  0  0
 15 16  2  0  0  0
 15 17  1  0  0  0
 18 23  2  0  0  0
 18 19  1  0  0  0
 19 20  2  0  0  0
 19 48  1  0  0  0
 20 21  1  0  0  0
 20 49  1  0  0  0
 21 22  2  0  0  0
 21 57  1  0  0  0
 22 23  1  0  0  0
 22 50  1  0  0  0
 23 51  1  0  0  0
 24 25  1  0  0  0
 24 52  1  0  0  0
 25 30  2  0  0  0
 25 26  1  0  0  0
 26 27  2  0  0  0
 26 53  1  0  0  0
 27 28  1  0  0  0
 27 54  1  0  0  0
 28 29  2  0  0  0
 28 55  1  0  0  0
 29 30  1  0  0  0
 29 31  1  0  0  0
 30 56  1  0  0  0
 31 32  1  0  0  0
 31 33  1  0  0  0
 31 34  1  0  0  0
M  CHG  3  15   1  17  -1  21   1
M  END
> <i_i_glide_confnum>
14

> <i_i_glide_lignum>
4833

> <i_i_glide_posenum>
280

> <i_i_glide_rotatable_bonds>
8

> <i_m_Source_File_Index>
2723

> <b_m_subgroup_collapsed>
0

> <r_i_docking_score>
-3.12364

> <r_i_glide_ecoul>
-1.38178

> <r_i_glide_eff_state_penalty>
0

> <r_i_glide_einternal>
5.86289

> <r_i_glide_emodel>
-45.8956

> <r_i_glide_energy>
-38.5979

> <r_i_glide_erotb>
0.505783

> <r_i_glide_esite>
-0.0860467

> <r_i_glide_evdw>
-37.2162

> <r_i_glide_gscore>
-3.12364

> <r_i_glide_hbond>
0

> <r_i_glide_ligand_efficiency>
-0.0918717

> <r_i_glide_ligand_efficiency_ln>
-0.690099

> <r_i_glide_ligand_efficiency_sa>
-0.297629

> <r_i_glide_lipo>
-0.961013

> <r_i_glide_metal>
0

> <r_i_glide_rewards>
-0.514286

> <s_i_glide_gridfile>
wee1_glide-grid

> <s_m_Source_File>
wee1_decoys_glide_SP.sdf

> <s_m_Source_Path>
/Users/zhangxujun/Desktop

> <s_m_entry_id>
2998

> <s_m_entry_name>
wee1_decoys_glide_SP.2723

> <s_m_subgroup_title>
wee1_decoys_glide_SP

> <s_m_subgroupid>
wee1_decoys_glide_SP


$$$$
