@<TRIPOS>MOLECULE
ZINC09182676_465
57   59    1
SMALL
USER_CHARGES


@<TRIPOS>ATOM
      1 C1          6.7293   53.4665   27.9377 C.3       1 UNK         0.0000 
      2 C2          5.7246   54.4753   27.3459 C.3       1 UNK         0.0000 
      3 H3          5.8082   55.4286   27.8723 H         1 UNK         0.0000 
      4 C4          6.0567   54.7771   25.8680 C.2       1 UNK         0.0000 
      5 O5          7.1044   55.3714   25.6230 O.2       1 UNK         0.0000 
      6 N6          5.1599   54.3907   24.9337 N.am      1 UNK         0.0000 
      7 C7          5.2249   54.4602   23.5337 C.ar      1 UNK         0.0000 
      8 C8          4.0754   54.0460   22.8571 C.ar      1 UNK         0.0000 
      9 C9          4.0427   54.0398   21.4662 C.ar      1 UNK         0.0000 
     10 C10         5.1667   54.4440   20.7469 C.ar      1 UNK         0.0000 
     11 C11         6.3046   54.8969   21.4139 C.ar      1 UNK         0.0000 
     12 C12         6.3429   54.8944   22.8049 C.ar      1 UNK         0.0000 
     13 S13         5.1705   54.3358   18.9654 S.o2      1 UNK         0.0000 
     14 O14         4.3962   55.4823   18.4783 O.2       1 UNK         0.0000 
     15 O15         6.5574   54.1098   18.5464 O.2       1 UNK         0.0000 
     16 N16         4.2618   52.8966   18.5966 N.pl3     1 UNK         0.0000 
     17 O17         4.3713   54.0046   27.4541 O.3       1 UNK         0.0000 
     18 C18         3.7089   53.9837   28.6283 C.2       1 UNK         0.0000 
     19 O19         4.1933   54.2659   29.7249 O.2       1 UNK         0.0000 
     20 C20         2.2084   53.7175   28.4395 C.3       1 UNK         0.0000 
     21 H21         1.9420   54.1054   27.4570 H         1 UNK         0.0000 
     22 C22         1.3852   54.4091   29.5553 C.3       1 UNK         0.0000 
     23 C23        -0.0954   54.0520   29.4037 C.3       1 UNK         0.0000 
     24 C24        -0.2917   52.5195   29.3806 C.3       1 UNK         0.0000 
     25 N25         0.4818   52.0039   28.2291 N.am      1 UNK         0.0000 
     26 C26         1.9402   52.1829   28.4359 C.3       1 UNK         0.0000 
     27 C27        -0.0166   51.9953   26.9508 C.2       1 UNK         0.0000 
     28 O28         0.7168   52.1214   25.9666 O.2       1 UNK         0.0000 
     29 C29        -1.5094   51.8575   26.7023 C.ar      1 UNK         0.0000 
     30 C30        -2.3328   51.0637   27.5115 C.ar      1 UNK         0.0000 
     31 C31        -3.6983   50.9581   27.2573 C.ar      1 UNK         0.0000 
     32 C32        -4.2514   51.6405   26.1788 C.ar      1 UNK         0.0000 
     33 C33        -3.4466   52.4080   25.3433 C.ar      1 UNK         0.0000 
     34 C34        -2.0801   52.4960   25.5941 C.ar      1 UNK         0.0000 
     35 Cl35       -5.9471   51.5304   25.8723 Cl        1 UNK         0.0000 
     36 H36         7.7514   53.8303   27.8497 H         1 UNK         0.0000 
     37 H37         6.5458   53.3004   28.9949 H         1 UNK         0.0000 
     38 H38         6.6654   52.4971   27.4460 H         1 UNK         0.0000 
     39 H39         4.3163   53.9750   25.3051 H         1 UNK         0.0000 
     40 H40         3.2017   53.7149   23.4001 H         1 UNK         0.0000 
     41 H41         3.1536   53.7043   20.9503 H         1 UNK         0.0000 
     42 H42         7.1800   55.2084   20.8584 H         1 UNK         0.0000 
     43 H43         7.2558   55.2181   23.2786 H         1 UNK         0.0000 
     44 H44         3.4771   53.0329   17.9558 H         1 UNK         0.0000 
     45 H45         4.7978   52.0223   18.4480 H         1 UNK         0.0000 
     46 H46         1.7066   54.0844   30.5452 H         1 UNK         0.0000 
     47 H47         1.4961   55.4944   29.5103 H         1 UNK         0.0000 
     48 H48        -0.6496   54.4883   30.2307 H         1 UNK         0.0000 
     49 H49        -0.4947   54.4871   28.4879 H         1 UNK         0.0000 
     50 H50         0.1326   52.0714   30.2792 H         1 UNK         0.0000 
     51 H51        -1.3277   52.2039   29.4293 H         1 UNK         0.0000 
     52 H52         2.5117   51.6276   27.6919 H         1 UNK         0.0000 
     53 H53         2.2108   51.7255   29.3890 H         1 UNK         0.0000 
     54 H54        -1.9264   50.4967   28.3363 H         1 UNK         0.0000 
     55 H55        -4.3120   50.3341   27.8896 H         1 UNK         0.0000 
     56 H56        -3.8748   52.9252   24.4960 H         1 UNK         0.0000 
     57 H57        -1.4682   53.0893   24.9295 H         1 UNK         0.0000 
@<TRIPOS>BOND
     1    1    2 1    
     2    1   36 1    
     3    1   37 1    
     4    1   38 1    
     5    2    3 1    
     6    2    4 1    
     7    2   17 1    
     8    4    5 2    
     9    4    6 am   BACKBONE|DICT|INTERRES
    10    6    7 1    
    11    6   39 1    
    12    7   12 ar   
    13    7    8 ar   
    14    8    9 ar   
    15    8   40 1    
    16    9   10 ar   
    17    9   41 1    
    18   10   11 ar   
    19   10   13 1    
    20   11   12 ar   
    21   11   42 1    
    22   12   43 1    
    23   13   14 2    
    24   13   15 2    
    25   13   16 1    
    26   16   44 1    
    27   16   45 1    
    28   17   18 1    
    29   18   19 2    
    30   18   20 1    
    31   20   21 1    
    32   20   26 1    
    33   20   22 1    
    34   22   23 1    
    35   22   46 1    
    36   22   47 1    
    37   23   24 1    
    38   23   48 1    
    39   23   49 1    
    40   24   25 1    
    41   24   50 1    
    42   24   51 1    
    43   25   26 1    
    44   25   27 am   BACKBONE|DICT|INTERRES
    45   26   52 1    
    46   26   53 1    
    47   27   28 2    
    48   27   29 1    
    49   29   34 ar   
    50   29   30 ar   
    51   30   31 ar   
    52   30   54 1    
    53   31   32 ar   
    54   31   55 1    
    55   32   33 ar   
    56   32   35 1    
    57   33   34 ar   
    58   33   56 1    
    59   34   57 1    
@<TRIPOS>SUBSTRUCTURE
     1 UNK         1 GROUP             0       ****    0 ROOT    
