@<TRIPOS>MOLECULE
ZINC39516230_1321
52   55    1
SMALL
USER_CHARGES


@<TRIPOS>ATOM
      1 C1         -0.3839   52.0225   30.1992 C.3       1 UNK         0.0000 
      2 N2          0.8066   52.5275   29.5230 N.am      1 UNK         0.0000 
      3 C3          2.0417   52.5174   30.0494 C.2       1 UNK         0.0000 
      4 O4          2.3141   52.0970   31.1738 O.2       1 UNK         0.0000 
      5 C5          3.0776   52.9696   29.1622 C.2       1 UNK         0.0000 
      6 C6          4.4025   52.5716   29.1673 C.2       1 UNK         0.0000 
      7 C7          5.1486   53.1513   28.1386 C.2       1 UNK         0.0000 
      8 C8          4.4452   54.0509   27.3344 C.2       1 UNK         0.0000 
      9 S9          2.8319   54.2313   27.9906 S.3       1 UNK         0.0000 
     10 C10         4.9198   54.8438   26.1155 C.3       1 UNK         0.0000 
     11 H11         4.3232   55.7539   26.0814 H         1 UNK         0.0000 
     12 C12         6.4050   55.2346   26.1848 C.3       1 UNK         0.0000 
     13 C13         6.6818   55.5773   24.7457 C.3       1 UNK         0.0000 
     14 C14         5.9188   54.4831   24.0124 C.3       1 UNK         0.0000 
     15 N15         4.7073   54.1988   24.7969 N.pl3     1 UNK         0.0000 
     16 C16         3.5032   53.7702   24.1961 C.ar      1 UNK         0.0000 
     17 C17         3.4697   53.3014   22.8703 C.ar      1 UNK         0.0000 
     18 C18         2.2415   52.8577   22.3581 C.ar      1 UNK         0.0000 
     19 N19         1.1139   52.8469   23.1184 N.ar      1 UNK         0.0000 
     20 C20         1.2382   53.2978   24.3874 C.ar      1 UNK         0.0000 
     21 N21         2.3771   53.7553   24.9583 N.ar      1 UNK         0.0000 
     22 C22         2.0604   52.3405   20.9273 C.3       1 UNK         0.0000 
     23 C23         3.1067   52.8601   19.9118 C.3       1 UNK         0.0000 
     24 C24         2.7749   52.3917   18.4860 C.3       1 UNK         0.0000 
     25 N25         2.7044   50.8566   18.4731 N.4       1 UNK         0.0000 
     26 C26         1.6974   50.2597   19.4736 C.3       1 UNK         0.0000 
     27 C27         1.9789   50.7956   20.8897 C.3       1 UNK         0.0000 
     28 H28        -1.2718   52.5263   29.8221 H         1 UNK         0.0000 
     29 H29        -0.3396   52.1633   31.2811 H         1 UNK         0.0000 
     30 H30        -0.5057   50.9584   29.9940 H         1 UNK         0.0000 
     31 H31         0.6927   52.8369   28.5696 H         1 UNK         0.0000 
     32 H32         4.8056   51.8419   29.8554 H         1 UNK         0.0000 
     33 H33         6.1845   52.8953   27.9703 H         1 UNK         0.0000 
     34 H34         6.6125   56.0649   26.8575 H         1 UNK         0.0000 
     35 H35         7.0290   54.4015   26.5123 H         1 UNK         0.0000 
     36 H36         6.2985   56.5602   24.4795 H         1 UNK         0.0000 
     37 H37         7.7381   55.5827   24.4976 H         1 UNK         0.0000 
     38 H38         5.6627   54.8981   23.0369 H         1 UNK         0.0000 
     39 H39         6.5552   53.6002   23.9324 H         1 UNK         0.0000 
     40 H40         4.3636   53.2766   22.2688 H         1 UNK         0.0000 
     41 H41         0.3483   53.2923   24.9997 H         1 UNK         0.0000 
     42 H42         1.0958   52.7522   20.6187 H         1 UNK         0.0000 
     43 H43         3.1206   53.9497   19.9104 H         1 UNK         0.0000 
     44 H44         4.1094   52.5122   20.1654 H         1 UNK         0.0000 
     45 H45         1.8090   52.7575   18.1325 H         1 UNK         0.0000 
     46 H46         3.5495   52.6618   17.7643 H         1 UNK         0.0000 
     47 H47         2.4983   50.5299   17.5373 H         1 UNK         0.0000 
     48 H48         0.7096   50.5492   19.1096 H         1 UNK         0.0000 
     49 H49         1.8003   49.1757   19.4025 H         1 UNK         0.0000 
     50 H50         2.9047   50.3559   21.2639 H         1 UNK         0.0000 
     51 H51         1.1684   50.4512   21.5351 H         1 UNK         0.0000 
     52 H52         3.6475   50.4975   18.6263 H         1 UNK         0.0000 
@<TRIPOS>BOND
     1    1    2 1    
     2    1   28 1    
     3    1   29 1    
     4    1   30 1    
     5    2    3 am   BACKBONE|DICT|INTERRES
     6    2   31 1    
     7    3    4 2    
     8    3    5 1    
     9    5    9 1    
    10    5    6 2    
    11    6    7 1    
    12    6   32 1    
    13    7    8 2    
    14    7   33 1    
    15    8    9 1    
    16    8   10 1    
    17   10   11 1    
    18   10   15 1    
    19   10   12 1    
    20   12   13 1    
    21   12   34 1    
    22   12   35 1    
    23   13   14 1    
    24   13   36 1    
    25   13   37 1    
    26   14   15 1    
    27   14   38 1    
    28   14   39 1    
    29   15   16 1    
    30   16   21 ar   
    31   16   17 ar   
    32   17   18 ar   
    33   17   40 1    
    34   18   19 ar   
    35   18   22 1    
    36   19   20 ar   
    37   20   21 ar   
    38   20   41 1    
    39   22   27 1    
    40   22   23 1    
    41   22   42 1    
    42   23   24 1    
    43   23   43 1    
    44   23   44 1    
    45   24   25 1    
    46   24   45 1    
    47   24   46 1    
    48   25   26 1    
    49   25   47 1    
    50   25   52 1    
    51   26   27 1    
    52   26   48 1    
    53   26   49 1    
    54   27   50 1    
    55   27   51 1    
@<TRIPOS>SUBSTRUCTURE
     1 UNK         1 GROUP             0       ****    0 ROOT    
