ZINC34897619_3173
                    3D
 Schrodinger Suite 2024-2.
 59 62  0  0  1  0            999 V2000
    6.0508   54.7769   25.8801 C   0  0  0  0  0  0
    6.7093   54.2156   26.9684 C   0  0  0  0  0  0
    5.9841   53.7316   28.0496 C   0  0  0  0  0  0
    4.5888   53.8132   28.0507 C   0  0  0  0  0  0
    3.9299   54.3788   26.9475 C   0  0  0  0  0  0
    4.6619   54.8590   25.8647 C   0  0  0  0  0  0
    3.7984   53.2256   29.1965 C   0  0  0  0  0  0
    4.0907   52.0977   29.6052 O   0  0  0  0  0  0
    2.7364   53.9355   29.6813 N   0  0  0  0  0  0
    1.7026   53.2371   30.4821 C   0  0  0  0  0  0
    0.5762   52.6478   29.6124 C   0  0  0  0  0  0
   -0.4987   52.4357   30.1563 O   0  0  0  0  0  0
    0.8876   52.2311   28.3666 N   0  0  0  0  0  0
    0.0792   51.5927   27.4422 C   0  0  0  0  0  0
    0.5935   51.1483   26.3275 N   0  0  0  0  0  0
   -0.2910   50.5226   25.5696 C   0  0  0  0  0  0
   -1.5892   50.4976   26.0771 C   0  0  0  0  0  0
   -1.6312   51.3025   27.6172 S   0  0  0  0  0  0
    0.2203   49.9042   24.2774 C   0  0  0  0  0  0
    0.7007   50.9203   23.2304 C   0  0  0  0  0  0
    0.0644   51.9564   23.0340 O   0  0  0  0  0  0
    1.8164   50.6045   22.5501 N   0  0  0  0  0  0
    2.3596   51.3793   21.4322 C   0  0  0  0  0  0
    1.6434   51.0924   20.1170 C   0  0  0  0  0  0
    2.1597   50.1493   19.2235 C   0  0  0  0  0  0
    1.5039   49.8936   18.0208 C   0  0  0  0  0  0
    0.3432   50.5901   17.6910 C   0  0  0  0  0  0
   -0.1732   51.5581   18.5600 C   0  0  0  0  0  0
    0.4911   51.8085   19.7692 C   0  0  0  0  0  0
   -1.4451   52.3255   18.2021 C   0  0  0  0  0  0
   -2.2108   52.4957   19.2814 F   0  0  0  0  0  0
   -1.1184   53.5244   17.7191 F   0  0  0  0  0  0
   -2.1738   51.6890   17.2830 F   0  0  0  0  0  0
    2.7852   55.4143   29.6608 C   0  0  0  0  0  0
    1.6715   56.1968   28.9985 C   0  0  0  0  0  0
    1.8407   56.2722   30.4881 C   0  0  0  0  0  0
    6.6204   55.1421   25.0388 H   0  0  0  0  0  0
    7.7833   54.1400   26.9783 H   0  0  0  0  0  0
    6.5164   53.2963   28.8813 H   0  0  0  0  0  0
    2.8507   54.4359   26.9100 H   0  0  0  0  0  0
    4.1556   55.2880   25.0123 H   0  0  0  0  0  0
    1.2723   53.8146   31.2967 H   0  0  0  0  0  0
    2.1581   52.4014   31.0152 H   0  0  0  0  0  0
    1.8409   52.3688   28.0738 H   0  0  0  0  0  0
   -2.4763   50.0436   25.6626 H   0  0  0  0  0  0
   -0.5608   49.3117   23.8038 H   0  0  0  0  0  0
    1.0230   49.2006   24.5038 H   0  0  0  0  0  0
    2.2621   49.7213   22.7489 H   0  0  0  0  0  0
    3.4214   51.1559   21.3273 H   0  0  0  0  0  0
    2.3049   52.4500   21.6425 H   0  0  0  0  0  0
    3.0734   49.6155   19.4443 H   0  0  0  0  0  0
    1.9066   49.1643   17.3336 H   0  0  0  0  0  0
   -0.1434   50.3806   16.7492 H   0  0  0  0  0  0
    0.1087   52.5555   20.4510 H   0  0  0  0  0  0
    3.7986   55.8018   29.5519 H   0  0  0  0  0  0
    1.9041   57.1127   28.4625 H   0  0  0  0  0  0
    0.8266   55.6554   28.5700 H   0  0  0  0  0  0
    1.0720   55.8373   31.1210 H   0  0  0  0  0  0
    2.2251   57.2000   30.9173 H   0  0  0  0  0  0
  1  6  2  0  0  0
  1  2  1  0  0  0
  1 37  1  0  0  0
  2  3  2  0  0  0
  2 38  1  0  0  0
  3  4  1  0  0  0
  3 39  1  0  0  0
  4  5  2  0  0  0
  4  7  1  0  0  0
  5  6  1  0  0  0
  5 40  1  0  0  0
  6 41  1  0  0  0
  7  8  2  0  0  0
  7  9  1  0  0  0
  9 10  1  0  0  0
  9 34  1  0  0  0
 10 11  1  0  0  0
 10 42  1  0  0  0
 10 43  1  0  0  0
 11 12  2  0  0  0
 11 13  1  0  0  0
 13 14  1  0  0  0
 13 44  1  0  0  0
 14 18  1  0  0  0
 14 15  2  0  0  0
 15 16  1  0  0  0
 16 17  2  0  0  0
 16 19  1  0  0  0
 17 18  1  0  0  0
 17 45  1  0  0  0
 19 20  1  0  0  0
 19 46  1  0  0  0
 19 47  1  0  0  0
 20 21  2  0  0  0
 20 22  1  0  0  0
 22 23  1  0  0  0
 22 48  1  0  0  0
 23 24  1  0  0  0
 23 49  1  0  0  0
 23 50  1  0  0  0
 24 29  2  0  0  0
 24 25  1  0  0  0
 25 26  2  0  0  0
 25 51  1  0  0  0
 26 27  1  0  0  0
 26 52  1  0  0  0
 27 28  2  0  0  0
 27 53  1  0  0  0
 28 29  1  0  0  0
 28 30  1  0  0  0
 29 54  1  0  0  0
 30 31  1  0  0  0
 30 32  1  0  0  0
 30 33  1  0  0  0
 34 36  1  0  0  0
 34 35  1  0  0  0
 34 55  1  0  0  0
 35 36  1  0  0  0
 35 56  1  0  0  0
 35 57  1  0  0  0
 36 58  1  0  0  0
 36 59  1  0  0  0
M  END
> <i_i_glide_confnum>
296

> <i_i_glide_lignum>
3174

> <i_i_glide_posenum>
189

> <i_i_glide_rotatable_bonds>
13

> <i_m_Source_File_Index>
5315

> <b_m_subgroup_collapsed>
0

> <r_i_docking_score>
-5.14184

> <r_i_glide_ecoul>
-3.22925

> <r_i_glide_eff_state_penalty>
0

> <r_i_glide_einternal>
12.6407

> <r_i_glide_emodel>
-67.4436

> <r_i_glide_energy>
-55.5071

> <r_i_glide_erotb>
0.923183

> <r_i_glide_esite>
-0.104464

> <r_i_glide_evdw>
-52.2778

> <r_i_glide_gscore>
-5.14184

> <r_i_glide_hbond>
0

> <r_i_glide_ligand_efficiency>
-0.142829

> <r_i_glide_ligand_efficiency_ln>
-1.12181

> <r_i_glide_ligand_efficiency_sa>
-0.471611

> <r_i_glide_lipo>
-2.50977

> <r_i_glide_metal>
0

> <r_i_glide_rewards>
-0.352508

> <s_i_glide_gridfile>
wee1_glide-grid

> <s_m_Source_File>
wee1_decoys_glide_SP.sdf

> <s_m_Source_Path>
/Users/zhangxujun/Desktop

> <s_m_entry_id>
5590

> <s_m_entry_name>
wee1_decoys_glide_SP.5315

> <s_m_subgroup_title>
wee1_decoys_glide_SP

> <s_m_subgroupid>
wee1_decoys_glide_SP


$$$$
