@<TRIPOS>MOLECULE
ZINC58848166_6022
60   64    1
SMALL
USER_CHARGES


@<TRIPOS>ATOM
      1 C1          1.3020   53.6498   24.2432 C.3       1 UNK         0.0000 
      2 C2          2.7682   53.7298   23.8722 C.ar      1 UNK         0.0000 
      3 C3          3.6561   54.1842   24.8520 C.ar      1 UNK         0.0000 
      4 C4          4.9999   54.3783   24.5507 C.ar      1 UNK         0.0000 
      5 C5          5.4619   54.1172   23.2645 C.ar      1 UNK         0.0000 
      6 C6          4.5923   53.6399   22.2859 C.ar      1 UNK         0.0000 
      7 C7          3.2443   53.4297   22.5807 C.ar      1 UNK         0.0000 
      8 N8          2.4170   52.9774   21.5452 N.pl3     1 UNK         0.0000 
      9 S9          1.9482   51.2858   21.3567 S.o2      1 UNK         0.0000 
     10 O10         2.9333   50.4758   22.0766 O.2       1 UNK         0.0000 
     11 O11         1.6872   51.0893   19.9278 O.2       1 UNK         0.0000 
     12 C12         0.3766   51.1550   22.1909 C.ar      1 UNK         0.0000 
     13 C13        -0.7530   51.6963   21.5829 C.ar      1 UNK         0.0000 
     14 C14        -1.9562   51.7400   22.2777 C.ar      1 UNK         0.0000 
     15 C15        -2.0280   51.2752   23.5908 C.ar      1 UNK         0.0000 
     16 C16        -0.9141   50.6567   24.1974 C.ar      1 UNK         0.0000 
     17 C17         0.2809   50.5930   23.4655 C.ar      1 UNK         0.0000 
     18 C18        -0.9874   50.1111   25.6257 C.3       1 UNK         0.0000 
     19 H19        -0.8993   49.0240   25.5783 H         1 UNK         0.0000 
     20 C20         0.0631   50.7126   26.5426 C.2       1 UNK         0.0000 
     21 C21        -0.4624   51.6293   27.3736 C.2       1 UNK         0.0000 
     22 C22        -1.9581   51.7393   27.1864 C.3       1 UNK         0.0000 
     23 C23        -2.2851   50.4995   26.3448 C.3       1 UNK         0.0000 
     24 H24        -2.4975   49.6968   27.0525 H         1 UNK         0.0000 
     25 C25        -3.5382   50.5850   25.4362 C.3       1 UNK         0.0000 
     26 H26        -3.7560   49.5816   25.0648 H         1 UNK         0.0000 
     27 N27        -3.2645   51.3946   24.2468 N.pl3     1 UNK         0.0000 
     28 C28        -4.7807   50.9942   26.2385 C.ar      1 UNK         0.0000 
     29 C29        -5.3426   50.0781   27.1298 C.ar      1 UNK         0.0000 
     30 C30        -6.4470   50.4311   27.8990 C.ar      1 UNK         0.0000 
     31 C31        -7.0161   51.7067   27.7851 C.ar      1 UNK         0.0000 
     32 C32        -6.4477   52.6268   26.8912 C.ar      1 UNK         0.0000 
     33 C33        -5.3378   52.2741   26.1293 C.ar      1 UNK         0.0000 
     34 C34        -8.2152   52.0478   28.6183 C.2       1 UNK         0.0000 
     35 O35        -8.6667   51.3029   29.4917 O.2       1 UNK         0.0000 
     36 O36        -8.7753   53.2399   28.2902 O.3       1 UNK         0.0000 
     37 C37        -9.9778   53.6656   28.9133 C.3       1 UNK         0.0000 
     38 Cl38        7.1078   54.4117   22.8798 Cl        1 UNK         0.0000 
     39 H39         1.0442   54.4961   24.8744 H         1 UNK         0.0000 
     40 H40         0.6594   53.7052   23.3678 H         1 UNK         0.0000 
     41 H41         1.0965   52.7473   24.8132 H         1 UNK         0.0000 
     42 H42         3.3009   54.4101   25.8468 H         1 UNK         0.0000 
     43 H43         5.6759   54.7438   25.3091 H         1 UNK         0.0000 
     44 H44         4.9659   53.4362   21.2925 H         1 UNK         0.0000 
     45 H45         2.2802   53.5782   20.7429 H         1 UNK         0.0000 
     46 H46        -0.6889   52.1113   20.5870 H         1 UNK         0.0000 
     47 H47        -2.8237   52.1738   21.8056 H         1 UNK         0.0000 
     48 H48         1.1594   50.1591   23.9229 H         1 UNK         0.0000 
     49 H49         1.1021   50.4324   26.4809 H         1 UNK         0.0000 
     50 H50         0.0743   52.2154   28.1047 H         1 UNK         0.0000 
     51 H51        -2.2356   52.6682   26.6870 H         1 UNK         0.0000 
     52 H52        -2.4858   51.6979   28.1403 H         1 UNK         0.0000 
     53 H53        -4.0890   51.6448   23.7220 H         1 UNK         0.0000 
     54 H54        -4.9146   49.0915   27.2382 H         1 UNK         0.0000 
     55 H55        -6.8549   49.6978   28.5815 H         1 UNK         0.0000 
     56 H56        -6.8514   53.6228   26.7755 H         1 UNK         0.0000 
     57 H57        -4.9103   53.0062   25.4608 H         1 UNK         0.0000 
     58 H58       -10.2696   54.6451   28.5349 H         1 UNK         0.0000 
     59 H59        -9.8622   53.7300   29.9960 H         1 UNK         0.0000 
     60 H60       -10.7825   52.9635   28.6995 H         1 UNK         0.0000 
@<TRIPOS>BOND
     1    1    2 1    
     2    1   39 1    
     3    1   40 1    
     4    1   41 1    
     5    2    7 ar   
     6    2    3 ar   
     7    3    4 ar   
     8    3   42 1    
     9    4    5 ar   
    10    4   43 1    
    11    5    6 ar   
    12    5   38 1    
    13    6    7 ar   
    14    6   44 1    
    15    7    8 1    
    16    8    9 1    
    17    8   45 1    
    18    9   10 2    
    19    9   11 2    
    20    9   12 1    
    21   12   17 ar   
    22   12   13 ar   
    23   13   14 ar   
    24   13   46 1    
    25   14   15 ar   
    26   14   47 1    
    27   15   27 1    
    28   15   16 ar   
    29   16   17 ar   
    30   16   18 1    
    31   17   48 1    
    32   18   19 1    
    33   18   23 1    
    34   18   20 1    
    35   20   21 2    
    36   20   49 1    
    37   21   22 1    
    38   21   50 1    
    39   22   23 1    
    40   22   51 1    
    41   22   52 1    
    42   23   24 1    
    43   23   25 1    
    44   25   26 1    
    45   25   27 1    
    46   25   28 1    
    47   27   53 1    
    48   28   33 ar   
    49   28   29 ar   
    50   29   30 ar   
    51   29   54 1    
    52   30   31 ar   
    53   30   55 1    
    54   31   32 ar   
    55   31   34 1    
    56   32   33 ar   
    57   32   56 1    
    58   33   57 1    
    59   34   35 2    
    60   34   36 1    
    61   36   37 1    
    62   37   58 1    
    63   37   59 1    
    64   37   60 1    
@<TRIPOS>SUBSTRUCTURE
     1 UNK         1 GROUP             0       ****    0 ROOT    
