@<TRIPOS>MOLECULE
ZINC36970242_3880
33   35    1
SMALL
USER_CHARGES


@<TRIPOS>ATOM
      1 C1          1.6584   54.5296   29.0948 C.3       1 UNK         0.0000 
      2 C2          3.0160   54.4953   28.4199 C.ar      1 UNK         0.0000 
      3 C3          4.1967   54.4885   29.1601 C.ar      1 UNK         0.0000 
      4 C4          5.4120   54.4843   28.4818 C.ar      1 UNK         0.0000 
      5 C5          5.4224   54.4841   27.0661 C.ar      1 UNK         0.0000 
      6 C6          6.6242   54.4917   26.3250 C.ar      1 UNK         0.0000 
      7 C7          6.5864   54.4980   24.9346 C.ar      1 UNK         0.0000 
      8 C8          5.3705   54.4965   24.2615 C.ar      1 UNK         0.0000 
      9 C9          4.1541   54.4766   24.9517 C.ar      1 UNK         0.0000 
     10 C10         4.1691   54.4807   26.3778 C.ar      1 UNK         0.0000 
     11 N11         2.9901   54.4872   27.0650 N.ar      1 UNK         0.0000 
     12 O12         2.9604   54.4970   24.2571 O.3       1 UNK         0.0000 
     13 C13         2.6171   53.3811   23.5249 C.ar      1 UNK         0.0000 
     14 C14         3.0970   53.2350   22.2175 C.ar      1 UNK         0.0000 
     15 C15         2.8136   52.0830   21.4835 C.ar      1 UNK         0.0000 
     16 C16         2.0307   51.0751   22.0449 C.ar      1 UNK         0.0000 
     17 C17         1.5041   51.2337   23.3266 C.ar      1 UNK         0.0000 
     18 C18         1.7872   52.3841   24.0665 C.ar      1 UNK         0.0000 
     19 N19         1.2466   52.5118   25.3464 N.pl3     1 UNK         0.0000 
     20 Br20        1.6908   49.4767   21.0694 Br        1 UNK         0.0000 
     21 H21         1.7378   54.3804   30.1718 H         1 UNK         0.0000 
     22 H22         1.1759   55.4924   28.9214 H         1 UNK         0.0000 
     23 H23         1.0103   53.7472   28.6965 H         1 UNK         0.0000 
     24 H24         4.1843   54.4938   30.2378 H         1 UNK         0.0000 
     25 H25         6.3442   54.4948   29.0267 H         1 UNK         0.0000 
     26 H26         7.5653   54.4884   26.8527 H         1 UNK         0.0000 
     27 H27         7.5043   54.5069   24.3671 H         1 UNK         0.0000 
     28 H28         5.3781   54.5134   23.1832 H         1 UNK         0.0000 
     29 H29         3.7011   54.0119   21.7740 H         1 UNK         0.0000 
     30 H30         3.2067   51.9687   20.4830 H         1 UNK         0.0000 
     31 H31         0.8911   50.4506   23.7477 H         1 UNK         0.0000 
     32 H32         0.7204   51.7480   25.7464 H         1 UNK         0.0000 
     33 H33         1.5783   53.2752   25.9225 H         1 UNK         0.0000 
@<TRIPOS>BOND
     1    1    2 1    
     2    1   21 1    
     3    1   22 1    
     4    1   23 1    
     5    2   11 ar   
     6    2    3 ar   
     7    3    4 ar   
     8    3   24 1    
     9    4    5 ar   
    10    4   25 1    
    11    5   10 ar   
    12    5    6 ar   
    13    6    7 ar   
    14    6   26 1    
    15    7    8 ar   
    16    7   27 1    
    17    8    9 ar   
    18    8   28 1    
    19    9   10 ar   
    20    9   12 1    
    21   10   11 ar   
    22   12   13 1    
    23   13   18 ar   
    24   13   14 ar   
    25   14   15 ar   
    26   14   29 1    
    27   15   16 ar   
    28   15   30 1    
    29   16   17 ar   
    30   16   20 1    
    31   17   18 ar   
    32   17   31 1    
    33   18   19 1    
    34   19   32 1    
    35   19   33 1    
@<TRIPOS>SUBSTRUCTURE
     1 UNK         1 GROUP             0       ****    0 ROOT    
