@<TRIPOS>MOLECULE
ZINC35098011_5396
64   65    1
SMALL
USER_CHARGES


@<TRIPOS>ATOM
      1 C1         -3.7988   51.4009   27.3585 C.3       1 UNK         0.0000 
      2 C2         -2.3115   51.0787   27.1296 C.3       1 UNK         0.0000 
      3 C3         -1.5326   52.1865   26.3732 C.3       1 UNK         0.0000 
      4 H4         -1.6373   53.0901   26.9718 H         1 UNK         0.0000 
      5 C5         -2.1937   52.5084   25.0108 C.3       1 UNK         0.0000 
      6 C6          0.0121   51.9484   26.2367 C.3       1 UNK         0.0000 
      7 H7          0.4587   52.8711   25.8982 H         1 UNK         0.0000 
      8 C8          0.3066   50.7556   25.2725 C.2       1 UNK         0.0000 
      9 O9          0.0568   49.6190   25.6812 O.2       1 UNK         0.0000 
     10 N10         0.8822   50.9729   24.0539 N.am      1 UNK         0.0000 
     11 C11         1.1556   52.3052   23.4618 C.3       1 UNK         0.0000 
     12 C12         0.6491   52.3317   21.9970 C.3       1 UNK         0.0000 
     13 N13         1.2319   51.1745   21.2887 N.am      1 UNK         0.0000 
     14 C14         0.8169   49.8618   21.8346 C.3       1 UNK         0.0000 
     15 H15         1.3191   49.0655   21.2845 H         1 UNK         0.0000 
     16 C16         1.3735   49.8062   23.2800 C.3       1 UNK         0.0000 
     17 C17        -0.6913   49.5470   21.7550 C.3       1 UNK         0.0000 
     18 C18         2.3250   51.2642   20.4752 C.2       1 UNK         0.0000 
     19 O19         2.9778   50.2761   20.1376 O.2       1 UNK         0.0000 
     20 N20         2.6347   52.4963   20.0219 N.am      1 UNK         0.0000 
     21 C21         3.8157   52.8375   19.2264 C.3       1 UNK         0.0000 
     22 C22         3.6334   54.1984   18.5409 C.3       1 UNK         0.0000 
     23 C23         5.1079   52.7950   20.0646 C.3       1 UNK         0.0000 
     24 N24         0.6846   51.6137   27.5237 N.pl3     1 UNK         0.0000 
     25 S25         1.2734   52.8617   28.6196 S.o2      1 UNK         0.0000 
     26 O26         1.4801   52.2283   29.9271 O.2       1 UNK         0.0000 
     27 O27         0.4142   54.0418   28.4817 O.2       1 UNK         0.0000 
     28 C28         2.8961   53.3289   28.0004 C.ar      1 UNK         0.0000 
     29 C29         4.0402   53.1293   28.7803 C.ar      1 UNK         0.0000 
     30 C30         5.2870   53.5167   28.2916 C.ar      1 UNK         0.0000 
     31 C31         5.3895   54.0966   27.0291 C.ar      1 UNK         0.0000 
     32 C32         4.2547   54.3011   26.2506 C.ar      1 UNK         0.0000 
     33 C33         3.0089   53.9217   26.7386 C.ar      1 UNK         0.0000 
     34 Br34        7.0961   54.6056   26.3621 Br        1 UNK         0.0000 
     35 H35        -4.1290   51.0408   28.3353 H         1 UNK         0.0000 
     36 H36        -4.0015   52.4709   27.3067 H         1 UNK         0.0000 
     37 H37        -4.4188   50.9160   26.6022 H         1 UNK         0.0000 
     38 H38        -2.2528   50.1342   26.5889 H         1 UNK         0.0000 
     39 H39        -1.8454   50.8913   28.0988 H         1 UNK         0.0000 
     40 H40        -2.2267   51.6340   24.3607 H         1 UNK         0.0000 
     41 H41        -3.2187   52.8583   25.1284 H         1 UNK         0.0000 
     42 H42        -1.6512   53.2941   24.4826 H         1 UNK         0.0000 
     43 H43         0.6598   53.1293   23.9636 H         1 UNK         0.0000 
     44 H44         2.2334   52.4737   23.4795 H         1 UNK         0.0000 
     45 H45        -0.4328   52.2099   21.9999 H         1 UNK         0.0000 
     46 H46         0.8288   53.2875   21.5032 H         1 UNK         0.0000 
     47 H47         2.4640   49.8391   23.2467 H         1 UNK         0.0000 
     48 H48         1.1053   48.8484   23.7294 H         1 UNK         0.0000 
     49 H49        -0.8861   48.5482   22.1458 H         1 UNK         0.0000 
     50 H50        -1.2910   50.2247   22.3595 H         1 UNK         0.0000 
     51 H51        -1.0522   49.5745   20.7267 H         1 UNK         0.0000 
     52 H52         2.0001   53.2582   20.2088 H         1 UNK         0.0000 
     53 H53         3.9043   52.0962   18.4270 H         1 UNK         0.0000 
     54 H54         4.5110   54.4494   17.9433 H         1 UNK         0.0000 
     55 H55         2.7767   54.1986   17.8658 H         1 UNK         0.0000 
     56 H56         3.5126   55.0006   19.2698 H         1 UNK         0.0000 
     57 H57         5.9608   53.0968   19.4571 H         1 UNK         0.0000 
     58 H58         5.0618   53.4773   20.9132 H         1 UNK         0.0000 
     59 H59         5.3219   51.7874   20.4232 H         1 UNK         0.0000 
     60 H60         0.3484   50.7581   27.9753 H         1 UNK         0.0000 
     61 H61         3.9718   52.6746   29.7587 H         1 UNK         0.0000 
     62 H62         6.1794   53.3676   28.8791 H         1 UNK         0.0000 
     63 H63         4.3410   54.7506   25.2726 H         1 UNK         0.0000 
     64 H64         2.1387   54.0967   26.1321 H         1 UNK         0.0000 
@<TRIPOS>BOND
     1    1    2 1    
     2    1   35 1    
     3    1   36 1    
     4    1   37 1    
     5    2    3 1    
     6    2   38 1    
     7    2   39 1    
     8    3    4 1    
     9    3    5 1    
    10    3    6 1    
    11    5   40 1    
    12    5   41 1    
    13    5   42 1    
    14    6    7 1    
    15    6    8 1    
    16    6   24 1    
    17    8    9 2    
    18    8   10 am   BACKBONE|DICT|INTERRES
    19   10   16 1    
    20   10   11 1    
    21   11   12 1    
    22   11   43 1    
    23   11   44 1    
    24   12   13 1    
    25   12   45 1    
    26   12   46 1    
    27   13   14 1    
    28   13   18 am   BACKBONE|DICT|INTERRES
    29   14   15 1    
    30   14   16 1    
    31   14   17 1    
    32   16   47 1    
    33   16   48 1    
    34   17   49 1    
    35   17   50 1    
    36   17   51 1    
    37   18   19 2    
    38   18   20 am   BACKBONE|DICT|INTERRES
    39   20   21 1    
    40   20   52 1    
    41   21   22 1    
    42   21   23 1    
    43   21   53 1    
    44   22   54 1    
    45   22   55 1    
    46   22   56 1    
    47   23   57 1    
    48   23   58 1    
    49   23   59 1    
    50   24   25 1    
    51   24   60 1    
    52   25   26 2    
    53   25   27 2    
    54   25   28 1    
    55   28   33 ar   
    56   28   29 ar   
    57   29   30 ar   
    58   29   61 1    
    59   30   31 ar   
    60   30   62 1    
    61   31   32 ar   
    62   31   34 1    
    63   32   33 ar   
    64   32   63 1    
    65   33   64 1    
@<TRIPOS>SUBSTRUCTURE
     1 UNK         1 GROUP             0       ****    0 ROOT    
