ZINC02865615_3094
                    3D
 Schrodinger Suite 2024-2.
 63 66  0  0  1  0            999 V2000
    3.6287   52.2634   31.3113 C   0  0  0  0  0  0
    3.4992   53.0267   30.0076 C   0  0  0  0  0  0
    4.3489   52.7686   28.9333 C   0  0  0  0  0  0
    4.2153   53.5560   27.7876 C   0  0  0  0  0  0
    3.2719   54.5361   27.7089 N   0  0  0  0  0  0
    2.4979   54.7197   28.8143 C   0  0  0  0  0  0
    2.5591   54.0035   29.9658 N   0  0  0  0  0  0
    1.5041   55.8635   28.7861 C   0  0  0  0  0  0
    5.1412   53.3295   26.7592 N   0  0  0  0  0  0
    5.5045   54.4189   25.4057 S   0  0  0  0  0  0
    4.8719   55.6967   25.6817 O   0  0  0  0  0  0
    6.9546   54.3343   25.2039 O   0  0  0  0  0  0
    4.7028   53.8102   23.9264 C   0  0  0  0  0  0
    5.4925   53.4545   22.8344 C   0  0  0  0  0  0
    4.8989   52.8965   21.7075 C   0  0  0  0  0  0
    3.5270   52.6671   21.6756 C   0  0  0  0  0  0
    2.7202   53.1097   22.7379 C   0  0  0  0  0  0
    3.3113   53.6966   23.8606 C   0  0  0  0  0  0
    3.0856   51.9499   20.5503 N   0  0  0  0  0  0
    1.9429   51.2620   20.3693 C   0  0  0  0  0  0
    1.0156   51.2181   21.1781 O   0  0  0  0  0  0
    1.8907   50.4585   19.0589 C   0  0  0  0  0  0
    0.2490   49.8144   18.5837 S   0  0  0  0  0  0
   -0.5771   51.3424   18.2734 C   0  0  0  0  0  0
   -1.7034   51.6697   18.8569 N   0  0  0  0  0  0
   -2.1004   52.8967   18.3433 N   0  0  0  0  0  0
   -1.2277   53.2407   17.4254 C   0  0  0  0  0  0
   -0.2497   52.2764   17.3109 N   0  0  0  0  0  0
    0.8111   52.2541   16.4191 N   0  0  0  0  0  0
   -1.2564   54.5435   16.6272 C   0  0  0  0  0  0
   -2.6331   55.2603   16.6487 C   0  0  0  0  0  0
   -2.6374   56.6026   15.8898 C   0  0  0  0  0  0
   -1.5134   57.5387   16.3639 C   0  0  0  0  0  0
   -0.1426   56.8506   16.2647 C   0  0  0  0  0  0
   -0.1106   55.5104   17.0262 C   0  0  0  0  0  0
    4.1017   51.2969   31.1527 H   0  0  0  0  0  0
    2.6549   52.0961   31.7755 H   0  0  0  0  0  0
    4.2551   52.8176   32.0122 H   0  0  0  0  0  0
    5.1044   52.0082   29.0031 H   0  0  0  0  0  0
    1.0591   56.0402   29.7663 H   0  0  0  0  0  0
    1.9928   56.7886   28.4819 H   0  0  0  0  0  0
    0.7046   55.6491   28.0804 H   0  0  0  0  0  0
    5.7849   52.5635   26.8825 H   0  0  0  0  0  0
    6.5651   53.5759   22.8815 H   0  0  0  0  0  0
    5.5044   52.5865   20.8710 H   0  0  0  0  0  0
    1.6483   52.9841   22.7203 H   0  0  0  0  0  0
    2.6992   54.0064   24.6961 H   0  0  0  0  0  0
    3.7813   51.8342   19.8267 H   0  0  0  0  0  0
    2.3235   51.0290   18.2393 H   0  0  0  0  0  0
    2.5443   49.5944   19.1835 H   0  0  0  0  0  0
    1.7032   52.3620   16.8786 H   0  0  0  0  0  0
    0.7662   51.4621   15.7939 H   0  0  0  0  0  0
   -1.0798   54.3300   15.5712 H   0  0  0  0  0  0
   -3.4027   54.6219   16.2117 H   0  0  0  0  0  0
   -2.8954   55.4840   17.6814 H   0  0  0  0  0  0
   -2.5260   56.4147   14.8206 H   0  0  0  0  0  0
   -3.6041   57.0934   16.0113 H   0  0  0  0  0  0
   -1.5127   58.4549   15.7724 H   0  0  0  0  0  0
   -1.6951   57.8426   17.3961 H   0  0  0  0  0  0
    0.1035   56.6791   15.2156 H   0  0  0  0  0  0
    0.6322   57.5155   16.6514 H   0  0  0  0  0  0
   -0.2030   55.7532   18.0817 H   0  0  0  0  0  0
    0.8637   55.0536   16.8487 H   0  0  0  0  0  0
  1  2  1  0  0  0
  1 36  1  0  0  0
  1 37  1  0  0  0
  1 38  1  0  0  0
  2  7  2  0  0  0
  2  3  1  0  0  0
  3  4  2  0  0  0
  3 39  1  0  0  0
  4  5  1  0  0  0
  4  9  1  0  0  0
  5  6  2  0  0  0
  6  7  1  0  0  0
  6  8  1  0  0  0
  8 40  1  0  0  0
  8 41  1  0  0  0
  8 42  1  0  0  0
  9 10  1  0  0  0
  9 43  1  0  0  0
 10 11  2  0  0  0
 10 12  2  0  0  0
 10 13  1  0  0  0
 13 18  2  0  0  0
 13 14  1  0  0  0
 14 15  2  0  0  0
 14 44  1  0  0  0
 15 16  1  0  0  0
 15 45  1  0  0  0
 16 17  2  0  0  0
 16 19  1  0  0  0
 17 18  1  0  0  0
 17 46  1  0  0  0
 18 47  1  0  0  0
 19 20  1  0  0  0
 19 48  1  0  0  0
 20 21  2  0  0  0
 20 22  1  0  0  0
 22 23  1  0  0  0
 22 49  1  0  0  0
 22 50  1  0  0  0
 23 24  1  0  0  0
 24 28  1  0  0  0
 24 25  2  0  0  0
 25 26  1  0  0  0
 26 27  2  0  0  0
 27 28  1  0  0  0
 27 30  1  0  0  0
 28 29  1  0  0  0
 29 51  1  0  0  0
 29 52  1  0  0  0
 30 35  1  0  0  0
 30 31  1  0  0  0
 30 53  1  0  0  0
 31 32  1  0  0  0
 31 54  1  0  0  0
 31 55  1  0  0  0
 32 33  1  0  0  0
 32 56  1  0  0  0
 32 57  1  0  0  0
 33 34  1  0  0  0
 33 58  1  0  0  0
 33 59  1  0  0  0
 34 35  1  0  0  0
 34 60  1  0  0  0
 34 61  1  0  0  0
 35 62  1  0  0  0
 35 63  1  0  0  0
M  END
> <i_i_glide_confnum>
166

> <i_i_glide_lignum>
3095

> <i_i_glide_posenum>
70

> <i_i_glide_rotatable_bonds>
9

> <i_m_Source_File_Index>
5808

> <b_m_subgroup_collapsed>
0

> <r_i_docking_score>
-5.22997

> <r_i_glide_ecoul>
-7.41929

> <r_i_glide_eff_state_penalty>
0

> <r_i_glide_einternal>
7.36356

> <r_i_glide_emodel>
-62.3101

> <r_i_glide_energy>
-50.8124

> <r_i_glide_erotb>
0.692128

> <r_i_glide_esite>
-0.128319

> <r_i_glide_evdw>
-43.3931

> <r_i_glide_gscore>
-5.22997

> <r_i_glide_hbond>
-0.32

> <r_i_glide_ligand_efficiency>
-0.149428

> <r_i_glide_ligand_efficiency_ln>
-1.14809

> <r_i_glide_ligand_efficiency_sa>
-0.488788

> <r_i_glide_lipo>
-2.16954

> <r_i_glide_metal>
0

> <r_i_glide_rewards>
-0.0216894

> <s_i_glide_gridfile>
wee1_glide-grid

> <s_m_Source_File>
wee1_decoys_glide_SP.sdf

> <s_m_Source_Path>
/Users/zhangxujun/Desktop

> <s_m_entry_id>
6083

> <s_m_entry_name>
wee1_decoys_glide_SP.5808

> <s_m_subgroup_title>
wee1_decoys_glide_SP

> <s_m_subgroupid>
wee1_decoys_glide_SP


$$$$
