@<TRIPOS>MOLECULE
ZINC04480585_5223
46   48    1
SMALL
USER_CHARGES


@<TRIPOS>ATOM
      1 C1          3.5534   52.6867   21.4600 C.ar      1 UNK         0.0000 
      2 C2          4.8300   52.9950   21.9237 C.ar      1 UNK         0.0000 
      3 C3          5.0018   53.6970   23.1185 C.ar      1 UNK         0.0000 
      4 C4          3.8767   54.0966   23.8536 C.ar      1 UNK         0.0000 
      5 C5          2.5954   53.8353   23.3638 C.ar      1 UNK         0.0000 
      6 C6          2.4361   53.0948   22.1892 C.ar      1 UNK         0.0000 
      7 N7          1.1638   52.8361   21.6831 N.pl3     1 UNK         0.0000 
      8 C8          0.3721   51.7295   21.8102 C.2       1 UNK         0.0000 
      9 S9         -0.9647   51.6967   20.8100 S.2       1 UNK         0.0000 
     10 N10         0.7091   50.7108   22.6823 N.pl3     1 UNK         0.0000 
     11 C11         0.3545   49.2958   22.4353 C.3       1 UNK         0.0000 
     12 C12        -0.9679   48.8148   23.0941 C.3       1 UNK         0.0000 
     13 C13        -1.1752   49.1465   24.5903 C.3       1 UNK         0.0000 
     14 N14        -1.2712   50.6017   24.8430 N.pl3     1 UNK         0.0000 
     15 C15        -0.0484   51.4089   25.0036 C.3       1 UNK         0.0000 
     16 C16         1.1051   50.9559   24.0816 C.3       1 UNK         0.0000 
     17 C17        -2.3505   51.0093   25.6863 C.ar      1 UNK         0.0000 
     18 C18        -3.3662   51.8719   25.2404 C.ar      1 UNK         0.0000 
     19 C19        -4.4723   52.1149   26.0647 C.ar      1 UNK         0.0000 
     20 C20        -4.5596   51.5008   27.3243 C.ar      1 UNK         0.0000 
     21 C21        -3.4954   50.6979   27.7503 C.ar      1 UNK         0.0000 
     22 C22        -5.7768   51.6971   28.2245 C.3       1 UNK         0.0000 
     23 F23        -6.6021   50.6637   28.0718 F         1 UNK         0.0000 
     24 F24        -5.4102   51.7691   29.5056 F         1 UNK         0.0000 
     25 F25        -6.4361   52.8169   27.9204 F         1 UNK         0.0000 
     26 Cl26       -3.2956   52.6226   23.6842 Cl        1 UNK         0.0000 
     27 Cl27        4.0368   54.8963   25.3773 Cl        1 UNK         0.0000 
     28 Cl28        6.6080   54.0301   23.6704 Cl        1 UNK         0.0000 
     29 H29         3.4379   52.1425   20.5324 H         1 UNK         0.0000 
     30 H30         5.6839   52.6728   21.3516 H         1 UNK         0.0000 
     31 H31         1.7296   54.1705   23.9172 H         1 UNK         0.0000 
     32 H32         0.8639   53.5122   20.9920 H         1 UNK         0.0000 
     33 H33         0.3389   49.0857   21.3639 H         1 UNK         0.0000 
     34 H34         1.1761   48.6949   22.8289 H         1 UNK         0.0000 
     35 H35        -1.8136   49.2115   22.5302 H         1 UNK         0.0000 
     36 H36        -1.0335   47.7334   22.9642 H         1 UNK         0.0000 
     37 H37        -2.0746   48.6559   24.9682 H         1 UNK         0.0000 
     38 H38        -0.3501   48.7605   25.1924 H         1 UNK         0.0000 
     39 H39         0.2462   51.3407   26.0519 H         1 UNK         0.0000 
     40 H40        -0.3346   52.4388   24.7848 H         1 UNK         0.0000 
     41 H41         1.5041   50.0232   24.4824 H         1 UNK         0.0000 
     42 H42         1.9447   51.6316   24.1691 H         1 UNK         0.0000 
     43 H43        -5.2686   52.7552   25.7100 H         1 UNK         0.0000 
     44 H44        -3.4474   50.1689   28.6959 H         1 UNK         0.0000 
     45 N45        -2.4521   50.4891   26.9277 N.pl3     1 UNK         0.0000 
     46 H46        -1.7478   49.8229   27.2433 H         1 UNK         0.0000 
@<TRIPOS>BOND
     1    1    6 ar   
     2    1    2 ar   
     3    1   29 1    
     4    2    3 ar   
     5    2   30 1    
     6    3    4 ar   
     7    3   28 1    
     8    4    5 ar   
     9    4   27 1    
    10    5    6 ar   
    11    5   31 1    
    12    6    7 1    
    13    7    8 1    
    14    7   32 1    
    15    8    9 2    
    16    8   10 1    
    17   10   16 1    
    18   10   11 1    
    19   11   12 1    
    20   11   33 1    
    21   11   34 1    
    22   12   13 1    
    23   12   35 1    
    24   12   36 1    
    25   13   14 1    
    26   13   37 1    
    27   13   38 1    
    28   14   15 1    
    29   14   17 1    
    30   15   16 1    
    31   15   39 1    
    32   15   40 1    
    33   16   41 1    
    34   16   42 1    
    35   17   18 ar   
    36   17   45 ar   
    37   18   19 ar   
    38   18   26 1    
    39   19   20 ar   
    40   19   43 1    
    41   20   21 ar   
    42   20   22 1    
    43   21   44 1    
    44   21   45 ar   
    45   22   23 1    
    46   22   24 1    
    47   22   25 1    
    48   45   46 1    
@<TRIPOS>SUBSTRUCTURE
     1 UNK         1 GROUP             0       ****    0 ROOT    
