@<TRIPOS>MOLECULE
ZINC30982584_880
70   74    1
SMALL
USER_CHARGES


@<TRIPOS>ATOM
      1 C1          3.3398   53.4571   23.3309 C.3       1 UNK         0.0000 
      2 C2          3.8053   53.0764   21.9088 C.3       1 UNK         0.0000 
      3 H3          4.3084   52.1078   21.9720 H         1 UNK         0.0000 
      4 C4          4.8933   54.0108   21.3442 C.ar      1 UNK         0.0000 
      5 C5          4.9072   54.3812   19.9899 C.ar      1 UNK         0.0000 
      6 C6          5.9033   55.2195   19.4959 C.ar      1 UNK         0.0000 
      7 C7          6.8957   55.6933   20.3488 C.ar      1 UNK         0.0000 
      8 C8          6.8999   55.3375   21.6935 C.ar      1 UNK         0.0000 
      9 C9          5.9044   54.4972   22.1865 C.ar      1 UNK         0.0000 
     10 N10         2.6474   52.8799   21.0305 N.am      1 UNK         0.0000 
     11 C11         1.8086   51.8274   21.0854 C.2       1 UNK         0.0000 
     12 O12         1.9485   50.9014   21.8887 O.2       1 UNK         0.0000 
     13 C13         0.6147   51.8763   20.1501 C.ar      1 UNK         0.0000 
     14 C14         0.7972   52.3546   18.8412 C.ar      1 UNK         0.0000 
     15 C15        -0.2658   52.4209   17.9452 C.ar      1 UNK         0.0000 
     16 C16        -1.5328   52.0058   18.3390 C.ar      1 UNK         0.0000 
     17 C17        -1.7416   51.5293   19.6299 C.ar      1 UNK         0.0000 
     18 C18        -0.6827   51.4636   20.5541 C.ar      1 UNK         0.0000 
     19 N19        -0.8612   51.0182   21.8850 N.am      1 UNK         0.0000 
     20 C20        -1.9763   50.8018   22.6163 C.2       1 UNK         0.0000 
     21 O21        -3.1206   50.8953   22.1711 O.2       1 UNK         0.0000 
     22 C22        -1.7905   50.4407   24.1178 C.3       1 UNK         0.0000 
     23 C23        -2.7972   51.2618   24.9793 C.3       1 UNK         0.0000 
     24 C24        -2.5680   51.1031   26.4944 C.3       1 UNK         0.0000 
     25 N25        -1.0909   51.4427   26.7850 N.4       1 UNK         0.0000 
     26 C26        -0.1927   50.3683   26.1286 C.3       1 UNK         0.0000 
     27 C27        -0.3108   50.5420   24.6064 C.3       1 UNK         0.0000 
     28 C28        -0.8391   51.5183   28.3141 C.3       1 UNK         0.0000 
     29 C29         0.5002   52.1716   28.6083 C.2       1 UNK         0.0000 
     30 N30         1.2997   52.8018   27.7894 N.2       1 UNK         0.0000 
     31 C31         2.3333   53.0875   28.5582 C.2       1 UNK         0.0000 
     32 N32         2.2186   52.7228   29.8212 N.2       1 UNK         0.0000 
     33 O33         0.9750   52.0977   29.8731 O.3       1 UNK         0.0000 
     34 C34         3.5739   53.7394   28.0122 C.ar      1 UNK         0.0000 
     35 C35         4.7294   53.8173   28.7981 C.ar      1 UNK         0.0000 
     36 C36         5.9086   54.3443   28.2717 C.ar      1 UNK         0.0000 
     37 C37         5.9351   54.8107   26.9621 C.ar      1 UNK         0.0000 
     38 C38         4.7813   54.7893   26.1869 C.ar      1 UNK         0.0000 
     39 C39         3.6066   54.2505   26.7073 C.ar      1 UNK         0.0000 
     40 F40         7.0841   55.2984   26.4414 F         1 UNK         0.0000 
     41 H41         4.1376   53.2990   24.0510 H         1 UNK         0.0000 
     42 H42         3.0198   54.4988   23.3804 H         1 UNK         0.0000 
     43 H43         2.5078   52.8411   23.6751 H         1 UNK         0.0000 
     44 H44         4.1579   54.0164   19.3026 H         1 UNK         0.0000 
     45 H45         5.9095   55.4944   18.4513 H         1 UNK         0.0000 
     46 H46         7.6745   56.3313   19.9574 H         1 UNK         0.0000 
     47 H47         7.6812   55.6915   22.3512 H         1 UNK         0.0000 
     48 H48         5.9452   54.2179   23.2278 H         1 UNK         0.0000 
     49 H49         2.3564   53.6796   20.4829 H         1 UNK         0.0000 
     50 H50         1.7736   52.6715   18.4991 H         1 UNK         0.0000 
     51 H51        -0.1013   52.7865   16.9420 H         1 UNK         0.0000 
     52 H52        -2.3545   52.0444   17.6392 H         1 UNK         0.0000 
     53 H53        -2.7386   51.2046   19.8788 H         1 UNK         0.0000 
     54 H54         0.0211   50.8839   22.3634 H         1 UNK         0.0000 
     55 H55        -2.0761   49.3890   24.1806 H         1 UNK         0.0000 
     56 H56        -2.6875   52.3304   24.7862 H         1 UNK         0.0000 
     57 H57        -3.8228   50.9424   24.7875 H         1 UNK         0.0000 
     58 H58        -2.7605   50.0921   26.8651 H         1 UNK         0.0000 
     59 H59        -3.1864   51.8154   27.0431 H         1 UNK         0.0000 
     60 H60        -0.5145   49.3840   26.4810 H         1 UNK         0.0000 
     61 H61         0.8369   50.5354   26.4466 H         1 UNK         0.0000 
     62 H62         0.3127   49.7640   24.1567 H         1 UNK         0.0000 
     63 H63         0.1040   51.5339   24.4104 H         1 UNK         0.0000 
     64 H64        -1.6594   52.0931   28.7450 H         1 UNK         0.0000 
     65 H65        -0.9150   50.4967   28.6776 H         1 UNK         0.0000 
     66 H66         4.7068   53.4468   29.8111 H         1 UNK         0.0000 
     67 H67         6.8048   54.4130   28.8699 H         1 UNK         0.0000 
     68 H68         4.8039   55.1877   25.1842 H         1 UNK         0.0000 
     69 H69         2.7246   54.2209   26.0840 H         1 UNK         0.0000 
     70 H70        -0.8663   52.3588   26.4181 H         1 UNK         0.0000 
@<TRIPOS>BOND
     1    1    2 1    
     2    1   41 1    
     3    1   42 1    
     4    1   43 1    
     5    2    3 1    
     6    2    4 1    
     7    2   10 1    
     8    4    9 ar   
     9    4    5 ar   
    10    5    6 ar   
    11    5   44 1    
    12    6    7 ar   
    13    6   45 1    
    14    7    8 ar   
    15    7   46 1    
    16    8    9 ar   
    17    8   47 1    
    18    9   48 1    
    19   10   11 am   BACKBONE|DICT|INTERRES
    20   10   49 1    
    21   11   12 2    
    22   11   13 1    
    23   13   18 ar   
    24   13   14 ar   
    25   14   15 ar   
    26   14   50 1    
    27   15   16 ar   
    28   15   51 1    
    29   16   17 ar   
    30   16   52 1    
    31   17   18 ar   
    32   17   53 1    
    33   18   19 1    
    34   19   20 am   BACKBONE|DICT|INTERRES
    35   19   54 1    
    36   20   21 2    
    37   20   22 1    
    38   22   27 1    
    39   22   23 1    
    40   22   55 1    
    41   23   24 1    
    42   23   56 1    
    43   23   57 1    
    44   24   25 1    
    45   24   58 1    
    46   24   59 1    
    47   25   26 1    
    48   25   28 1    
    49   25   70 1    
    50   26   27 1    
    51   26   60 1    
    52   26   61 1    
    53   27   62 1    
    54   27   63 1    
    55   28   29 1    
    56   28   64 1    
    57   28   65 1    
    58   29   33 1    
    59   29   30 2    
    60   30   31 1    
    61   31   32 2    
    62   31   34 1    
    63   32   33 1    
    64   34   39 ar   
    65   34   35 ar   
    66   35   36 ar   
    67   35   66 1    
    68   36   37 ar   
    69   36   67 1    
    70   37   38 ar   
    71   37   40 1    
    72   38   39 ar   
    73   38   68 1    
    74   39   69 1    
@<TRIPOS>SUBSTRUCTURE
     1 UNK         1 GROUP             0       ****    0 ROOT    
