@<TRIPOS>MOLECULE
ZINC64338127_201
60   63    1
SMALL
USER_CHARGES


@<TRIPOS>ATOM
      1 C1          6.6768   53.9402   26.0920 C.3       1 UNK         0.0000 
      2 C2          5.3964   54.6450   26.5648 C.3       1 UNK         0.0000 
      3 H3          5.4345   55.6966   26.3014 H         1 UNK         0.0000 
      4 C4          4.0761   54.0257   26.1226 C.2       1 UNK         0.0000 
      5 C5          3.4223   53.5856   27.2233 C.2       1 UNK         0.0000 
      6 C6          2.1439   52.8751   27.4131 C.2       1 UNK         0.0000 
      7 C7          1.7085   52.5391   28.6436 C.2       1 UNK         0.0000 
      8 C8          2.5337   52.8981   29.7842 C.2       1 UNK         0.0000 
      9 C9          3.7168   53.5508   29.6351 C.2       1 UNK         0.0000 
     10 C10         4.1780   53.9039   28.3603 C.2       1 UNK         0.0000 
     11 N11         5.2806   54.5330   28.0301 N.pl3     1 UNK         0.0000 
     12 C12         3.6693   53.9632   24.7070 C.2       1 UNK         0.0000 
     13 C13         2.3779   53.7182   24.2206 C.2       1 UNK         0.0000 
     14 S14         2.3722   53.6964   22.4832 S.3       1 UNK         0.0000 
     15 C15         4.0489   54.0971   22.5326 C.2       1 UNK         0.0000 
     16 N16         4.5548   54.1710   23.7447 N.2       1 UNK         0.0000 
     17 N17         4.7010   54.3233   21.3236 N.am      1 UNK         0.0000 
     18 C18         5.9226   54.8891   21.1615 C.2       1 UNK         0.0000 
     19 O19         6.5992   55.3002   22.1036 O.2       1 UNK         0.0000 
     20 C20         6.5066   54.9074   19.7058 C.3       1 UNK         0.0000 
     21 H21         6.9921   53.9445   19.5919 H         1 UNK         0.0000 
     22 C22         7.6504   55.9735   19.4574 C.3       1 UNK         0.0000 
     23 C23         8.8944   55.8757   20.3620 C.3       1 UNK         0.0000 
     24 C24         8.1632   55.9585   17.9966 C.3       1 UNK         0.0000 
     25 N25         5.4558   54.8570   18.6696 N.am      1 UNK         0.0000 
     26 C26         4.7896   55.9160   18.1777 C.2       1 UNK         0.0000 
     27 O27         5.1024   57.0693   18.4681 O.2       1 UNK         0.0000 
     28 C28         3.6242   55.6387   17.2541 C.ar      1 UNK         0.0000 
     29 C29         3.0369   56.6998   16.5493 C.ar      1 UNK         0.0000 
     30 C30         1.9300   56.4838   15.7346 C.ar      1 UNK         0.0000 
     31 C31         1.3875   55.1971   15.6042 C.ar      1 UNK         0.0000 
     32 C32         1.9762   54.1393   16.2940 C.ar      1 UNK         0.0000 
     33 C33         3.0823   54.3503   17.1128 C.ar      1 UNK         0.0000 
     34 O34         0.2862   54.8886   14.8292 O.3       1 UNK         0.0000 
     35 C35        -0.3449   55.9195   14.0777 C.3       1 UNK         0.0000 
     36 H36         6.8156   53.9837   25.0118 H         1 UNK         0.0000 
     37 H37         7.5431   54.4125   26.5462 H         1 UNK         0.0000 
     38 H38         6.6859   52.8967   26.3964 H         1 UNK         0.0000 
     39 H39         1.5274   52.5598   26.5877 H         1 UNK         0.0000 
     40 H40         0.7826   51.9958   28.7805 H         1 UNK         0.0000 
     41 H41         2.1944   52.6279   30.7746 H         1 UNK         0.0000 
     42 H42         4.3035   53.7834   30.5114 H         1 UNK         0.0000 
     43 H43         1.4562   53.5557   24.7523 H         1 UNK         0.0000 
     44 H44         4.1971   54.0665   20.4868 H         1 UNK         0.0000 
     45 H45         7.2402   56.9666   19.6394 H         1 UNK         0.0000 
     46 H46         9.3604   54.8970   20.2839 H         1 UNK         0.0000 
     47 H47         9.6348   56.6102   20.0509 H         1 UNK         0.0000 
     48 H48         8.7103   56.0926   21.4110 H         1 UNK         0.0000 
     49 H49         8.5428   54.9735   17.7268 H         1 UNK         0.0000 
     50 H50         7.3906   56.2233   17.2776 H         1 UNK         0.0000 
     51 H51         8.9721   56.6741   17.8514 H         1 UNK         0.0000 
     52 H52         5.2455   53.9421   18.3004 H         1 UNK         0.0000 
     53 H53         3.4236   57.7078   16.6416 H         1 UNK         0.0000 
     54 H54         1.5050   57.3309   15.2194 H         1 UNK         0.0000 
     55 H55         1.5635   53.1454   16.1972 H         1 UNK         0.0000 
     56 H56         3.4887   53.4971   17.6396 H         1 UNK         0.0000 
     57 H57        -1.1865   55.4976   13.5269 H         1 UNK         0.0000 
     58 H58         0.3393   56.3613   13.3495 H         1 UNK         0.0000 
     59 H59        -0.7376   56.7053   14.7262 H         1 UNK         0.0000 
     60 H60         5.9889   54.8700   28.6800 H         1 UNK         0.0000 
@<TRIPOS>BOND
     1    1    2 1    
     2    1   36 1    
     3    1   37 1    
     4    1   38 1    
     5    2    3 1    
     6    2   11 1    
     7    2    4 1    
     8    4    5 2    
     9    4   12 1    
    10    5   10 1    
    11    5    6 1    
    12    6    7 2    
    13    6   39 1    
    14    7    8 1    
    15    7   40 1    
    16    8    9 2    
    17    8   41 1    
    18    9   10 1    
    19    9   42 1    
    20   10   11 2    
    21   11   60 1    
    22   12   16 1    
    23   12   13 2    
    24   13   14 1    
    25   13   43 1    
    26   14   15 1    
    27   15   16 2    
    28   15   17 am   BACKBONE|DICT|INTERRES
    29   17   18 am   BACKBONE|DICT|INTERRES
    30   17   44 1    
    31   18   19 2    
    32   18   20 1    
    33   20   21 1    
    34   20   22 1    
    35   20   25 1    
    36   22   23 1    
    37   22   24 1    
    38   22   45 1    
    39   23   46 1    
    40   23   47 1    
    41   23   48 1    
    42   24   49 1    
    43   24   50 1    
    44   24   51 1    
    45   25   26 am   BACKBONE|DICT|INTERRES
    46   25   52 1    
    47   26   27 2    
    48   26   28 1    
    49   28   33 ar   
    50   28   29 ar   
    51   29   30 ar   
    52   29   53 1    
    53   30   31 ar   
    54   30   54 1    
    55   31   32 ar   
    56   31   34 1    
    57   32   33 ar   
    58   32   55 1    
    59   33   56 1    
    60   34   35 1    
    61   35   57 1    
    62   35   58 1    
    63   35   59 1    
@<TRIPOS>SUBSTRUCTURE
     1 UNK         1 GROUP             0       ****    0 ROOT    
