@<TRIPOS>MOLECULE
ZINC46761431_39
51   54    1
SMALL
USER_CHARGES


@<TRIPOS>ATOM
      1 C1          0.2180   42.4699   17.3930 C.3       1 UNK         0.0000 
      2 C2          0.1607   43.9497   17.0949 C.2       1 UNK         0.0000 
      3 N3          0.2949   44.8830   17.9493 N.2       1 UNK         0.0000 
      4 N4          0.1879   46.1502   17.3299 N.pl3     1 UNK         0.0000 
      5 C5          0.2639   45.9530   15.8968 C.3       1 UNK         0.0000 
      6 C6         -0.0523   44.4896   15.7013 C.3       1 UNK         0.0000 
      7 C7          0.5692   47.3012   18.0443 C.ar      1 UNK         0.0000 
      8 C8          1.1327   48.3950   17.3788 C.ar      1 UNK         0.0000 
      9 C9          1.5805   49.5083   18.0844 C.ar      1 UNK         0.0000 
     10 C10         1.4667   49.5564   19.4789 C.ar      1 UNK         0.0000 
     11 C11         0.8392   48.4958   20.1406 C.ar      1 UNK         0.0000 
     12 C12         0.4010   47.3803   19.4322 C.ar      1 UNK         0.0000 
     13 C13         2.0121   50.7147   20.2804 C.2       1 UNK         0.0000 
     14 O14         1.4788   51.0162   21.3524 O.2       1 UNK         0.0000 
     15 N15         3.1045   51.3332   19.7698 N.am      1 UNK         0.0000 
     16 C16         3.7906   52.3840   20.3681 C.2       1 UNK         0.0000 
     17 N17         3.7713   52.7025   21.6397 N.2       1 UNK         0.0000 
     18 C18         4.5998   53.6861   21.9482 C.2       1 UNK         0.0000 
     19 C19         5.2895   54.2131   20.8536 C.2       1 UNK         0.0000 
     20 S20         4.8471   53.3560   19.4024 S.3       1 UNK         0.0000 
     21 C21         4.7360   54.0770   23.3807 C.ar      1 UNK         0.0000 
     22 C22         5.9938   54.3391   23.9328 C.ar      1 UNK         0.0000 
     23 C23         6.1226   54.5425   25.3061 C.ar      1 UNK         0.0000 
     24 C24         4.9960   54.4964   26.1299 C.ar      1 UNK         0.0000 
     25 C25         3.7269   54.3359   25.5606 C.ar      1 UNK         0.0000 
     26 C26         3.6018   54.1013   24.1977 C.ar      1 UNK         0.0000 
     27 N27         5.1947   54.6484   27.5127 N.am      1 UNK         0.0000 
     28 C28         4.4925   54.1196   28.5360 C.2       1 UNK         0.0000 
     29 O29         4.7030   54.4988   29.6816 O.2       1 UNK         0.0000 
     30 C30         3.4516   53.0196   28.3277 C.3       1 UNK         0.0000 
     31 H31         1.2474   42.1517   17.5627 H         1 UNK         0.0000 
     32 H32        -0.3648   42.2340   18.2829 H         1 UNK         0.0000 
     33 H33        -0.1819   41.8858   16.5636 H         1 UNK         0.0000 
     34 H34        -0.3736   46.6469   15.3473 H         1 UNK         0.0000 
     35 H35         1.2904   46.1259   15.5664 H         1 UNK         0.0000 
     36 H36        -1.0601   44.3095   15.3266 H         1 UNK         0.0000 
     37 H37         0.6599   44.0495   15.0026 H         1 UNK         0.0000 
     38 H38         1.2772   48.3803   16.3091 H         1 UNK         0.0000 
     39 H39         2.0535   50.3072   17.5298 H         1 UNK         0.0000 
     40 H40         0.7177   48.5123   21.2150 H         1 UNK         0.0000 
     41 H41        -0.0558   46.5635   19.9707 H         1 UNK         0.0000 
     42 H42         3.4573   51.0209   18.8724 H         1 UNK         0.0000 
     43 H43         6.0145   55.0123   20.8301 H         1 UNK         0.0000 
     44 H44         6.8787   54.3249   23.3127 H         1 UNK         0.0000 
     45 H45         7.1042   54.6896   25.7288 H         1 UNK         0.0000 
     46 H46         2.8320   54.3610   26.1627 H         1 UNK         0.0000 
     47 H47         2.6214   53.9220   23.7798 H         1 UNK         0.0000 
     48 H48         6.0013   55.1874   27.7907 H         1 UNK         0.0000 
     49 H49         3.6020   52.4932   27.3894 H         1 UNK         0.0000 
     50 H50         2.4463   53.4399   28.3433 H         1 UNK         0.0000 
     51 H51         3.5242   52.2842   29.1289 H         1 UNK         0.0000 
@<TRIPOS>BOND
     1    1    2 1    
     2    1   31 1    
     3    1   32 1    
     4    1   33 1    
     5    2    6 1    
     6    2    3 2    
     7    3    4 1    
     8    4    5 1    
     9    4    7 1    
    10    5    6 1    
    11    5   34 1    
    12    5   35 1    
    13    6   36 1    
    14    6   37 1    
    15    7   12 ar   
    16    7    8 ar   
    17    8    9 ar   
    18    8   38 1    
    19    9   10 ar   
    20    9   39 1    
    21   10   11 ar   
    22   10   13 1    
    23   11   12 ar   
    24   11   40 1    
    25   12   41 1    
    26   13   14 2    
    27   13   15 am   BACKBONE|DICT|INTERRES
    28   15   16 am   BACKBONE|DICT|INTERRES
    29   15   42 1    
    30   16   20 1    
    31   16   17 2    
    32   17   18 1    
    33   18   19 2    
    34   18   21 1    
    35   19   20 1    
    36   19   43 1    
    37   21   26 ar   
    38   21   22 ar   
    39   22   23 ar   
    40   22   44 1    
    41   23   24 ar   
    42   23   45 1    
    43   24   25 ar   
    44   24   27 1    
    45   25   26 ar   
    46   25   46 1    
    47   26   47 1    
    48   27   28 am   BACKBONE|DICT|INTERRES
    49   27   48 1    
    50   28   29 2    
    51   28   30 1    
    52   30   49 1    
    53   30   50 1    
    54   30   51 1    
@<TRIPOS>SUBSTRUCTURE
     1 UNK         1 GROUP             0       ****    0 ROOT    
