ZINC33306444_692
                    3D
 Schrodinger Suite 2024-2.
 47 49  0  0  1  0            999 V2000
    0.7093   52.7375   23.7520 C   0  0  0  0  0  0
    0.4729   52.2380   25.1697 C   0  0  0  0  0  0
    1.4096   52.5519   26.1559 C   0  0  0  0  0  0
    1.2620   52.1017   27.4689 C   0  0  0  0  0  0
    0.1649   51.3004   27.7883 C   0  0  0  0  0  0
   -0.7827   50.9837   26.8145 C   0  0  0  0  0  0
   -0.6397   51.4547   25.5082 C   0  0  0  0  0  0
   -1.9803   51.0195   24.2233 Br  0  0  0  0  0  0
    2.2078   52.4050   28.4569 N   0  0  0  0  0  0
    2.8373   54.0452   28.7092 S   0  0  0  0  0  0
    3.3485   54.0763   30.0817 O   0  0  0  0  0  0
    1.8271   55.0004   28.2431 O   0  0  0  0  0  0
    4.2805   54.1671   27.6284 C   0  0  0  0  0  0
    5.5699   53.7539   27.9359 C   0  0  0  0  0  0
    6.4678   53.9720   26.8823 C   0  0  0  0  0  0
    5.8663   54.5266   25.7567 C   0  0  0  0  0  0
    4.1986   54.8963   26.0615 S   0  0  0  0  0  0
    6.4694   54.8043   24.4684 C   0  0  0  0  0  0
    5.8257   54.6872   23.2929 C   0  0  0  0  0  0
    6.3186   54.9611   21.9611 C   0  0  0  0  0  0
    5.8299   54.6638   20.6934 C   0  0  0  0  0  0
    6.7164   55.2925   19.8118 C   0  0  0  0  0  0
    7.6946   55.8885   20.4546 N   0  0  0  0  0  0
    7.4517   55.6931   21.8124 O   0  0  0  0  0  0
    6.6920   55.3353   18.3004 C   0  0  0  0  0  0
    4.7041   53.9327   20.3420 N   0  0  0  0  0  0
    4.4167   52.7080   20.8302 C   0  0  0  0  0  0
    5.0895   52.1088   21.6723 O   0  0  0  0  0  0
    3.1638   52.0446   20.2730 C   0  0  0  0  0  0
    0.3580   52.0207   23.0094 H   0  0  0  0  0  0
    0.2038   53.6894   23.5945 H   0  0  0  0  0  0
    1.7738   52.8750   23.5567 H   0  0  0  0  0  0
    2.2687   53.1334   25.8836 H   0  0  0  0  0  0
    0.0312   50.9191   28.7906 H   0  0  0  0  0  0
   -1.6276   50.3623   27.0782 H   0  0  0  0  0  0
    2.2376   51.8162   29.2728 H   0  0  0  0  0  0
    5.8472   53.3053   28.8797 H   0  0  0  0  0  0
    7.5054   53.6859   26.9291 H   0  0  0  0  0  0
    7.5043   55.1108   24.4912 H   0  0  0  0  0  0
    4.8039   54.3360   23.2915 H   0  0  0  0  0  0
    5.8428   54.7925   17.8868 H   0  0  0  0  0  0
    6.6288   56.3573   17.9263 H   0  0  0  0  0  0
    7.5901   54.8886   17.8729 H   0  0  0  0  0  0
    4.1390   54.2796   19.5808 H   0  0  0  0  0  0
    3.4445   51.2843   19.5422 H   0  0  0  0  0  0
    2.5074   52.7668   19.7853 H   0  0  0  0  0  0
    2.6044   51.5621   21.0745 H   0  0  0  0  0  0
  1  2  1  0  0  0
  1 30  1  0  0  0
  1 31  1  0  0  0
  1 32  1  0  0  0
  2  7  2  0  0  0
  2  3  1  0  0  0
  3  4  2  0  0  0
  3 33  1  0  0  0
  4  5  1  0  0  0
  4  9  1  0  0  0
  5  6  2  0  0  0
  5 34  1  0  0  0
  6  7  1  0  0  0
  6 35  1  0  0  0
  7  8  1  0  0  0
  9 10  1  0  0  0
  9 36  1  0  0  0
 10 11  2  0  0  0
 10 12  2  0  0  0
 10 13  1  0  0  0
 13 17  1  0  0  0
 13 14  2  0  0  0
 14 15  1  0  0  0
 14 37  1  0  0  0
 15 16  2  0  0  0
 15 38  1  0  0  0
 16 17  1  0  0  0
 16 18  1  0  0  0
 18 19  2  0  0  0
 18 39  1  0  0  0
 19 20  1  0  0  0
 19 40  1  0  0  0
 20 24  1  0  0  0
 20 21  2  0  0  0
 21 22  1  0  0  0
 21 26  1  0  0  0
 22 23  2  0  0  0
 22 25  1  0  0  0
 23 24  1  0  0  0
 25 41  1  0  0  0
 25 42  1  0  0  0
 25 43  1  0  0  0
 26 27  1  0  0  0
 26 44  1  0  0  0
 27 28  2  0  0  0
 27 29  1  0  0  0
 29 45  1  0  0  0
 29 46  1  0  0  0
 29 47  1  0  0  0
M  END
> <i_i_glide_confnum>
139

> <i_i_glide_lignum>
693

> <i_i_glide_posenum>
221

> <i_i_glide_rotatable_bonds>
7

> <i_m_Source_File_Index>
3574

> <b_m_subgroup_collapsed>
0

> <r_i_docking_score>
-6.30263

> <r_i_glide_ecoul>
-6.60876

> <r_i_glide_eff_state_penalty>
0

> <r_i_glide_einternal>
4.0432

> <r_i_glide_emodel>
-73.8981

> <r_i_glide_energy>
-53.8206

> <r_i_glide_erotb>
0.496533

> <r_i_glide_esite>
-0.0650429

> <r_i_glide_evdw>
-47.2118

> <r_i_glide_gscore>
-6.30263

> <r_i_glide_hbond>
0

> <r_i_glide_ligand_efficiency>
-0.217332

> <r_i_glide_ligand_efficiency_ln>
-1.44314

> <r_i_glide_ligand_efficiency_sa>
-0.667713

> <r_i_glide_lipo>
-3.04101

> <r_i_glide_metal>
0

> <r_i_glide_rewards>
-0.341207

> <s_i_glide_gridfile>
wee1_glide-grid

> <s_m_Source_File>
wee1_decoys_glide_SP.sdf

> <s_m_Source_Path>
/Users/zhangxujun/Desktop

> <s_m_entry_id>
3849

> <s_m_entry_name>
wee1_decoys_glide_SP.3574

> <s_m_subgroup_title>
wee1_decoys_glide_SP

> <s_m_subgroupid>
wee1_decoys_glide_SP


$$$$
