@<TRIPOS>MOLECULE
ZINC51151381_1800
36   39    1
SMALL
USER_CHARGES


@<TRIPOS>ATOM
      1 C1          1.3144   54.4320   28.6629 C.ar      1 UNK         0.0000 
      2 C2          1.1045   54.8540   29.9758 C.ar      1 UNK         0.0000 
      3 N3          0.4559   54.0984   30.8940 N.ar      1 UNK         0.0000 
      4 C4          0.0129   52.8783   30.5065 C.ar      1 UNK         0.0000 
      5 C5          0.1803   52.3882   29.2106 C.ar      1 UNK         0.0000 
      6 C6          0.8417   53.1721   28.2454 C.ar      1 UNK         0.0000 
      7 C7          1.0284   52.6941   26.8315 C.ar      1 UNK         0.0000 
      8 N8          0.3638   51.5680   26.4573 N.ar      1 UNK         0.0000 
      9 C9          0.5146   51.1289   25.1773 C.ar      1 UNK         0.0000 
     10 C10         1.3277   51.8283   24.2512 C.ar      1 UNK         0.0000 
     11 C11         1.6988   51.5895   22.8838 C.2       1 UNK         0.0000 
     12 C12         2.5912   52.5622   22.4220 C.2       1 UNK         0.0000 
     13 S13         2.9171   53.8325   23.5772 S.3       1 UNK         0.0000 
     14 C14         1.9457   53.0041   24.7690 C.ar      1 UNK         0.0000 
     15 N15         1.8289   53.4425   26.0228 N.ar      1 UNK         0.0000 
     16 C16         3.2151   52.5753   21.0342 C.3       1 UNK         0.0000 
     17 C17         3.1098   51.1658   20.4196 C.3       1 UNK         0.0000 
     18 C18         1.6913   50.5912   20.5568 C.3       1 UNK         0.0000 
     19 C19         1.2699   50.3931   22.0311 C.3       1 UNK         0.0000 
     20 N20        -0.1221   49.9334   24.8105 N.pl3     1 UNK         0.0000 
     21 N21        -1.0048   49.1678   25.6732 N.3       1 UNK         0.0000 
     22 H22         1.8287   55.0913   27.9799 H         1 UNK         0.0000 
     23 H23         1.4471   55.8250   30.3038 H         1 UNK         0.0000 
     24 H24        -0.4939   52.2902   31.2614 H         1 UNK         0.0000 
     25 H25        -0.2050   51.4078   28.9686 H         1 UNK         0.0000 
     26 H26         4.2579   52.8928   21.0707 H         1 UNK         0.0000 
     27 H27         2.6975   53.2940   20.3997 H         1 UNK         0.0000 
     28 H28         3.8224   50.4969   20.9042 H         1 UNK         0.0000 
     29 H29         3.4008   51.2022   19.3684 H         1 UNK         0.0000 
     30 H30         1.6236   49.6417   20.0268 H         1 UNK         0.0000 
     31 H31         0.9872   51.2622   20.0624 H         1 UNK         0.0000 
     32 H32         0.1901   50.2462   22.0706 H         1 UNK         0.0000 
     33 H33         1.7252   49.4828   22.4262 H         1 UNK         0.0000 
     34 H34        -0.0498   49.5410   23.8772 H         1 UNK         0.0000 
     35 H35        -0.4961   48.7877   26.4672 H         1 UNK         0.0000 
     36 H36        -1.7737   49.7478   25.9819 H         1 UNK         0.0000 
@<TRIPOS>BOND
     1    1    6 ar   
     2    1    2 ar   
     3    1   22 1    
     4    2    3 ar   
     5    2   23 1    
     6    3    4 ar   
     7    4    5 ar   
     8    4   24 1    
     9    5    6 ar   
    10    5   25 1    
    11    6    7 1    
    12    7   15 ar   
    13    7    8 ar   
    14    8    9 ar   
    15    9   10 ar   
    16    9   20 1    
    17   10   14 ar   
    18   10   11 1    
    19   11   19 1    
    20   11   12 2    
    21   12   13 1    
    22   12   16 1    
    23   13   14 1    
    24   14   15 ar   
    25   16   17 1    
    26   16   26 1    
    27   16   27 1    
    28   17   18 1    
    29   17   28 1    
    30   17   29 1    
    31   18   19 1    
    32   18   30 1    
    33   18   31 1    
    34   19   32 1    
    35   19   33 1    
    36   20   21 1    
    37   20   34 1    
    38   21   35 1    
    39   21   36 1    
@<TRIPOS>SUBSTRUCTURE
     1 UNK         1 GROUP             0       ****    0 ROOT    
