ZINC26405847_1492
                    3D
 Schrodinger Suite 2024-2.
 53 55  0  0  1  0            999 V2000
    0.2130   48.9763   25.6482 C   0  0  0  0  0  0
   -0.0857   50.4263   25.1900 C   0  0  0  0  0  0
   -1.5611   50.4812   24.7237 C   0  0  0  0  0  0
    0.0715   51.3437   26.4279 C   0  0  0  0  0  0
    0.9050   50.8653   24.0490 C   0  0  2  0  0  0
    0.6682   52.3076   23.5013 C   0  0  0  0  0  0
    1.7145   52.6994   22.4342 C   0  0  0  0  0  0
    1.6886   51.6921   21.2560 C   0  0  2  0  0  0
    2.0579   50.2990   21.8255 C   0  0  0  0  0  0
    1.0218   49.8500   22.8707 C   0  0  0  0  0  0
    2.7061   52.0581   20.1893 C   0  0  0  0  0  0
    3.9208   52.1995   20.3606 O   0  0  0  0  0  0
    1.9998   52.1096   19.0342 N   0  0  0  0  0  0
    0.6549   52.0123   19.1990 C   0  0  0  0  0  0
   -0.2354   52.3401   18.4162 O   0  0  0  0  0  0
    0.4776   51.7016   20.4832 N   0  0  0  0  0  0
    2.6151   52.2700   17.7039 C   0  0  0  0  0  0
    3.0078   53.7353   17.4698 C   0  0  0  0  0  0
    2.2392   54.4649   16.8433 O   0  0  0  0  0  0
    4.1970   54.1106   17.9863 N   0  0  0  0  0  0
    4.7690   55.3715   17.9390 C   0  0  0  0  0  0
    5.9348   55.7175   18.6379 C   0  0  0  0  0  0
    6.1903   57.0377   18.3153 C   0  0  0  0  0  0
    5.1838   57.3906   17.4557 N   0  0  0  0  0  0
    4.3161   56.3965   17.2384 N   0  0  0  0  0  0
    4.9654   58.6730   16.8159 C   0  0  0  0  0  0
   -0.4229   48.6869   26.4817 H   0  0  0  0  0  0
    1.2481   48.8535   25.9701 H   0  0  0  0  0  0
    0.0179   48.2390   24.8718 H   0  0  0  0  0  0
   -1.8783   51.4934   24.4731 H   0  0  0  0  0  0
   -1.7367   49.8571   23.8481 H   0  0  0  0  0  0
   -2.2375   50.1261   25.5041 H   0  0  0  0  0  0
   -0.2505   52.3652   26.2286 H   0  0  0  0  0  0
   -0.5278   50.9857   27.2677 H   0  0  0  0  0  0
    1.1065   51.3841   26.7719 H   0  0  0  0  0  0
    1.9039   50.9230   24.4799 H   0  0  0  0  0  0
   -0.3361   52.3951   23.0858 H   0  0  0  0  0  0
    0.7025   53.0341   24.3127 H   0  0  0  0  0  0
    1.4400   53.6920   22.0700 H   0  0  0  0  0  0
    2.7185   52.8248   22.8442 H   0  0  0  0  0  0
    3.0846   50.2626   22.1990 H   0  0  0  0  0  0
    2.0315   49.5573   21.0241 H   0  0  0  0  0  0
    1.3258   48.8723   23.2401 H   0  0  0  0  0  0
    0.0493   49.6916   22.4036 H   0  0  0  0  0  0
   -0.3622   51.2622   20.8314 H   0  0  0  0  0  0
    3.5071   51.6443   17.6457 H   0  0  0  0  0  0
    1.9736   51.9208   16.8943 H   0  0  0  0  0  0
    4.6958   53.4153   18.5228 H   0  0  0  0  0  0
    6.5160   55.0791   19.2882 H   0  0  0  0  0  0
    6.9653   57.7365   18.5947 H   0  0  0  0  0  0
    5.8506   59.2964   16.9346 H   0  0  0  0  0  0
    4.7711   58.5329   15.7507 H   0  0  0  0  0  0
    4.1130   59.1718   17.2801 H   0  0  0  0  0  0
  1  2  1  0  0  0
  1 27  1  0  0  0
  1 28  1  0  0  0
  1 29  1  0  0  0
  2  3  1  0  0  0
  2  4  1  0  0  0
  2  5  1  0  0  0
  3 30  1  0  0  0
  3 31  1  0  0  0
  3 32  1  0  0  0
  4 33  1  0  0  0
  4 34  1  0  0  0
  4 35  1  0  0  0
  5 10  1  0  0  0
  5  6  1  0  0  0
  5 36  1  0  0  0
  6  7  1  0  0  0
  6 37  1  0  0  0
  6 38  1  0  0  0
  7  8  1  0  0  0
  7 39  1  0  0  0
  7 40  1  0  0  0
  8 16  1  0  0  0
  8  9  1  0  0  0
  8 11  1  0  0  0
  9 10  1  0  0  0
  9 41  1  0  0  0
  9 42  1  0  0  0
 10 43  1  0  0  0
 10 44  1  0  0  0
 11 12  2  0  0  0
 11 13  1  0  0  0
 13 14  1  0  0  0
 13 17  1  0  0  0
 14 15  2  0  0  0
 14 16  1  0  0  0
 16 45  1  0  0  0
 17 18  1  0  0  0
 17 46  1  0  0  0
 17 47  1  0  0  0
 18 19  2  0  0  0
 18 20  1  0  0  0
 20 21  1  0  0  0
 20 48  1  0  0  0
 21 25  2  0  0  0
 21 22  1  0  0  0
 22 23  2  0  0  0
 22 49  1  0  0  0
 23 24  1  0  0  0
 23 50  1  0  0  0
 24 25  1  0  0  0
 24 26  1  0  0  0
 26 51  1  0  0  0
 26 52  1  0  0  0
 26 53  1  0  0  0
M  END
> <i_i_glide_confnum>
3

> <i_i_glide_lignum>
1493

> <i_i_glide_posenum>
226

> <i_i_glide_rotatable_bonds>
5

> <i_m_Source_File_Index>
894

> <b_m_subgroup_collapsed>
0

> <r_i_docking_score>
-2.84984

> <r_i_glide_ecoul>
-2.70294

> <r_i_glide_eff_state_penalty>
0

> <r_i_glide_einternal>
7.05272

> <r_i_glide_emodel>
-32.4901

> <r_i_glide_energy>
-29.4145

> <r_i_glide_erotb>
0.587594

> <r_i_glide_esite>
-0.10339

> <r_i_glide_evdw>
-26.7115

> <r_i_glide_gscore>
-2.84984

> <r_i_glide_hbond>
0

> <r_i_glide_ligand_efficiency>
-0.109609

> <r_i_glide_ligand_efficiency_ln>
-0.669276

> <r_i_glide_ligand_efficiency_sa>
-0.324717

> <r_i_glide_lipo>
-0.648312

> <r_i_glide_metal>
0

> <r_i_glide_rewards>
-0.944717

> <s_i_glide_gridfile>
wee1_glide-grid

> <s_m_Source_File>
wee1_decoys_glide_SP.sdf

> <s_m_Source_Path>
/Users/zhangxujun/Desktop

> <s_m_entry_id>
1169

> <s_m_entry_name>
wee1_decoys_glide_SP.894

> <s_m_subgroup_title>
wee1_decoys_glide_SP

> <s_m_subgroupid>
wee1_decoys_glide_SP


$$$$
