@<TRIPOS>MOLECULE
ZINC35424579_4056
67   70    1
SMALL
USER_CHARGES


@<TRIPOS>ATOM
      1 C1         -0.5668   59.4872   15.4166 C.3       1 UNK         0.0000 
      2 C2         -0.5302   58.0460   15.9088 C.ar      1 UNK         0.0000 
      3 C3         -1.7307   57.3951   16.2007 C.ar      1 UNK         0.0000 
      4 C4         -1.7327   56.0779   16.6562 C.ar      1 UNK         0.0000 
      5 C5         -0.5215   55.3931   16.8364 C.ar      1 UNK         0.0000 
      6 C6          0.6779   56.0426   16.5381 C.ar      1 UNK         0.0000 
      7 C7          0.6871   57.3642   16.0796 C.ar      1 UNK         0.0000 
      8 C8          2.0233   58.0281   15.7705 C.3       1 UNK         0.0000 
      9 N9         -0.4045   54.0706   17.2990 N.am      1 UNK         0.0000 
     10 C10        -1.3224   53.2777   17.8894 C.2       1 UNK         0.0000 
     11 O11        -2.4945   53.6101   18.0788 O.2       1 UNK         0.0000 
     12 C12        -0.8514   51.8787   18.3717 C.3       1 UNK         0.0000 
     13 C13         0.6911   51.7917   18.5883 C.3       1 UNK         0.0000 
     14 C14         1.0850   50.3715   19.0501 C.3       1 UNK         0.0000 
     15 N15         0.2847   49.9308   20.2212 N.pl3     1 UNK         0.0000 
     16 C16        -1.1890   50.0910   20.1364 C.3       1 UNK         0.0000 
     17 C17        -1.5871   51.5106   19.6914 C.3       1 UNK         0.0000 
     18 S18         1.0722   49.6992   21.7934 S.o2      1 UNK         0.0000 
     19 O19         2.3042   48.9318   21.5901 O.2       1 UNK         0.0000 
     20 O20         0.0668   49.2902   22.7802 O.2       1 UNK         0.0000 
     21 C21         1.5760   51.3818   22.2177 C.2       1 UNK         0.0000 
     22 C22         2.8600   51.8962   22.0817 C.2       1 UNK         0.0000 
     23 C23         3.0475   53.1225   22.7513 C.2       1 UNK         0.0000 
     24 C24         1.8165   53.6352   23.1731 C.2       1 UNK         0.0000 
     25 S25         0.5165   52.4962   23.0033 S.3       1 UNK         0.0000 
     26 C26         4.3492   53.7738   22.8470 C.2       1 UNK         0.0000 
     27 O27         5.1150   53.6569   21.8892 O.2       1 UNK         0.0000 
     28 N28         4.7043   54.4375   23.9926 N.am      1 UNK         0.0000 
     29 C29         6.0440   55.0847   24.0526 C.3       1 UNK         0.0000 
     30 C30         6.8432   54.4350   25.1936 C.3       1 UNK         0.0000 
     31 C31         6.1249   54.6188   26.5386 C.3       1 UNK         0.0000 
     32 C32         4.7402   53.9692   26.4161 C.3       1 UNK         0.0000 
     33 C33         3.8997   54.5170   25.2410 C.3       1 UNK         0.0000 
     34 C34         6.9309   54.0246   27.7051 C.3       1 UNK         0.0000 
     35 H35        -0.1303   59.5609   14.4206 H         1 UNK         0.0000 
     36 H36        -1.5787   59.8867   15.3759 H         1 UNK         0.0000 
     37 H37         0.0197   60.1253   16.0802 H         1 UNK         0.0000 
     38 H38        -2.6740   57.9057   16.0660 H         1 UNK         0.0000 
     39 H39        -2.6859   55.6119   16.8458 H         1 UNK         0.0000 
     40 H40         1.6177   55.5256   16.6728 H         1 UNK         0.0000 
     41 H41         2.1968   58.8730   16.4394 H         1 UNK         0.0000 
     42 H42         2.8621   57.3377   15.8678 H         1 UNK         0.0000 
     43 H43         2.0311   58.4122   14.7502 H         1 UNK         0.0000 
     44 H44         0.5279   53.6927   17.2487 H         1 UNK         0.0000 
     45 H45        -1.1996   51.2062   17.5861 H         1 UNK         0.0000 
     46 H46         1.0256   52.4774   19.3701 H         1 UNK         0.0000 
     47 H47         1.2451   51.9572   17.6631 H         1 UNK         0.0000 
     48 H48         2.1414   50.3506   19.3233 H         1 UNK         0.0000 
     49 H49         0.9666   49.6327   18.2578 H         1 UNK         0.0000 
     50 H50        -1.5755   49.3264   19.4633 H         1 UNK         0.0000 
     51 H51        -1.6280   49.8792   21.1120 H         1 UNK         0.0000 
     52 H52        -2.6711   51.4905   19.5672 H         1 UNK         0.0000 
     53 H53        -1.2990   52.1743   20.5084 H         1 UNK         0.0000 
     54 H54         3.6657   51.3368   21.6261 H         1 UNK         0.0000 
     55 H55         1.6279   54.5899   23.6430 H         1 UNK         0.0000 
     56 H56         5.9046   56.1371   24.2906 H         1 UNK         0.0000 
     57 H57         6.5954   55.0615   23.1149 H         1 UNK         0.0000 
     58 H58         7.8298   54.8937   25.2424 H         1 UNK         0.0000 
     59 H59         7.0402   53.3832   24.9780 H         1 UNK         0.0000 
     60 H60         5.9908   55.6900   26.7068 H         1 UNK         0.0000 
     61 H61         4.8587   52.8966   26.3016 H         1 UNK         0.0000 
     62 H62         4.1953   54.0765   27.3526 H         1 UNK         0.0000 
     63 H63         3.6452   55.5609   25.4304 H         1 UNK         0.0000 
     64 H64         2.9884   53.9239   25.2212 H         1 UNK         0.0000 
     65 H65         7.0973   52.9542   27.5766 H         1 UNK         0.0000 
     66 H66         6.4151   54.1710   28.6532 H         1 UNK         0.0000 
     67 H67         7.9050   54.5007   27.7933 H         1 UNK         0.0000 
@<TRIPOS>BOND
     1    1    2 1    
     2    1   35 1    
     3    1   36 1    
     4    1   37 1    
     5    2    7 ar   
     6    2    3 ar   
     7    3    4 ar   
     8    3   38 1    
     9    4    5 ar   
    10    4   39 1    
    11    5    6 ar   
    12    5    9 1    
    13    6    7 ar   
    14    6   40 1    
    15    7    8 1    
    16    8   41 1    
    17    8   42 1    
    18    8   43 1    
    19    9   10 am   BACKBONE|DICT|INTERRES
    20    9   44 1    
    21   10   11 2    
    22   10   12 1    
    23   12   17 1    
    24   12   13 1    
    25   12   45 1    
    26   13   14 1    
    27   13   46 1    
    28   13   47 1    
    29   14   15 1    
    30   14   48 1    
    31   14   49 1    
    32   15   16 1    
    33   15   18 1    
    34   16   17 1    
    35   16   50 1    
    36   16   51 1    
    37   17   52 1    
    38   17   53 1    
    39   18   19 2    
    40   18   20 2    
    41   18   21 1    
    42   21   25 1    
    43   21   22 2    
    44   22   23 1    
    45   22   54 1    
    46   23   24 2    
    47   23   26 1    
    48   24   25 1    
    49   24   55 1    
    50   26   27 2    
    51   26   28 am   BACKBONE|DICT|INTERRES
    52   28   33 1    
    53   28   29 1    
    54   29   30 1    
    55   29   56 1    
    56   29   57 1    
    57   30   31 1    
    58   30   58 1    
    59   30   59 1    
    60   31   32 1    
    61   31   34 1    
    62   31   60 1    
    63   32   33 1    
    64   32   61 1    
    65   32   62 1    
    66   33   63 1    
    67   33   64 1    
    68   34   65 1    
    69   34   66 1    
    70   34   67 1    
@<TRIPOS>SUBSTRUCTURE
     1 UNK         1 GROUP             0       ****    0 ROOT    
