@<TRIPOS>MOLECULE
ZINC08685155_1044
67   72    1
SMALL
USER_CHARGES


@<TRIPOS>ATOM
      1 C1          0.7377   44.7972   15.0115 C.ar      1 UNK         0.0000 
      2 C2          2.0098   45.3543   14.9568 C.ar      1 UNK         0.0000 
      3 C3          2.3813   46.3404   15.8698 C.ar      1 UNK         0.0000 
      4 C4          1.4762   46.7587   16.8465 C.ar      1 UNK         0.0000 
      5 C5          0.1878   46.2003   16.8868 C.ar      1 UNK         0.0000 
      6 C6         -0.1780   45.2178   15.9710 C.ar      1 UNK         0.0000 
      7 N7          1.9043   47.7690   17.7256 N.am      1 UNK         0.0000 
      8 C8          1.5010   47.9546   19.0012 C.2       1 UNK         0.0000 
      9 O9          0.7363   47.1901   19.5974 O.2       1 UNK         0.0000 
     10 C10         2.0662   49.1886   19.7112 C.3       1 UNK         0.0000 
     11 S11         1.5930   49.2967   21.4722 S.3       1 UNK         0.0000 
     12 C12         2.1198   50.9343   21.8561 C.ar      1 UNK         0.0000 
     13 N13         3.0473   51.5906   21.2008 N.2       1 UNK         0.0000 
     14 N14         3.1777   52.8389   21.7920 N.2       1 UNK         0.0000 
     15 C15         2.3144   52.8920   22.7739 C.ar      1 UNK         0.0000 
     16 N16         1.5938   51.7132   22.8705 N.pl3     1 UNK         0.0000 
     17 C17         0.5601   51.3937   23.7804 C.ar      1 UNK         0.0000 
     18 C18        -0.5478   52.2394   23.8948 C.ar      1 UNK         0.0000 
     19 C19        -1.5509   51.9454   24.8099 C.ar      1 UNK         0.0000 
     20 C20        -1.4496   50.8065   25.6049 C.ar      1 UNK         0.0000 
     21 C21        -0.3527   49.9548   25.4910 C.ar      1 UNK         0.0000 
     22 C22         0.6532   50.2431   24.5739 C.ar      1 UNK         0.0000 
     23 F23        -2.4306   50.5312   26.4889 F         1 UNK         0.0000 
     24 C24         2.1532   54.1004   23.6753 C.3       1 UNK         0.0000 
     25 N25         2.1784   53.7240   25.0904 N.am      1 UNK         0.0000 
     26 C26         3.1168   54.0964   25.9768 C.2       1 UNK         0.0000 
     27 O27         4.0835   54.7901   25.6455 O.2       1 UNK         0.0000 
     28 C28         2.9417   53.6882   27.4691 C.3       1 UNK         0.0000 
     29 C29         1.7594   52.6905   27.7205 C.3       1 UNK         0.0000 
     30 C30         1.6531   52.3660   29.2371 C.3       1 UNK         0.0000 
     31 C31         2.9738   51.7323   29.7334 C.3       1 UNK         0.0000 
     32 C32         4.1699   52.6738   29.4469 C.3       1 UNK         0.0000 
     33 C33         4.2714   53.0366   27.9546 C.3       1 UNK         0.0000 
     34 C34         3.9477   53.9750   30.2336 C.3       1 UNK         0.0000 
     35 C35         2.6027   54.6390   29.8133 C.3       1 UNK         0.0000 
     36 C36         1.4157   53.6679   30.0406 C.3       1 UNK         0.0000 
     37 C37         2.6837   54.9814   28.3073 C.3       1 UNK         0.0000 
     38 H38         0.4533   44.0361   14.3003 H         1 UNK         0.0000 
     39 H39         2.7040   45.0200   14.2043 H         1 UNK         0.0000 
     40 H40         3.3724   46.7691   15.8184 H         1 UNK         0.0000 
     41 H41        -0.5432   46.5289   17.6093 H         1 UNK         0.0000 
     42 H42        -1.1696   44.7926   16.0045 H         1 UNK         0.0000 
     43 H43         2.6409   48.3733   17.3688 H         1 UNK         0.0000 
     44 H44         3.1495   49.1979   19.6240 H         1 UNK         0.0000 
     45 H45         1.6959   50.0738   19.1945 H         1 UNK         0.0000 
     46 H46        -0.6370   53.1244   23.2824 H         1 UNK         0.0000 
     47 H47        -2.4080   52.5933   24.9063 H         1 UNK         0.0000 
     48 H48        -0.2908   49.0735   26.1164 H         1 UNK         0.0000 
     49 H49         1.5031   49.5787   24.4863 H         1 UNK         0.0000 
     50 H50         2.8880   54.8771   23.4406 H         1 UNK         0.0000 
     51 H51         1.1871   54.5649   23.4835 H         1 UNK         0.0000 
     52 H52         1.4182   53.1455   25.4194 H         1 UNK         0.0000 
     53 H53         0.8123   53.1087   27.3751 H         1 UNK         0.0000 
     54 H54         1.9048   51.7646   27.1621 H         1 UNK         0.0000 
     55 H55         0.8247   51.6740   29.4067 H         1 UNK         0.0000 
     56 H56         2.9119   51.5588   30.8067 H         1 UNK         0.0000 
     57 H57         3.1218   50.7601   29.2813 H         1 UNK         0.0000 
     58 H58         5.0957   52.1901   29.7625 H         1 UNK         0.0000 
     59 H59         4.5099   52.1523   27.3793 H         1 UNK         0.0000 
     60 H60         5.1182   53.7106   27.8067 H         1 UNK         0.0000 
     61 H61         3.9825   53.6966   31.2791 H         1 UNK         0.0000 
     62 H62         4.7764   54.6683   30.0805 H         1 UNK         0.0000 
     63 H63         2.4345   55.5523   30.3853 H         1 UNK         0.0000 
     64 H64         0.4789   54.1365   29.7321 H         1 UNK         0.0000 
     65 H65         1.3000   53.4429   31.1013 H         1 UNK         0.0000 
     66 H66         3.4949   55.6906   28.1637 H         1 UNK         0.0000 
     67 H67         1.7688   55.4847   27.9936 H         1 UNK         0.0000 
@<TRIPOS>BOND
     1    1    6 ar   
     2    1    2 ar   
     3    1   38 1    
     4    2    3 ar   
     5    2   39 1    
     6    3    4 ar   
     7    3   40 1    
     8    4    5 ar   
     9    4    7 1    
    10    5    6 ar   
    11    5   41 1    
    12    6   42 1    
    13    7    8 am   BACKBONE|DICT|INTERRES
    14    7   43 1    
    15    8    9 2    
    16    8   10 1    
    17   10   11 1    
    18   10   44 1    
    19   10   45 1    
    20   11   12 1    
    21   12   16 ar   
    22   12   13 ar   
    23   13   14 ar   
    24   14   15 ar   
    25   15   16 ar   
    26   15   24 1    
    27   16   17 1    
    28   17   22 ar   
    29   17   18 ar   
    30   18   19 ar   
    31   18   46 1    
    32   19   20 ar   
    33   19   47 1    
    34   20   21 ar   
    35   20   23 1    
    36   21   22 ar   
    37   21   48 1    
    38   22   49 1    
    39   24   25 1    
    40   24   50 1    
    41   24   51 1    
    42   25   26 am   BACKBONE|DICT|INTERRES
    43   25   52 1    
    44   26   27 2    
    45   26   28 1    
    46   28   33 1    
    47   28   37 1    
    48   28   29 1    
    49   29   30 1    
    50   29   53 1    
    51   29   54 1    
    52   30   36 1    
    53   30   31 1    
    54   30   55 1    
    55   31   32 1    
    56   31   56 1    
    57   31   57 1    
    58   32   33 1    
    59   32   34 1    
    60   32   58 1    
    61   33   59 1    
    62   33   60 1    
    63   34   35 1    
    64   34   61 1    
    65   34   62 1    
    66   35   36 1    
    67   35   37 1    
    68   35   63 1    
    69   36   64 1    
    70   36   65 1    
    71   37   66 1    
    72   37   67 1    
@<TRIPOS>SUBSTRUCTURE
     1 UNK         1 GROUP             0       ****    0 ROOT    
