ZINC36836442_1537
                    3D
 Schrodinger Suite 2024-2.
 50 52  0  0  1  0            999 V2000
    3.1854   53.8118   17.7885 C   0  0  0  0  0  0
    3.8821   55.1963   17.7944 C   0  0  2  0  0  0
    3.5044   55.6968   18.6888 H   0  0  0  0  0  0
    3.4266   56.0319   16.5659 C   0  0  0  0  0  0
    4.0226   55.4945   15.2431 C   0  0  0  0  0  0
    5.5643   55.3852   15.3042 C   0  0  0  0  0  0
    6.0327   54.6241   16.5653 C   0  0  0  0  0  0
    5.4483   55.2540   17.8631 C   0  0  2  0  0  0
    5.9832   54.5084   19.0824 C   0  0  0  0  0  0
    5.9044   53.2967   19.2817 O   0  0  0  0  0  0
    6.5172   55.4516   19.8950 N   0  0  0  0  0  0
    6.4718   56.6996   19.3782 C   0  0  0  0  0  0
    6.7044   57.7527   19.9614 O   0  0  0  0  0  0
    5.9567   56.5687   18.1550 N   0  0  0  0  0  0
    7.0701   55.2192   21.2547 C   0  0  0  0  0  0
    5.9953   54.7612   22.2692 C   0  0  0  0  0  0
    4.8520   54.4967   21.8985 O   0  0  0  0  0  0
    6.4020   54.7172   23.5560 N   0  0  0  0  0  0
    5.6348   54.4967   24.7229 C   0  0  0  0  0  0
    6.3407   54.4458   25.9276 C   0  0  0  0  0  0
    5.6701   54.2949   27.1398 C   0  0  0  0  0  0
    4.2787   54.1849   27.1492 C   0  0  0  0  0  0
    3.5648   54.1960   25.9533 C   0  0  0  0  0  0
    4.2354   54.3617   24.7469 C   0  0  0  0  0  0
    3.3854   54.0538   28.6927 S   0  0  0  0  0  0
    2.0832   54.7012   28.5020 O   0  0  0  0  0  0
    4.2829   54.4967   29.7629 O   0  0  0  0  0  0
    3.1043   52.2086   28.8905 C   0  0  0  0  0  0
    3.5379   53.1721   16.9797 H   0  0  0  0  0  0
    3.3546   53.2753   18.7224 H   0  0  0  0  0  0
    2.1048   53.9137   17.6833 H   0  0  0  0  0  0
    2.3376   56.0432   16.4999 H   0  0  0  0  0  0
    3.7194   57.0756   16.6932 H   0  0  0  0  0  0
    3.5973   54.5157   15.0176 H   0  0  0  0  0  0
    3.7314   56.1431   14.4160 H   0  0  0  0  0  0
    5.9367   54.8863   14.4085 H   0  0  0  0  0  0
    5.9983   56.3862   15.2943 H   0  0  0  0  0  0
    7.1222   54.6975   16.5876 H   0  0  0  0  0  0
    5.8406   53.5501   16.5091 H   0  0  0  0  0  0
    6.0820   57.2559   17.4265 H   0  0  0  0  0  0
    7.5395   56.1227   21.6454 H   0  0  0  0  0  0
    7.8770   54.4967   21.1994 H   0  0  0  0  0  0
    7.3842   54.8923   23.7135 H   0  0  0  0  0  0
    7.4146   54.5219   25.9338 H   0  0  0  0  0  0
    6.2300   54.2790   28.0650 H   0  0  0  0  0  0
    2.4887   54.0967   25.9564 H   0  0  0  0  0  0
    3.6306   54.3960   23.8562 H   0  0  0  0  0  0
    2.5289   52.0502   29.8006 H   0  0  0  0  0  0
    4.0727   51.7157   28.9564 H   0  0  0  0  0  0
    2.5479   51.8448   28.0281 H   0  0  0  0  0  0
  1  2  1  0  0  0
  1 29  1  0  0  0
  1 30  1  0  0  0
  1 31  1  0  0  0
  2  3  1  0  0  0
  2  8  1  0  0  0
  2  4  1  0  0  0
  4  5  1  0  0  0
  4 32  1  0  0  0
  4 33  1  0  0  0
  5  6  1  0  0  0
  5 34  1  0  0  0
  5 35  1  0  0  0
  6  7  1  0  0  0
  6 36  1  0  0  0
  6 37  1  0  0  0
  7  8  1  0  0  0
  7 38  1  0  0  0
  7 39  1  0  0  0
  8 14  1  0  0  0
  8  9  1  0  0  0
  9 10  2  0  0  0
  9 11  1  0  0  0
 11 12  1  0  0  0
 11 15  1  0  0  0
 12 13  2  0  0  0
 12 14  1  0  0  0
 14 40  1  0  0  0
 15 16  1  0  0  0
 15 41  1  0  0  0
 15 42  1  0  0  0
 16 17  2  0  0  0
 16 18  1  0  0  0
 18 19  1  0  0  0
 18 43  1  0  0  0
 19 24  2  0  0  0
 19 20  1  0  0  0
 20 21  2  0  0  0
 20 44  1  0  0  0
 21 22  1  0  0  0
 21 45  1  0  0  0
 22 23  2  0  0  0
 22 25  1  0  0  0
 23 24  1  0  0  0
 23 46  1  0  0  0
 24 47  1  0  0  0
 25 26  2  0  0  0
 25 27  2  0  0  0
 25 28  1  0  0  0
 28 48  1  0  0  0
 28 49  1  0  0  0
 28 50  1  0  0  0
M  END
> <i_i_glide_confnum>
1

> <i_i_glide_lignum>
1538

> <i_i_glide_posenum>
212

> <i_i_glide_rotatable_bonds>
5

> <i_m_Source_File_Index>
2022

> <b_m_subgroup_collapsed>
0

> <r_i_docking_score>
-6.24097

> <r_i_glide_ecoul>
-5.94302

> <r_i_glide_eff_state_penalty>
0

> <r_i_glide_einternal>
1.18845

> <r_i_glide_emodel>
-60.5046

> <r_i_glide_energy>
-42.3721

> <r_i_glide_erotb>
0.504751

> <r_i_glide_esite>
0

> <r_i_glide_evdw>
-36.4291

> <r_i_glide_gscore>
-6.24097

> <r_i_glide_hbond>
-0.433658

> <r_i_glide_ligand_efficiency>
-0.231147

> <r_i_glide_ligand_efficiency_ln>
-1.45279

> <r_i_glide_ligand_efficiency_sa>
-0.693441

> <r_i_glide_lipo>
-2.04979

> <r_i_glide_metal>
0

> <r_i_glide_rewards>
-1.54936

> <s_i_glide_gridfile>
wee1_glide-grid

> <s_m_Source_File>
wee1_decoys_glide_SP.sdf

> <s_m_Source_Path>
/Users/zhangxujun/Desktop

> <s_m_entry_id>
2297

> <s_m_entry_name>
wee1_decoys_glide_SP.2022

> <s_m_subgroup_title>
wee1_decoys_glide_SP

> <s_m_subgroupid>
wee1_decoys_glide_SP


$$$$
