@<TRIPOS>MOLECULE
ZINC06911505_4671
31   31    1
SMALL
USER_CHARGES


@<TRIPOS>ATOM
      1 C1          5.9443   55.3443   20.6552 C.3       1 UNK         0.0000 
      2 C2          5.2651   54.7449   21.8854 C.3       1 UNK         0.0000 
      3 H3          4.3448   55.2961   22.0781 H         1 UNK         0.0000 
      4 C4          4.8553   53.2750   21.5923 C.2       1 UNK         0.0000 
      5 O5          5.5032   52.3450   22.0816 O.2       1 UNK         0.0000 
      6 N6          3.7687   53.1199   20.7973 N.am      1 UNK         0.0000 
      7 C7          3.1842   51.9590   20.4326 C.2       1 UNK         0.0000 
      8 O8          3.4394   50.8460   20.8979 O.2       1 UNK         0.0000 
      9 N9          2.2956   52.1520   19.4469 N.am      1 UNK         0.0000 
     10 C10         1.8558   51.0934   18.5462 C.3       1 UNK         0.0000 
     11 N11         6.1580   54.8608   23.0525 N.pl3     1 UNK         0.0000 
     12 C12         5.7280   54.6665   24.3798 C.ar      1 UNK         0.0000 
     13 C13         6.7045   54.6666   25.3742 C.ar      1 UNK         0.0000 
     14 C14         6.3536   54.4956   26.7117 C.ar      1 UNK         0.0000 
     15 C15         5.0152   54.3235   27.0547 C.ar      1 UNK         0.0000 
     16 C16         4.0290   54.3226   26.0724 C.ar      1 UNK         0.0000 
     17 C17         4.3829   54.4967   24.7370 C.ar      1 UNK         0.0000 
     18 Br18        4.5274   54.0935   28.8794 Br        1 UNK         0.0000 
     19 H19         5.3046   55.2703   19.7741 H         1 UNK         0.0000 
     20 H20         6.1447   56.4019   20.8304 H         1 UNK         0.0000 
     21 H21         6.8917   54.8459   20.4437 H         1 UNK         0.0000 
     22 H22         3.3639   53.9591   20.4121 H         1 UNK         0.0000 
     23 H23         1.9247   53.0767   19.2812 H         1 UNK         0.0000 
     24 H24         1.3347   51.5204   17.6891 H         1 UNK         0.0000 
     25 H25         1.1776   50.4098   19.0585 H         1 UNK         0.0000 
     26 H26         2.7063   50.5198   18.1714 H         1 UNK         0.0000 
     27 H27         7.1497   54.7631   22.8794 H         1 UNK         0.0000 
     28 H28         7.7400   54.7977   25.1017 H         1 UNK         0.0000 
     29 H29         7.1110   54.4957   27.4822 H         1 UNK         0.0000 
     30 H30         2.9931   54.1863   26.3443 H         1 UNK         0.0000 
     31 H31         3.6001   54.4916   23.9961 H         1 UNK         0.0000 
@<TRIPOS>BOND
     1    1    2 1    
     2    1   19 1    
     3    1   20 1    
     4    1   21 1    
     5    2    3 1    
     6    2    4 1    
     7    2   11 1    
     8    4    5 2    
     9    4    6 am   BACKBONE|DICT|INTERRES
    10    6    7 am   BACKBONE|DICT|INTERRES
    11    6   22 1    
    12    7    8 2    
    13    7    9 am   BACKBONE|DICT|INTERRES
    14    9   10 1    
    15    9   23 1    
    16   10   24 1    
    17   10   25 1    
    18   10   26 1    
    19   11   12 1    
    20   11   27 1    
    21   12   17 ar   
    22   12   13 ar   
    23   13   14 ar   
    24   13   28 1    
    25   14   15 ar   
    26   14   29 1    
    27   15   16 ar   
    28   15   18 1    
    29   16   17 ar   
    30   16   30 1    
    31   17   31 1    
@<TRIPOS>SUBSTRUCTURE
     1 UNK         1 GROUP             0       ****    0 ROOT    
