ZINC39629787_1274
                    3D
 Schrodinger Suite 2024-2.
 69 72  0  0  1  0            999 V2000
   -0.0971   53.3640   28.5048 C   0  0  0  0  0  0
    0.0879   52.2865   27.4195 C   0  0  0  0  0  0
    0.6582   50.9982   28.0447 C   0  0  0  0  0  0
   -1.2087   52.0623   26.5680 C   0  0  1  0  0  0
   -1.4652   53.0063   26.0924 H   0  0  0  0  0  0
   -1.0053   50.9628   25.4820 C   0  0  0  0  0  0
   -1.4363   49.8251   25.6802 O   0  0  0  0  0  0
   -0.3270   51.2611   24.3489 N   0  0  0  0  0  0
    0.2105   52.5733   23.9974 C   0  0  0  0  0  0
    1.5359   52.1666   23.3453 C   0  0  1  0  0  0
    2.2200   52.0023   24.1813 H   0  0  0  0  0  0
    1.2569   50.8656   22.5611 C   0  0  0  0  0  0
    0.2745   50.1849   23.5529 C   0  0  0  0  0  0
    2.5600   50.0778   22.2704 C   0  0  0  0  0  0
    2.2273   48.6888   21.7939 C   0  0  0  0  0  0
    1.4074   48.7942   20.4817 N   0  3  0  0  0  0
    0.1639   49.7176   20.5418 C   0  0  0  0  0  0
    0.5700   51.0684   21.1751 C   0  0  0  0  0  0
    2.1486   53.3422   22.5748 C   0  0  0  0  0  0
    1.8821   54.4966   22.8853 O   0  0  0  0  0  0
    3.0527   53.0161   21.6402 N   0  0  0  0  0  0
    4.0038   53.9003   20.9910 C   0  0  0  0  0  0
    5.1462   54.3772   21.8794 C   0  0  0  0  0  0
    5.2063   54.0981   23.2571 C   0  0  0  0  0  0
    6.1752   54.6918   24.0510 C   0  0  0  0  0  0
    7.1043   55.5269   23.4529 C   0  0  0  0  0  0
    7.1381   55.6969   22.0720 C   0  0  0  0  0  0
    6.1431   55.1453   21.2828 C   0  0  0  0  0  0
   -2.2563   51.6964   27.4813 O   0  0  0  0  0  0
   -3.5784   51.6376   27.0808 C   0  0  0  0  0  0
   -4.4446   50.9458   27.9278 C   0  0  0  0  0  0
   -5.7992   50.8458   27.6229 C   0  0  0  0  0  0
   -6.2897   51.4446   26.4645 C   0  0  0  0  0  0
   -5.4371   52.1415   25.6091 C   0  0  0  0  0  0
   -4.0816   52.2391   25.9151 C   0  0  0  0  0  0
   -0.7876   53.0299   29.2811 H   0  0  0  0  0  0
    0.8483   53.6047   28.9927 H   0  0  0  0  0  0
   -0.4879   54.2870   28.0817 H   0  0  0  0  0  0
    0.8678   52.6684   26.7620 H   0  0  0  0  0  0
   -0.0957   50.5023   28.6570 H   0  0  0  0  0  0
    0.9796   50.2873   27.2815 H   0  0  0  0  0  0
    1.5240   51.2009   28.6749 H   0  0  0  0  0  0
   -0.4207   53.0048   23.2196 H   0  0  0  0  0  0
    0.3913   53.2762   24.8094 H   0  0  0  0  0  0
    0.9052   49.6370   24.2574 H   0  0  0  0  0  0
   -0.4130   49.4441   23.1497 H   0  0  0  0  0  0
    3.2561   50.5502   21.5821 H   0  0  0  0  0  0
    3.1012   49.9393   23.2060 H   0  0  0  0  0  0
    3.1044   48.0966   21.5673 H   0  0  0  0  0  0
    1.6763   48.2266   22.6003 H   0  0  0  0  0  0
    2.0266   49.1498   19.7633 H   0  0  0  0  0  0
   -0.1793   49.8347   19.5127 H   0  0  0  0  0  0
   -0.6025   49.1773   21.0966 H   0  0  0  0  0  0
   -0.3374   51.6606   21.3023 H   0  0  0  0  0  0
    1.1807   51.6419   20.4772 H   0  0  0  0  0  0
    3.1849   52.0379   21.4527 H   0  0  0  0  0  0
    4.4309   53.3677   20.1396 H   0  0  0  0  0  0
    3.5044   54.7719   20.5715 H   0  0  0  0  0  0
    4.4831   53.4718   23.7523 H   0  0  0  0  0  0
    6.1866   54.5278   25.1183 H   0  0  0  0  0  0
    7.8287   56.0461   24.0653 H   0  0  0  0  0  0
    7.9094   56.3074   21.6263 H   0  0  0  0  0  0
    6.1327   55.3391   20.2193 H   0  0  0  0  0  0
   -4.0526   50.4739   28.8185 H   0  0  0  0  0  0
   -6.4627   50.2982   28.2776 H   0  0  0  0  0  0
   -7.3403   51.3624   26.2247 H   0  0  0  0  0  0
   -5.8266   52.6009   24.7115 H   0  0  0  0  0  0
   -3.4410   52.7849   25.2412 H   0  0  0  0  0  0
    1.1340   47.8726   20.1693 H   0  0  0  0  0  0
  1  2  1  0  0  0
  1 36  1  0  0  0
  1 37  1  0  0  0
  1 38  1  0  0  0
  2  3  1  0  0  0
  2  4  1  0  0  0
  2 39  1  0  0  0
  3 40  1  0  0  0
  3 41  1  0  0  0
  3 42  1  0  0  0
  4  5  1  0  0  0
  4  6  1  0  0  0
  4 29  1  0  0  0
  6  7  2  0  0  0
  6  8  1  0  0  0
  8 13  1  0  0  0
  8  9  1  0  0  0
  9 10  1  0  0  0
  9 43  1  0  0  0
  9 44  1  0  0  0
 10 11  1  0  0  0
 10 12  1  0  0  0
 10 19  1  0  0  0
 12 18  1  0  0  0
 12 13  1  0  0  0
 12 14  1  0  0  0
 13 45  1  0  0  0
 13 46  1  0  0  0
 14 15  1  0  0  0
 14 47  1  0  0  0
 14 48  1  0  0  0
 15 16  1  0  0  0
 15 49  1  0  0  0
 15 50  1  0  0  0
 16 17  1  0  0  0
 16 51  1  0  0  0
 16 69  1  0  0  0
 17 18  1  0  0  0
 17 52  1  0  0  0
 17 53  1  0  0  0
 18 54  1  0  0  0
 18 55  1  0  0  0
 19 20  2  0  0  0
 19 21  1  0  0  0
 21 22  1  0  0  0
 21 56  1  0  0  0
 22 23  1  0  0  0
 22 57  1  0  0  0
 22 58  1  0  0  0
 23 28  2  0  0  0
 23 24  1  0  0  0
 24 25  2  0  0  0
 24 59  1  0  0  0
 25 26  1  0  0  0
 25 60  1  0  0  0
 26 27  2  0  0  0
 26 61  1  0  0  0
 27 28  1  0  0  0
 27 62  1  0  0  0
 28 63  1  0  0  0
 29 30  1  0  0  0
 30 35  2  0  0  0
 30 31  1  0  0  0
 31 32  2  0  0  0
 31 64  1  0  0  0
 32 33  1  0  0  0
 32 65  1  0  0  0
 33 34  2  0  0  0
 33 66  1  0  0  0
 34 35  1  0  0  0
 34 67  1  0  0  0
 35 68  1  0  0  0
M  CHG  1  16   1
M  END
> <i_i_glide_confnum>
212

> <i_i_glide_lignum>
1275

> <i_i_glide_posenum>
283

> <i_i_glide_rotatable_bonds>
9

> <i_m_Source_File_Index>
1109

> <b_m_subgroup_collapsed>
0

> <r_i_docking_score>
-2.86279

> <r_i_glide_ecoul>
1.05322

> <r_i_glide_eff_state_penalty>
0

> <r_i_glide_einternal>
25.98

> <r_i_glide_emodel>
-18.7402

> <r_i_glide_energy>
-23.9937

> <r_i_glide_erotb>
0.592519

> <r_i_glide_esite>
-0.0275208

> <r_i_glide_evdw>
-25.0469

> <r_i_glide_gscore>
-2.86279

> <r_i_glide_hbond>
0

> <r_i_glide_ligand_efficiency>
-0.0867512

> <r_i_glide_ligand_efficiency_ln>
-0.636669

> <r_i_glide_ligand_efficiency_sa>
-0.278257

> <r_i_glide_lipo>
-1.88184

> <r_i_glide_metal>
0

> <r_i_glide_rewards>
-0.451588

> <s_i_glide_gridfile>
wee1_glide-grid

> <s_m_Source_File>
wee1_decoys_glide_SP.sdf

> <s_m_Source_Path>
/Users/zhangxujun/Desktop

> <s_m_entry_id>
1384

> <s_m_entry_name>
wee1_decoys_glide_SP.1109

> <s_m_subgroup_title>
wee1_decoys_glide_SP

> <s_m_subgroupid>
wee1_decoys_glide_SP


$$$$
