@<TRIPOS>MOLECULE
ZINC36024324_595
64   67    1
SMALL
USER_CHARGES


@<TRIPOS>ATOM
      1 C1         -6.2417   49.9618   25.3936 C.3       1 UNK         0.0000 
      2 C2         -4.7218   50.0360   25.1865 C.3       1 UNK         0.0000 
      3 C3         -3.9806   50.8631   26.2613 C.3       1 UNK         0.0000 
      4 H4         -4.2946   50.4564   27.2257 H         1 UNK         0.0000 
      5 C5         -4.4343   52.3422   26.2146 C.3       1 UNK         0.0000 
      6 C6         -2.4367   50.6577   26.1489 C.3       1 UNK         0.0000 
      7 H7         -2.1697   49.6035   26.0477 H         1 UNK         0.0000 
      8 C8         -1.7007   51.5139   25.1059 C.2       1 UNK         0.0000 
      9 O9         -2.0544   51.6065   23.9299 O.2       1 UNK         0.0000 
     10 N10        -0.6237   52.0847   25.6912 N.am      1 UNK         0.0000 
     11 C11        -0.5400   51.8555   27.1415 C.3       1 UNK         0.0000 
     12 N12        -1.8197   51.0693   27.4438 N.4       1 UNK         0.0000 
     13 C13         0.6307   50.9692   27.5786 C.3       1 UNK         0.0000 
     14 C14         1.9747   51.7105   27.6526 C.3       1 UNK         0.0000 
     15 N15         1.8495   52.9210   28.4790 N.pl3     1 UNK         0.0000 
     16 C16         0.8052   53.8989   28.1694 C.3       1 UNK         0.0000 
     17 C17        -0.5235   53.1352   28.0242 C.3       1 UNK         0.0000 
     18 C18         2.9461   53.3372   29.1732 C.2       1 UNK         0.0000 
     19 S19         3.5044   52.4966   30.4818 S.2       1 UNK         0.0000 
     20 N20         3.5812   54.4661   28.7541 N.pl3     1 UNK         0.0000 
     21 C21         4.4486   54.4760   27.6621 C.ar      1 UNK         0.0000 
     22 C22         5.8189   54.4953   27.9141 C.ar      1 UNK         0.0000 
     23 C23         6.7087   54.4953   26.8483 C.ar      1 UNK         0.0000 
     24 C24         6.2314   54.4963   25.5401 C.ar      1 UNK         0.0000 
     25 C25         4.8624   54.4971   25.2853 C.ar      1 UNK         0.0000 
     26 C26         3.9651   54.4900   26.3493 C.ar      1 UNK         0.0000 
     27 F27         7.1042   54.4936   24.5100 F         1 UNK         0.0000 
     28 C28         0.3189   52.8966   24.9007 C.3       1 UNK         0.0000 
     29 C29         1.0884   52.2149   23.7662 C.ar      1 UNK         0.0000 
     30 C30         1.6030   53.0161   22.7426 C.ar      1 UNK         0.0000 
     31 C31         2.2915   52.4380   21.6800 C.ar      1 UNK         0.0000 
     32 C32         2.4635   51.0571   21.6382 C.ar      1 UNK         0.0000 
     33 C33         1.9517   50.2488   22.6494 C.ar      1 UNK         0.0000 
     34 C34         1.2625   50.8258   23.7118 C.ar      1 UNK         0.0000 
     35 F35         3.1347   50.4968   20.6091 F         1 UNK         0.0000 
     36 H36        -6.6630   49.1084   24.8612 H         1 UNK         0.0000 
     37 H37        -6.5010   49.8511   26.4468 H         1 UNK         0.0000 
     38 H38        -6.7366   50.8579   25.0170 H         1 UNK         0.0000 
     39 H39        -4.5184   50.4461   24.1961 H         1 UNK         0.0000 
     40 H40        -4.3287   49.0186   25.1716 H         1 UNK         0.0000 
     41 H41        -4.3287   52.7608   25.2129 H         1 UNK         0.0000 
     42 H42        -5.4818   52.4459   26.4989 H         1 UNK         0.0000 
     43 H43        -3.8513   52.9687   26.8864 H         1 UNK         0.0000 
     44 H44        -2.4531   51.6379   27.9837 H         1 UNK         0.0000 
     45 H45         0.4231   50.5681   28.5717 H         1 UNK         0.0000 
     46 H46         0.7180   50.0949   26.9301 H         1 UNK         0.0000 
     47 H47         2.7044   51.0249   28.0725 H         1 UNK         0.0000 
     48 H48         2.3042   52.0544   26.6729 H         1 UNK         0.0000 
     49 H49         0.7151   54.6373   28.9696 H         1 UNK         0.0000 
     50 H50         1.1032   54.4386   27.2752 H         1 UNK         0.0000 
     51 H51        -1.2742   53.8385   27.6816 H         1 UNK         0.0000 
     52 H52        -0.8388   52.8681   29.0362 H         1 UNK         0.0000 
     53 H53         3.9255   55.0547   29.4978 H         1 UNK         0.0000 
     54 H54         6.2003   54.4973   28.9259 H         1 UNK         0.0000 
     55 H55         7.7689   54.4863   27.0443 H         1 UNK         0.0000 
     56 H56         4.5024   54.4991   24.2670 H         1 UNK         0.0000 
     57 H57         2.9088   54.4947   26.1432 H         1 UNK         0.0000 
     58 H58         1.0583   53.3443   25.5541 H         1 UNK         0.0000 
     59 H59        -0.2418   53.7292   24.4745 H         1 UNK         0.0000 
     60 H60         1.4716   54.0890   22.7608 H         1 UNK         0.0000 
     61 H61         2.6862   53.0553   20.8854 H         1 UNK         0.0000 
     62 H62         2.0975   49.1790   22.6118 H         1 UNK         0.0000 
     63 H63         0.8737   50.1858   24.4896 H         1 UNK         0.0000 
     64 H64        -1.6222   50.2460   28.0118 H         1 UNK         0.0000 
@<TRIPOS>BOND
     1    1    2 1    
     2    1   36 1    
     3    1   37 1    
     4    1   38 1    
     5    2    3 1    
     6    2   39 1    
     7    2   40 1    
     8    3    4 1    
     9    3    5 1    
    10    3    6 1    
    11    5   41 1    
    12    5   42 1    
    13    5   43 1    
    14    6    7 1    
    15    6   12 1    
    16    6    8 1    
    17    8    9 2    
    18    8   10 am   BACKBONE|DICT|INTERRES
    19   10   11 1    
    20   10   28 1    
    21   11   17 1    
    22   11   12 1    
    23   11   13 1    
    24   12   44 1    
    25   12   64 1    
    26   13   14 1    
    27   13   45 1    
    28   13   46 1    
    29   14   15 1    
    30   14   47 1    
    31   14   48 1    
    32   15   16 1    
    33   15   18 1    
    34   16   17 1    
    35   16   49 1    
    36   16   50 1    
    37   17   51 1    
    38   17   52 1    
    39   18   19 2    
    40   18   20 1    
    41   20   21 1    
    42   20   53 1    
    43   21   26 ar   
    44   21   22 ar   
    45   22   23 ar   
    46   22   54 1    
    47   23   24 ar   
    48   23   55 1    
    49   24   25 ar   
    50   24   27 1    
    51   25   26 ar   
    52   25   56 1    
    53   26   57 1    
    54   28   29 1    
    55   28   58 1    
    56   28   59 1    
    57   29   34 ar   
    58   29   30 ar   
    59   30   31 ar   
    60   30   60 1    
    61   31   32 ar   
    62   31   61 1    
    63   32   33 ar   
    64   32   35 1    
    65   33   34 ar   
    66   33   62 1    
    67   34   63 1    
@<TRIPOS>SUBSTRUCTURE
     1 UNK         1 GROUP             0       ****    0 ROOT    
