@<TRIPOS>MOLECULE
ZINC38556316_2476
45   48    1
SMALL
USER_CHARGES


@<TRIPOS>ATOM
      1 C1          3.2284   52.8812   20.5200 C.ar      1 UNK         0.0000 
      2 C2          4.3581   53.6474   20.2411 C.ar      1 UNK         0.0000 
      3 C3          5.0631   54.2437   21.2828 C.ar      1 UNK         0.0000 
      4 C4          4.6487   54.0767   22.6006 C.ar      1 UNK         0.0000 
      5 C5          3.5145   53.3174   22.8763 C.ar      1 UNK         0.0000 
      6 C6          2.7944   52.7103   21.8412 C.ar      1 UNK         0.0000 
      7 C7          1.6312   51.8488   22.1503 C.2       1 UNK         0.0000 
      8 C8          1.4849   51.0554   23.2146 C.2       1 UNK         0.0000 
      9 C9          0.1254   50.4511   23.0275 C.3       1 UNK         0.0000 
     10 H10         0.2169   49.3851   22.8136 H         1 UNK         0.0000 
     11 N11        -0.3595   51.0989   21.8346 N.2       1 UNK         0.0000 
     12 N12         0.5299   51.8816   21.3659 N.2       1 UNK         0.0000 
     13 C13        -0.8352   50.6225   24.2390 C.3       1 UNK         0.0000 
     14 H14        -1.7962   50.1673   23.9934 H         1 UNK         0.0000 
     15 N15        -1.1060   51.9985   24.5710 N.2       1 UNK         0.0000 
     16 N16        -0.9591   52.1867   25.8140 N.2       1 UNK         0.0000 
     17 C17        -0.5411   50.9840   26.4834 C.3       1 UNK         0.0000 
     18 H18        -1.3402   50.6646   27.1557 H         1 UNK         0.0000 
     19 N19        -0.3119   50.0108   25.4395 N.3       1 UNK         0.0000 
     20 N20        -0.5425   48.6067   25.6817 N.3       1 UNK         0.0000 
     21 S21         0.9352   51.2969   27.4907 S.3       1 UNK         0.0000 
     22 C22         0.4752   52.7263   28.5142 C.3       1 UNK         0.0000 
     23 C23         1.7355   53.1913   29.2564 C.2       1 UNK         0.0000 
     24 O24         1.7482   53.0994   30.4824 O.2       1 UNK         0.0000 
     25 C25         2.9289   53.6470   28.4671 C.ar      1 UNK         0.0000 
     26 C26         4.1882   53.6736   29.0831 C.ar      1 UNK         0.0000 
     27 C27         5.3126   54.0933   28.3768 C.ar      1 UNK         0.0000 
     28 C28         5.1810   54.4983   27.0520 C.ar      1 UNK         0.0000 
     29 C29         3.9349   54.4962   26.4333 C.ar      1 UNK         0.0000 
     30 C30         2.8109   54.0741   27.1365 C.ar      1 UNK         0.0000 
     31 Br31        6.7044   55.1039   26.0873 Br        1 UNK         0.0000 
     32 F32         6.1577   54.9909   21.0153 F         1 UNK         0.0000 
     33 H33         2.6966   52.4115   19.7046 H         1 UNK         0.0000 
     34 H34         4.6882   53.7734   19.2202 H         1 UNK         0.0000 
     35 H35         5.2079   54.5362   23.4014 H         1 UNK         0.0000 
     36 H36         3.1995   53.1858   23.9010 H         1 UNK         0.0000 
     37 H37         2.1534   50.8433   24.0343 H         1 UNK         0.0000 
     38 H38         0.2868   48.2227   26.1210 H         1 UNK         0.0000 
     39 H39        -1.2962   48.5231   26.3588 H         1 UNK         0.0000 
     40 H40         0.0819   53.5320   27.8969 H         1 UNK         0.0000 
     41 H41        -0.3058   52.4391   29.2190 H         1 UNK         0.0000 
     42 H42         4.3052   53.3599   30.1105 H         1 UNK         0.0000 
     43 H43         6.2809   54.1146   28.8565 H         1 UNK         0.0000 
     44 H44         3.8376   54.8381   25.4145 H         1 UNK         0.0000 
     45 H45         1.8569   54.0861   26.6290 H         1 UNK         0.0000 
@<TRIPOS>BOND
     1    1    6 ar   
     2    1    2 ar   
     3    1   33 1    
     4    2    3 ar   
     5    2   34 1    
     6    3    4 ar   
     7    3   32 1    
     8    4    5 ar   
     9    4   35 1    
    10    5    6 ar   
    11    5   36 1    
    12    6    7 1    
    13    7   12 1    
    14    7    8 2    
    15    8    9 1    
    16    8   37 1    
    17    9   10 1    
    18    9   11 1    
    19    9   13 1    
    20   11   12 2    
    21   13   14 1    
    22   13   19 1    
    23   13   15 1    
    24   15   16 2    
    25   16   17 1    
    26   17   18 1    
    27   17   19 1    
    28   17   21 1    
    29   19   20 1    
    30   20   38 1    
    31   20   39 1    
    32   21   22 1    
    33   22   23 1    
    34   22   40 1    
    35   22   41 1    
    36   23   24 2    
    37   23   25 1    
    38   25   30 ar   
    39   25   26 ar   
    40   26   27 ar   
    41   26   42 1    
    42   27   28 ar   
    43   27   43 1    
    44   28   29 ar   
    45   28   31 1    
    46   29   30 ar   
    47   29   44 1    
    48   30   45 1    
@<TRIPOS>SUBSTRUCTURE
     1 UNK         1 GROUP             0       ****    0 ROOT    
