@<TRIPOS>MOLECULE
ZINC20452125_314
75   79    1
SMALL
USER_CHARGES


@<TRIPOS>ATOM
      1 C1          7.5454   58.2741   18.3952 C.3       1 UNK         0.0000 
      2 C2          7.8226   56.7552   18.3027 C.3       1 UNK         0.0000 
      3 C3          8.6294   56.2734   19.5262 C.3       1 UNK         0.0000 
      4 C4          6.5828   55.8777   18.0635 C.ar      1 UNK         0.0000 
      5 C5          6.7643   54.5343   17.7168 C.ar      1 UNK         0.0000 
      6 C6          5.6676   53.6980   17.5236 C.ar      1 UNK         0.0000 
      7 C7          4.3751   54.2014   17.6781 C.ar      1 UNK         0.0000 
      8 C8          4.1826   55.5496   17.9841 C.ar      1 UNK         0.0000 
      9 C9          5.2808   56.3818   18.1793 C.ar      1 UNK         0.0000 
     10 C10         3.1718   53.2798   17.5407 C.3       1 UNK         0.0000 
     11 N11         2.5846   52.8967   18.9114 N.4       1 UNK         0.0000 
     12 C12         3.4615   51.9281   19.7253 C.3       1 UNK         0.0000 
     13 H13         4.4902   52.1515   19.4394 H         1 UNK         0.0000 
     14 C14         3.2874   52.0386   21.2434 C.3       1 UNK         0.0000 
     15 C15         2.4519   50.8060   21.6666 C.3       1 UNK         0.0000 
     16 H16         3.0969   50.1276   22.2371 H         1 UNK         0.0000 
     17 N17         2.0184   50.1718   20.4161 N.3       1 UNK         0.0000 
     18 C18         3.0838   50.4740   19.4676 C.3       1 UNK         0.0000 
     19 C19         1.7577   48.7331   20.5583 C.3       1 UNK         0.0000 
     20 C20         1.1304   48.1307   19.3090 C.ar      1 UNK         0.0000 
     21 C21        -0.2542   48.1759   19.1189 C.ar      1 UNK         0.0000 
     22 C22        -0.8191   47.6667   17.9489 C.ar      1 UNK         0.0000 
     23 C23        -0.0019   47.1255   16.9547 C.ar      1 UNK         0.0000 
     24 C24         1.3821   47.1048   17.1262 C.ar      1 UNK         0.0000 
     25 C25         1.9435   47.6190   18.2927 C.ar      1 UNK         0.0000 
     26 Cl26        2.4021   46.4427   15.9017 Cl        1 UNK         0.0000 
     27 C27         1.2622   51.2419   22.5569 C.2       1 UNK         0.0000 
     28 O28         0.3360   51.9201   22.1043 O.2       1 UNK         0.0000 
     29 N29         1.3417   50.8820   23.8479 N.am      1 UNK         0.0000 
     30 C30         0.4004   51.2615   24.8990 C.3       1 UNK         0.0000 
     31 C31         0.4577   52.7533   25.3007 C.3       1 UNK         0.0000 
     32 C32         1.8418   53.2927   25.6625 C.ar      1 UNK         0.0000 
     33 C33         2.6538   53.8770   24.6689 C.ar      1 UNK         0.0000 
     34 C34         3.9287   54.3741   24.9769 C.ar      1 UNK         0.0000 
     35 C35         4.3618   54.2630   26.2939 C.ar      1 UNK         0.0000 
     36 C36         3.5764   53.7085   27.2656 C.ar      1 UNK         0.0000 
     37 C37         2.3029   53.2181   26.9890 C.ar      1 UNK         0.0000 
     38 O38         4.2306   53.7639   28.4554 O.3       1 UNK         0.0000 
     39 C39         5.5426   54.1568   28.1458 C.3       1 UNK         0.0000 
     40 O40         5.5315   54.6827   26.8445 O.3       1 UNK         0.0000 
     41 H41         7.0113   58.6410   17.5174 H         1 UNK         0.0000 
     42 H42         6.9544   58.5312   19.2750 H         1 UNK         0.0000 
     43 H43         8.4762   58.8391   18.4557 H         1 UNK         0.0000 
     44 H44         8.4545   56.6182   17.4227 H         1 UNK         0.0000 
     45 H45         8.9830   55.2489   19.4039 H         1 UNK         0.0000 
     46 H46         9.5111   56.8946   19.6837 H         1 UNK         0.0000 
     47 H47         8.0340   56.3047   20.4390 H         1 UNK         0.0000 
     48 H48         7.7589   54.1294   17.6075 H         1 UNK         0.0000 
     49 H49         5.8267   52.6548   17.2823 H         1 UNK         0.0000 
     50 H50         3.1852   55.9499   18.0931 H         1 UNK         0.0000 
     51 H51         5.1023   57.4155   18.4303 H         1 UNK         0.0000 
     52 H52         3.4121   52.3346   17.0447 H         1 UNK         0.0000 
     53 H53         2.3507   53.7680   17.0113 H         1 UNK         0.0000 
     54 H54         1.6880   52.4436   18.7897 H         1 UNK         0.0000 
     55 H55         4.2746   51.9968   21.7100 H         1 UNK         0.0000 
     56 H56         2.8385   52.9996   21.5097 H         1 UNK         0.0000 
     57 H57         3.9046   49.7961   19.6820 H         1 UNK         0.0000 
     58 H58         2.7994   50.2597   18.4360 H         1 UNK         0.0000 
     59 H59         1.0699   48.5808   21.3913 H         1 UNK         0.0000 
     60 H60         2.6891   48.2087   20.7949 H         1 UNK         0.0000 
     61 H61        -0.8904   48.6069   19.8769 H         1 UNK         0.0000 
     62 H62        -1.8887   47.6986   17.8081 H         1 UNK         0.0000 
     63 H63        -0.4391   46.7341   16.0486 H         1 UNK         0.0000 
     64 H64         3.0193   47.6256   18.4032 H         1 UNK         0.0000 
     65 H65         2.1019   50.2809   24.1301 H         1 UNK         0.0000 
     66 H66        -0.6139   50.9589   24.6306 H         1 UNK         0.0000 
     67 H67         0.7040   50.6615   25.7589 H         1 UNK         0.0000 
     68 H68         0.0440   53.3641   24.4960 H         1 UNK         0.0000 
     69 H69        -0.2225   52.8967   26.1414 H         1 UNK         0.0000 
     70 H70         2.2899   53.9497   23.6543 H         1 UNK         0.0000 
     71 H71         4.5449   54.8271   24.2155 H         1 UNK         0.0000 
     72 H72         1.6913   52.7839   27.7656 H         1 UNK         0.0000 
     73 H73         6.1960   53.2811   28.1725 H         1 UNK         0.0000 
     74 H74         5.9034   54.8965   28.8641 H         1 UNK         0.0000 
     75 H75         2.4149   53.7470   19.4401 H         1 UNK         0.0000 
@<TRIPOS>BOND
     1    1    2 1    
     2    1   41 1    
     3    1   42 1    
     4    1   43 1    
     5    2    3 1    
     6    2    4 1    
     7    2   44 1    
     8    3   45 1    
     9    3   46 1    
    10    3   47 1    
    11    4    9 ar   
    12    4    5 ar   
    13    5    6 ar   
    14    5   48 1    
    15    6    7 ar   
    16    6   49 1    
    17    7    8 ar   
    18    7   10 1    
    19    8    9 ar   
    20    8   50 1    
    21    9   51 1    
    22   10   11 1    
    23   10   52 1    
    24   10   53 1    
    25   11   12 1    
    26   11   54 1    
    27   11   75 1    
    28   12   13 1    
    29   12   18 1    
    30   12   14 1    
    31   14   15 1    
    32   14   55 1    
    33   14   56 1    
    34   15   16 1    
    35   15   17 1    
    36   15   27 1    
    37   17   18 1    
    38   17   19 1    
    39   18   57 1    
    40   18   58 1    
    41   19   20 1    
    42   19   59 1    
    43   19   60 1    
    44   20   25 ar   
    45   20   21 ar   
    46   21   22 ar   
    47   21   61 1    
    48   22   23 ar   
    49   22   62 1    
    50   23   24 ar   
    51   23   63 1    
    52   24   25 ar   
    53   24   26 1    
    54   25   64 1    
    55   27   28 2    
    56   27   29 am   BACKBONE|DICT|INTERRES
    57   29   30 1    
    58   29   65 1    
    59   30   31 1    
    60   30   66 1    
    61   30   67 1    
    62   31   32 1    
    63   31   68 1    
    64   31   69 1    
    65   32   37 ar   
    66   32   33 ar   
    67   33   34 ar   
    68   33   70 1    
    69   34   35 ar   
    70   34   71 1    
    71   35   40 1    
    72   35   36 ar   
    73   36   37 ar   
    74   36   38 1    
    75   37   72 1    
    76   38   39 1    
    77   39   40 1    
    78   39   73 1    
    79   39   74 1    
@<TRIPOS>SUBSTRUCTURE
     1 UNK         1 GROUP             0       ****    0 ROOT    
