@<TRIPOS>MOLECULE
ZINC02188836_4116
67   71    1
SMALL
USER_CHARGES


@<TRIPOS>ATOM
      1 C1         -4.5400   54.7340   25.9255 C.3       1 UNK         0.0000 
      2 C2         -4.1517   53.4135   25.2410 C.3       1 UNK         0.0000 
      3 C3         -3.1735   52.6611   26.1702 C.3       1 UNK         0.0000 
      4 C4         -2.9795   51.1873   25.7521 C.2       1 UNK         0.0000 
      5 C5         -3.9932   50.4853   25.1638 C.2       1 UNK         0.0000 
      6 C6         -3.8781   48.9622   24.9187 C.3       1 UNK         0.0000 
      7 H7         -4.3241   48.7408   23.9461 H         1 UNK         0.0000 
      8 C8         -2.4123   48.5346   24.9028 C.2       1 UNK         0.0000 
      9 C9         -1.4311   49.3163   25.4128 C.2       1 UNK         0.0000 
     10 N10        -1.7069   50.6057   25.9110 N.pl3     1 UNK         0.0000 
     11 C11        -0.7646   51.2760   26.6946 C.2       1 UNK         0.0000 
     12 C12         0.3590   52.0334   26.3125 C.2       1 UNK         0.0000 
     13 C13         1.0599   52.4996   27.4754 C.2       1 UNK         0.0000 
     14 C14         0.4164   52.1764   28.6806 C.2       1 UNK         0.0000 
     15 S15        -1.0354   51.2996   28.3907 S.3       1 UNK         0.0000 
     16 C16         0.8555   52.5483   30.0822 C.3       1 UNK         0.0000 
     17 C17         0.9045   54.0697   30.3067 C.3       1 UNK         0.0000 
     18 C18         2.1147   54.7783   29.6580 C.3       1 UNK         0.0000 
     19 C19         2.2150   54.7027   28.1198 C.3       1 UNK         0.0000 
     20 C20         2.3695   53.2840   27.5265 C.3       1 UNK         0.0000 
     21 C21         0.7300   52.2828   24.9062 C.2       1 UNK         0.0000 
     22 O22         0.4898   51.4999   23.9857 O.2       1 UNK         0.0000 
     23 O23         1.3224   53.4861   24.7429 O.3       1 UNK         0.0000 
     24 C24         1.8181   53.8853   23.4721 C.3       1 UNK         0.0000 
     25 N25        -0.1234   48.8875   25.4959 N.pl3     1 UNK         0.0000 
     26 C26        -2.1729   47.2000   24.4453 C.1       1 UNK         0.0000 
     27 N27        -2.0948   46.1010   24.0823 N.1       1 UNK         0.0000 
     28 C28        -4.6690   48.1228   25.9360 C.ar      1 UNK         0.0000 
     29 C29        -4.4178   48.2701   27.3060 C.ar      1 UNK         0.0000 
     30 C30        -5.0590   47.4556   28.2334 C.ar      1 UNK         0.0000 
     31 C31        -5.9683   46.4987   27.7949 C.ar      1 UNK         0.0000 
     32 C32        -6.2512   46.3604   26.4373 C.ar      1 UNK         0.0000 
     33 C33        -5.6011   47.1706   25.5069 C.ar      1 UNK         0.0000 
     34 F34        -6.5730   45.6912   28.6964 F         1 UNK         0.0000 
     35 C35        -5.2929   51.1053   24.8291 C.2       1 UNK         0.0000 
     36 O36        -6.2475   50.4477   24.4161 O.2       1 UNK         0.0000 
     37 C37        -5.4665   52.6003   25.1200 C.3       1 UNK         0.0000 
     38 C38        -3.5015   53.6344   23.8562 C.3       1 UNK         0.0000 
     39 H39        -5.2434   55.2690   25.3040 H         1 UNK         0.0000 
     40 H40        -5.0234   54.5756   26.8868 H         1 UNK         0.0000 
     41 H41        -3.6961   55.3984   26.0811 H         1 UNK         0.0000 
     42 H42        -3.5227   52.6358   27.2023 H         1 UNK         0.0000 
     43 H43        -2.2499   53.2378   26.1126 H         1 UNK         0.0000 
     44 H44         0.1945   52.0945   30.8236 H         1 UNK         0.0000 
     45 H45         1.8453   52.1389   30.2855 H         1 UNK         0.0000 
     46 H46        -0.0260   54.5203   29.9587 H         1 UNK         0.0000 
     47 H47         0.9284   54.2592   31.3799 H         1 UNK         0.0000 
     48 H48         2.0930   55.8302   29.9491 H         1 UNK         0.0000 
     49 H49         3.0356   54.3787   30.0838 H         1 UNK         0.0000 
     50 H50         1.3481   55.1978   27.6817 H         1 UNK         0.0000 
     51 H51         3.0772   55.2961   27.8124 H         1 UNK         0.0000 
     52 H52         3.0935   52.7357   28.1314 H         1 UNK         0.0000 
     53 H53         2.8672   53.3433   26.5612 H         1 UNK         0.0000 
     54 H54         2.2197   54.8966   23.5315 H         1 UNK         0.0000 
     55 H55         2.6188   53.2214   23.1427 H         1 UNK         0.0000 
     56 H56         1.0335   53.8754   22.7157 H         1 UNK         0.0000 
     57 H57         0.0912   47.8994   25.5041 H         1 UNK         0.0000 
     58 H58         0.5962   49.5077   25.8312 H         1 UNK         0.0000 
     59 H59        -3.6906   48.9888   27.6573 H         1 UNK         0.0000 
     60 H60        -4.8322   47.5564   29.2853 H         1 UNK         0.0000 
     61 H61        -6.9630   45.6183   26.1084 H         1 UNK         0.0000 
     62 H62        -5.8105   47.0444   24.4551 H         1 UNK         0.0000 
     63 H63        -5.9689   52.6203   26.0882 H         1 UNK         0.0000 
     64 H64        -6.1591   53.0264   24.3929 H         1 UNK         0.0000 
     65 H65        -4.0985   54.3356   23.2817 H         1 UNK         0.0000 
     66 H66        -2.5140   54.0905   23.9298 H         1 UNK         0.0000 
     67 H67        -3.3944   52.7128   23.2839 H         1 UNK         0.0000 
@<TRIPOS>BOND
     1    1    2 1    
     2    1   39 1    
     3    1   40 1    
     4    1   41 1    
     5    2   37 1    
     6    2    3 1    
     7    2   38 1    
     8    3    4 1    
     9    3   42 1    
    10    3   43 1    
    11    4   10 1    
    12    4    5 2    
    13    5    6 1    
    14    5   35 1    
    15    6    7 1    
    16    6    8 1    
    17    6   28 1    
    18    8    9 2    
    19    8   26 1    
    20    9   10 1    
    21    9   25 1    
    22   10   11 1    
    23   11   15 1    
    24   11   12 2    
    25   12   13 1    
    26   12   21 1    
    27   13   20 1    
    28   13   14 2    
    29   14   15 1    
    30   14   16 1    
    31   16   17 1    
    32   16   44 1    
    33   16   45 1    
    34   17   18 1    
    35   17   46 1    
    36   17   47 1    
    37   18   19 1    
    38   18   48 1    
    39   18   49 1    
    40   19   20 1    
    41   19   50 1    
    42   19   51 1    
    43   20   52 1    
    44   20   53 1    
    45   21   22 2    
    46   21   23 1    
    47   23   24 1    
    48   24   54 1    
    49   24   55 1    
    50   24   56 1    
    51   25   57 1    
    52   25   58 1    
    53   26   27 3    
    54   28   33 ar   
    55   28   29 ar   
    56   29   30 ar   
    57   29   59 1    
    58   30   31 ar   
    59   30   60 1    
    60   31   32 ar   
    61   31   34 1    
    62   32   33 ar   
    63   32   61 1    
    64   33   62 1    
    65   35   36 2    
    66   35   37 1    
    67   37   63 1    
    68   37   64 1    
    69   38   65 1    
    70   38   66 1    
    71   38   67 1    
@<TRIPOS>SUBSTRUCTURE
     1 UNK         1 GROUP             0       ****    0 ROOT    
