ZINC39637231_3668
                    3D
 Schrodinger Suite 2024-2.
 68 71  0  0  1  0            999 V2000
   -4.9643   48.5268   24.7242 C   0  0  0  0  0  0
   -4.1272   49.4026   25.6896 C   0  0  2  0  0  0
   -4.1196   48.9042   26.6604 H   0  0  0  0  0  0
   -4.7656   50.7967   25.9161 C   0  0  0  0  0  0
   -4.6546   51.7193   24.6814 C   0  0  0  0  0  0
   -3.2045   51.8316   24.1617 C   0  0  0  0  0  0
   -2.5414   50.4497   23.9622 C   0  0  2  0  0  0
   -3.1374   49.9611   23.1903 H   0  0  0  0  0  0
   -2.6429   49.5981   25.2698 C   0  0  2  0  0  0
   -2.2049   50.1975   26.0705 H   0  0  0  0  0  0
   -1.8565   48.2664   25.2539 C   0  0  0  0  0  0
   -1.2059   50.5626   23.3769 N   0  0  0  0  0  0
   -0.5844   49.7004   22.5500 C   0  0  0  0  0  0
   -1.1369   48.7006   22.0878 O   0  0  0  0  0  0
    0.8868   50.0104   22.1733 C   0  0  2  0  0  0
    1.3639   49.0431   22.0347 H   0  0  0  0  0  0
    1.6463   50.7590   23.2899 C   0  0  0  0  0  0
    1.4477   52.1774   22.9462 N   0  0  0  0  0  0
    1.0160   52.3453   21.5509 C   0  0  0  0  0  0
    1.0320   50.9328   20.9215 C   0  0  0  0  0  0
    0.0095   50.8341   19.7472 C   0  0  0  0  0  0
    0.0569   49.4566   19.0454 C   0  0  0  0  0  0
    1.4793   49.2404   18.4834 N   0  3  0  0  0  0
    2.5757   49.3896   19.5534 C   0  0  0  0  0  0
    2.4222   50.7648   20.2394 C   0  0  0  0  0  0
    1.5917   53.2534   23.7658 C   0  0  0  0  0  0
    1.5046   54.4101   23.3471 O   0  0  0  0  0  0
    1.8482   53.0507   25.2397 C   0  0  0  0  0  0
    0.9644   52.3129   26.0422 C   0  0  0  0  0  0
    1.1716   52.2086   27.4167 C   0  0  0  0  0  0
    2.2620   52.8511   28.0234 C   0  0  0  0  0  0
    3.1370   53.5995   27.2255 C   0  0  0  0  0  0
    2.9258   53.7010   25.8510 C   0  0  0  0  0  0
    4.1933   54.2369   27.7779 F   0  0  0  0  0  0
    2.5077   52.7452   29.5291 C   0  0  0  0  0  0
    1.5247   52.0957   30.1588 F   0  0  0  0  0  0
    3.6461   52.0795   29.7442 F   0  0  0  0  0  0
    2.6131   53.9576   30.0790 F   0  0  0  0  0  0
   -5.0409   48.9466   23.7200 H   0  0  0  0  0  0
   -4.5423   47.5247   24.6308 H   0  0  0  0  0  0
   -5.9838   48.4073   25.0970 H   0  0  0  0  0  0
   -5.8159   50.6875   26.1942 H   0  0  0  0  0  0
   -4.2825   51.2825   26.7665 H   0  0  0  0  0  0
   -5.3007   51.3456   23.8854 H   0  0  0  0  0  0
   -5.0379   52.7103   24.9281 H   0  0  0  0  0  0
   -3.1986   52.3966   23.2282 H   0  0  0  0  0  0
   -2.6214   52.4107   24.8785 H   0  0  0  0  0  0
   -2.1352   47.6454   24.4016 H   0  0  0  0  0  0
   -2.0388   47.6816   26.1558 H   0  0  0  0  0  0
   -0.7800   48.4354   25.2017 H   0  0  0  0  0  0
   -0.6662   51.3574   23.6850 H   0  0  0  0  0  0
    1.3072   50.4470   24.2790 H   0  0  0  0  0  0
    2.7034   50.5038   23.2168 H   0  0  0  0  0  0
    1.5692   53.0797   20.9618 H   0  0  0  0  0  0
   -0.0219   52.6775   21.5849 H   0  0  0  0  0  0
   -1.0069   51.0077   20.1052 H   0  0  0  0  0  0
    0.1800   51.6265   19.0163 H   0  0  0  0  0  0
   -0.1379   48.6197   19.7183 H   0  0  0  0  0  0
   -0.6250   49.3928   18.1933 H   0  0  0  0  0  0
    1.5627   48.3336   18.0436 H   0  0  0  0  0  0
    2.4940   48.5339   20.2221 H   0  0  0  0  0  0
    3.5051   49.3074   18.9921 H   0  0  0  0  0  0
    2.6049   51.5571   19.5095 H   0  0  0  0  0  0
    3.2272   50.8851   20.9668 H   0  0  0  0  0  0
    0.0973   51.8291   25.6139 H   0  0  0  0  0  0
    0.4779   51.6260   28.0053 H   0  0  0  0  0  0
    3.6088   54.2983   25.2662 H   0  0  0  0  0  0
    1.6738   49.9081   17.7497 H   0  0  0  0  0  0
  1  2  1  0  0  0
  1 39  1  0  0  0
  1 40  1  0  0  0
  1 41  1  0  0  0
  2  3  1  0  0  0
  2  9  1  0  0  0
  2  4  1  0  0  0
  4  5  1  0  0  0
  4 42  1  0  0  0
  4 43  1  0  0  0
  5  6  1  0  0  0
  5 44  1  0  0  0
  5 45  1  0  0  0
  6  7  1  0  0  0
  6 46  1  0  0  0
  6 47  1  0  0  0
  7  8  1  0  0  0
  7  9  1  0  0  0
  7 12  1  0  0  0
  9 10  1  0  0  0
  9 11  1  0  0  0
 11 48  1  0  0  0
 11 49  1  0  0  0
 11 50  1  0  0  0
 12 13  1  0  0  0
 12 51  1  0  0  0
 13 14  2  0  0  0
 13 15  1  0  0  0
 15 16  1  0  0  0
 15 20  1  0  0  0
 15 17  1  0  0  0
 17 18  1  0  0  0
 17 52  1  0  0  0
 17 53  1  0  0  0
 18 19  1  0  0  0
 18 26  1  0  0  0
 19 20  1  0  0  0
 19 54  1  0  0  0
 19 55  1  0  0  0
 20 25  1  0  0  0
 20 21  1  0  0  0
 21 22  1  0  0  0
 21 56  1  0  0  0
 21 57  1  0  0  0
 22 23  1  0  0  0
 22 58  1  0  0  0
 22 59  1  0  0  0
 23 24  1  0  0  0
 23 60  1  0  0  0
 23 68  1  0  0  0
 24 25  1  0  0  0
 24 61  1  0  0  0
 24 62  1  0  0  0
 25 63  1  0  0  0
 25 64  1  0  0  0
 26 27  2  0  0  0
 26 28  1  0  0  0
 28 33  2  0  0  0
 28 29  1  0  0  0
 29 30  2  0  0  0
 29 65  1  0  0  0
 30 31  1  0  0  0
 30 66  1  0  0  0
 31 32  2  0  0  0
 31 35  1  0  0  0
 32 33  1  0  0  0
 32 34  1  0  0  0
 33 67  1  0  0  0
 35 36  1  0  0  0
 35 37  1  0  0  0
 35 38  1  0  0  0
M  CHG  1  23   1
M  END
> <i_i_glide_confnum>
348

> <i_i_glide_lignum>
3669

> <i_i_glide_posenum>
100

> <i_i_glide_rotatable_bonds>
6

> <i_m_Source_File_Index>
4086

> <b_m_subgroup_collapsed>
0

> <r_i_docking_score>
-4.53288

> <r_i_glide_ecoul>
-3.8056

> <r_i_glide_eff_state_penalty>
0

> <r_i_glide_einternal>
7.07473

> <r_i_glide_emodel>
-48.6243

> <r_i_glide_energy>
-38.5767

> <r_i_glide_erotb>
0.43249

> <r_i_glide_esite>
-0.146776

> <r_i_glide_evdw>
-34.7711

> <r_i_glide_gscore>
-4.53288

> <r_i_glide_hbond>
0

> <r_i_glide_ligand_efficiency>
-0.13332

> <r_i_glide_ligand_efficiency_ln>
-1.00144

> <r_i_glide_ligand_efficiency_sa>
-0.431905

> <r_i_glide_lipo>
-1.25992

> <r_i_glide_metal>
0

> <r_i_glide_rewards>
-1.24929

> <s_i_glide_gridfile>
wee1_glide-grid

> <s_m_Source_File>
wee1_decoys_glide_SP.sdf

> <s_m_Source_Path>
/Users/zhangxujun/Desktop

> <s_m_entry_id>
4361

> <s_m_entry_name>
wee1_decoys_glide_SP.4086

> <s_m_subgroup_title>
wee1_decoys_glide_SP

> <s_m_subgroupid>
wee1_decoys_glide_SP


$$$$
