ZINC64930616_2283
                    3D
 Schrodinger Suite 2024-2.
 56 59  0  0  1  0            999 V2000
    6.8426   55.4355   18.4677 C   0  0  0  0  0  0
    6.5071   55.1030   19.9105 C   0  0  0  0  0  0
    5.4070   54.2948   20.1993 C   0  0  0  0  0  0
    5.0970   53.9894   21.5223 C   0  0  0  0  0  0
    5.8770   54.4967   22.5646 C   0  0  0  0  0  0
    6.9795   55.3081   22.2679 C   0  0  0  0  0  0
    7.2942   55.6099   20.9448 C   0  0  0  0  0  0
    5.4485   54.1786   23.8655 N   0  0  0  0  0  0
    5.8812   54.6163   25.0719 C   0  0  0  0  0  0
    6.8954   55.2837   25.2811 O   0  0  0  0  0  0
    5.0173   54.2459   26.1681 C   0  0  0  0  0  0
    5.3104   54.1011   27.4391 N   0  0  0  0  0  0
    4.2041   53.8300   28.2391 N   0  0  0  0  0  0
    3.0644   53.7883   27.5833 C   0  0  0  0  0  0
    3.2981   54.0965   25.8885 S   0  0  0  0  0  0
    1.6850   53.5374   28.2132 C   0  0  2  0  0  0
    1.0645   54.3751   27.8897 H   0  0  0  0  0  0
    1.6861   53.4991   29.7556 C   0  0  0  0  0  0
    0.5846   52.5212   30.1082 C   0  0  0  0  0  0
    0.7006   51.4542   29.0273 C   0  0  0  0  0  0
    1.0481   52.2500   27.8366 N   0  0  0  0  0  0
    0.4776   52.0342   26.6176 C   0  0  0  0  0  0
    0.4684   52.8945   25.7359 O   0  0  0  0  0  0
    0.0399   50.7699   26.4103 N   0  0  0  0  0  0
   -0.5778   50.2531   25.2563 C   0  0  0  0  0  0
   -1.7523   49.5277   25.4782 C   0  0  0  0  0  0
   -2.4424   48.9449   24.4180 C   0  0  0  0  0  0
   -1.9590   49.0688   23.1159 C   0  0  0  0  0  0
   -0.7717   49.7660   22.8867 C   0  0  0  0  0  0
   -0.0673   50.3571   23.9415 C   0  0  0  0  0  0
    1.2604   51.0216   23.6069 C   0  0  0  0  0  0
   -2.6959   48.4177   21.9607 C   0  0  0  0  0  0
    7.3264   56.4098   18.3901 H   0  0  0  0  0  0
    5.9386   55.4863   17.8586 H   0  0  0  0  0  0
    7.5043   54.6787   18.0445 H   0  0  0  0  0  0
    4.7941   53.8994   19.4015 H   0  0  0  0  0  0
    4.2364   53.3687   21.7252 H   0  0  0  0  0  0
    7.5913   55.7325   23.0441 H   0  0  0  0  0  0
    8.1555   56.2237   20.7266 H   0  0  0  0  0  0
    4.6190   53.6065   23.8931 H   0  0  0  0  0  0
    2.6296   53.1286   30.1585 H   0  0  0  0  0  0
    1.5053   54.4850   30.1868 H   0  0  0  0  0  0
    0.6687   52.1083   31.1147 H   0  0  0  0  0  0
   -0.3908   53.0079   30.0476 H   0  0  0  0  0  0
    1.5552   50.8294   29.2817 H   0  0  0  0  0  0
   -0.2369   50.8980   28.9590 H   0  0  0  0  0  0
    0.0030   50.1596   27.2150 H   0  0  0  0  0  0
   -2.1368   49.4020   26.4817 H   0  0  0  0  0  0
   -3.3491   48.3922   24.6167 H   0  0  0  0  0  0
   -0.3853   49.8387   21.8801 H   0  0  0  0  0  0
    1.8022   50.4512   22.8505 H   0  0  0  0  0  0
    1.0997   52.0316   23.2249 H   0  0  0  0  0  0
    1.9049   51.0706   24.4790 H   0  0  0  0  0  0
   -1.9925   48.0538   21.2119 H   0  0  0  0  0  0
   -3.2705   47.5540   22.2947 H   0  0  0  0  0  0
   -3.3694   49.1307   21.4852 H   0  0  0  0  0  0
  1  2  1  0  0  0
  1 33  1  0  0  0
  1 34  1  0  0  0
  1 35  1  0  0  0
  2  7  2  0  0  0
  2  3  1  0  0  0
  3  4  2  0  0  0
  3 36  1  0  0  0
  4  5  1  0  0  0
  4 37  1  0  0  0
  5  6  2  0  0  0
  5  8  1  0  0  0
  6  7  1  0  0  0
  6 38  1  0  0  0
  7 39  1  0  0  0
  8  9  1  0  0  0
  8 40  1  0  0  0
  9 10  2  0  0  0
  9 11  1  0  0  0
 11 15  1  0  0  0
 11 12  2  0  0  0
 12 13  1  0  0  0
 13 14  2  0  0  0
 14 15  1  0  0  0
 14 16  1  0  0  0
 16 17  1  0  0  0
 16 21  1  0  0  0
 16 18  1  0  0  0
 18 19  1  0  0  0
 18 41  1  0  0  0
 18 42  1  0  0  0
 19 20  1  0  0  0
 19 43  1  0  0  0
 19 44  1  0  0  0
 20 21  1  0  0  0
 20 45  1  0  0  0
 20 46  1  0  0  0
 21 22  1  0  0  0
 22 23  2  0  0  0
 22 24  1  0  0  0
 24 25  1  0  0  0
 24 47  1  0  0  0
 25 30  2  0  0  0
 25 26  1  0  0  0
 26 27  2  0  0  0
 26 48  1  0  0  0
 27 28  1  0  0  0
 27 49  1  0  0  0
 28 29  2  0  0  0
 28 32  1  0  0  0
 29 30  1  0  0  0
 29 50  1  0  0  0
 30 31  1  0  0  0
 31 51  1  0  0  0
 31 52  1  0  0  0
 31 53  1  0  0  0
 32 54  1  0  0  0
 32 55  1  0  0  0
 32 56  1  0  0  0
M  END
> <i_i_glide_confnum>
198

> <i_i_glide_lignum>
2284

> <i_i_glide_posenum>
129

> <i_i_glide_rotatable_bonds>
7

> <i_m_Source_File_Index>
2554

> <b_m_subgroup_collapsed>
0

> <r_i_docking_score>
-5.66403

> <r_i_glide_ecoul>
-4.3292

> <r_i_glide_eff_state_penalty>
0

> <r_i_glide_einternal>
8.45721

> <r_i_glide_emodel>
-60.7898

> <r_i_glide_energy>
-48.1923

> <r_i_glide_erotb>
0.735257

> <r_i_glide_esite>
-0.0465172

> <r_i_glide_evdw>
-43.8631

> <r_i_glide_gscore>
-5.66403

> <r_i_glide_hbond>
-0.32

> <r_i_glide_ligand_efficiency>
-0.182711

> <r_i_glide_ligand_efficiency_ln>
-1.27741

> <r_i_glide_ligand_efficiency_sa>
-0.573963

> <r_i_glide_lipo>
-2.00331

> <r_i_glide_metal>
0

> <r_i_glide_rewards>
-1.18692

> <s_i_glide_gridfile>
wee1_glide-grid

> <s_m_Source_File>
wee1_decoys_glide_SP.sdf

> <s_m_Source_Path>
/Users/zhangxujun/Desktop

> <s_m_entry_id>
2829

> <s_m_entry_name>
wee1_decoys_glide_SP.2554

> <s_m_subgroup_title>
wee1_decoys_glide_SP

> <s_m_subgroupid>
wee1_decoys_glide_SP


$$$$
