@<TRIPOS>MOLECULE
ZINC45795450_3745
48   50    1
SMALL
USER_CHARGES


@<TRIPOS>ATOM
      1 C1          2.9432   53.6977   24.0164 C.3       1 UNK         0.0000 
      2 C2          4.2751   54.0961   23.4132 C.2       1 UNK         0.0000 
      3 C3          5.4392   54.5419   24.0583 C.2       1 UNK         0.0000 
      4 S4          6.6485   54.8964   22.8557 S.3       1 UNK         0.0000 
      5 C5          5.5040   54.4559   21.6255 C.2       1 UNK         0.0000 
      6 N6          4.3461   54.0553   22.0940 N.2       1 UNK         0.0000 
      7 C7          5.8544   54.4979   20.1698 C.ar      1 UNK         0.0000 
      8 C8          6.9084   55.2918   19.7025 C.ar      1 UNK         0.0000 
      9 C9          7.2591   55.2758   18.3558 C.ar      1 UNK         0.0000 
     10 C10         6.5502   54.4765   17.4541 C.ar      1 UNK         0.0000 
     11 C11         5.4876   53.6950   17.9150 C.ar      1 UNK         0.0000 
     12 C12         5.1396   53.7070   19.2618 C.ar      1 UNK         0.0000 
     13 C13         6.9534   54.4381   15.9796 C.3       1 UNK         0.0000 
     14 F14         6.6617   53.2608   15.4237 F         1 UNK         0.0000 
     15 F15         6.2908   55.3911   15.3258 F         1 UNK         0.0000 
     16 F16         8.2603   54.6503   15.8293 F         1 UNK         0.0000 
     17 C17         5.7482   54.7831   25.4613 C.2       1 UNK         0.0000 
     18 O18         6.7044   55.4657   25.8359 O.2       1 UNK         0.0000 
     19 O19         4.8633   54.1522   26.2785 O.3       1 UNK         0.0000 
     20 C20         4.9763   54.1694   27.7106 C.3       1 UNK         0.0000 
     21 H21         4.9499   55.2023   28.0610 H         1 UNK         0.0000 
     22 C22         6.3075   53.5304   28.1870 C.3       1 UNK         0.0000 
     23 C23         3.7282   53.4972   28.3545 C.2       1 UNK         0.0000 
     24 O24         3.8186   53.0279   29.4931 O.2       1 UNK         0.0000 
     25 N25         2.5802   53.4646   27.6332 N.am      1 UNK         0.0000 
     26 C26         1.4030   52.8467   28.0487 C.2       1 UNK         0.0000 
     27 C27         0.6403   52.9746   29.2340 C.2       1 UNK         0.0000 
     28 C28        -0.4352   52.0565   29.2302 C.2       1 UNK         0.0000 
     29 C29        -0.5230   51.2976   28.0735 C.2       1 UNK         0.0000 
     30 S30         0.7054   51.7063   26.9366 S.3       1 UNK         0.0000 
     31 C31         0.8456   53.9638   30.2731 C.2       1 UNK         0.0000 
     32 O32         1.4837   54.9984   30.0819 O.2       1 UNK         0.0000 
     33 N33         0.3032   53.6967   31.4659 N.am      1 UNK         0.0000 
     34 H34         3.0609   52.8866   24.7355 H         1 UNK         0.0000 
     35 H35         2.4839   54.5325   24.5488 H         1 UNK         0.0000 
     36 H36         2.2142   53.3575   23.2786 H         1 UNK         0.0000 
     37 H37         7.4776   55.9112   20.3794 H         1 UNK         0.0000 
     38 H38         8.0856   55.8867   18.0169 H         1 UNK         0.0000 
     39 H39         4.9361   53.0578   17.2375 H         1 UNK         0.0000 
     40 H40         4.3262   53.0773   19.5940 H         1 UNK         0.0000 
     41 H41         6.3955   53.5504   29.2685 H         1 UNK         0.0000 
     42 H42         6.3901   52.4963   27.8578 H         1 UNK         0.0000 
     43 H43         7.1840   54.0595   27.8233 H         1 UNK         0.0000 
     44 H44         2.6582   53.6976   26.6549 H         1 UNK         0.0000 
     45 H45        -1.1496   51.9479   30.0348 H         1 UNK         0.0000 
     46 H46        -1.2441   50.5230   27.8418 H         1 UNK         0.0000 
     47 H47        -0.2007   52.8387   31.6462 H         1 UNK         0.0000 
     48 H48         0.4274   54.3580   32.2166 H         1 UNK         0.0000 
@<TRIPOS>BOND
     1    1    2 1    
     2    1   34 1    
     3    1   35 1    
     4    1   36 1    
     5    2    6 1    
     6    2    3 2    
     7    3    4 1    
     8    3   17 1    
     9    4    5 1    
    10    5    6 2    
    11    5    7 1    
    12    7   12 ar   
    13    7    8 ar   
    14    8    9 ar   
    15    8   37 1    
    16    9   10 ar   
    17    9   38 1    
    18   10   11 ar   
    19   10   13 1    
    20   11   12 ar   
    21   11   39 1    
    22   12   40 1    
    23   13   14 1    
    24   13   15 1    
    25   13   16 1    
    26   17   18 2    
    27   17   19 1    
    28   19   20 1    
    29   20   21 1    
    30   20   22 1    
    31   20   23 1    
    32   22   41 1    
    33   22   42 1    
    34   22   43 1    
    35   23   24 2    
    36   23   25 am   BACKBONE|DICT|INTERRES
    37   25   26 am   BACKBONE|DICT|INTERRES
    38   25   44 1    
    39   26   30 1    
    40   26   27 2    
    41   27   28 1    
    42   27   31 1    
    43   28   29 2    
    44   28   45 1    
    45   29   30 1    
    46   29   46 1    
    47   31   32 2    
    48   31   33 am   BACKBONE|DICT|INTERRES
    49   33   47 1    
    50   33   48 1    
@<TRIPOS>SUBSTRUCTURE
     1 UNK         1 GROUP             0       ****    0 ROOT    
