@<TRIPOS>MOLECULE
ZINC55176749_1763
23   25    1
SMALL
USER_CHARGES


@<TRIPOS>ATOM
      1 C1          3.7120   54.0051   24.2739 C.ar      1 UNK         0.0000 
      2 C2          3.4000   54.0234   25.6356 C.ar      1 UNK         0.0000 
      3 C3          4.3155   54.4749   26.6199 C.ar      1 UNK         0.0000 
      4 C4          5.5933   54.8967   26.2401 C.ar      1 UNK         0.0000 
      5 C5          5.9032   54.8955   24.8818 C.ar      1 UNK         0.0000 
      6 C6          4.9900   54.4475   23.9232 C.ar      1 UNK         0.0000 
      7 F7          5.3434   54.4507   22.6178 F         1 UNK         0.0000 
      8 F8          7.1044   55.3608   24.4900 F         1 UNK         0.0000 
      9 N9          3.7609   54.4387   27.8690 N.2       1 UNK         0.0000 
     10 C10         2.5562   53.9559   27.6840 C.ar      1 UNK         0.0000 
     11 N11         2.2911   53.6657   26.3643 N.pl3     1 UNK         0.0000 
     12 H12         1.4143   53.2794   26.0475 H         1 UNK         0.0000 
     13 C13         1.6084   53.7375   28.7597 C.2       1 UNK         0.0000 
     14 C14         1.4960   54.5672   29.8759 C.2       1 UNK         0.0000 
     15 S15         0.3044   53.9285   30.9619 S.3       1 UNK         0.0000 
     16 C16         0.0312   52.6595   29.8176 C.2       1 UNK         0.0000 
     17 N17         0.7706   52.7124   28.7402 N.2       1 UNK         0.0000 
     18 N18        -0.8956   51.6967   30.0817 N.pl3     1 UNK         0.0000 
     19 H19         3.0153   53.6643   23.5225 H         1 UNK         0.0000 
     20 H20         6.3044   55.2457   26.9743 H         1 UNK         0.0000 
     21 H21         2.0400   55.4750   30.0921 H         1 UNK         0.0000 
     22 H22        -1.0807   50.9337   29.4422 H         1 UNK         0.0000 
     23 H23        -1.2618   51.5720   31.0256 H         1 UNK         0.0000 
@<TRIPOS>BOND
     1    1    6 ar   
     2    1    2 ar   
     3    1   19 1    
     4    2   11 ar   
     5    2    3 ar   
     6    3    4 ar   
     7    3    9 ar   
     8    4    5 ar   
     9    4   20 1    
    10    5    6 ar   
    11    5    8 1    
    12    6    7 1    
    13    9   10 ar   
    14   10   11 ar   
    15   10   13 1    
    16   11   12 1    
    17   13   17 1    
    18   13   14 2    
    19   14   15 1    
    20   14   21 1    
    21   15   16 1    
    22   16   17 2    
    23   16   18 1    
    24   18   22 1    
    25   18   23 1    
@<TRIPOS>SUBSTRUCTURE
     1 UNK         1 GROUP             0       ****    0 ROOT    
