@<TRIPOS>MOLECULE
ZINC09028321_2833
35   36    1
SMALL
USER_CHARGES


@<TRIPOS>ATOM
      1 C1          6.5280   54.0966   26.9857 C.ar      1 UNK         0.0000 
      2 C2          5.7020   53.8112   28.0673 C.ar      1 UNK         0.0000 
      3 C3          4.3186   54.0147   27.9811 C.ar      1 UNK         0.0000 
      4 C4          3.7802   54.4967   26.7817 C.ar      1 UNK         0.0000 
      5 C5          4.6072   54.7873   25.7003 C.ar      1 UNK         0.0000 
      6 C6          5.9874   54.5778   25.7918 C.ar      1 UNK         0.0000 
      7 C7          6.9210   54.9224   24.6268 C.3       1 UNK         0.0000 
      8 C8          6.4577   54.3962   23.2561 C.2       1 UNK         0.0000 
      9 O9          5.9061   53.2980   23.1916 O.2       1 UNK         0.0000 
     10 N10         6.6949   55.2170   22.1970 N.am      1 UNK         0.0000 
     11 N11         6.1108   55.2758   20.9410 N.2       1 UNK         0.0000 
     12 C12         5.3995   54.3234   20.4504 C.2       1 UNK         0.0000 
     13 C13         4.6508   54.4186   19.1811 C.ar      1 UNK         0.0000 
     14 C14         4.6120   55.6363   18.4797 C.ar      1 UNK         0.0000 
     15 C15         3.8809   55.7712   17.3032 C.ar      1 UNK         0.0000 
     16 C16         3.1878   54.6817   16.7882 C.ar      1 UNK         0.0000 
     17 C17         3.2149   53.4587   17.4536 C.ar      1 UNK         0.0000 
     18 C18         3.9347   53.3195   18.6487 C.ar      1 UNK         0.0000 
     19 O19         3.9046   52.0968   19.2820 O.3       1 UNK         0.0000 
     20 Br20        2.2419   51.9949   16.7098 Br        1 UNK         0.0000 
     21 Br21        3.8155   57.4524   16.4151 Br        1 UNK         0.0000 
     22 N22         3.4386   53.7343   29.1410 N.pl3     1 UNK         0.0000 
     23 O23         3.9042   53.1267   30.1008 O.co2     1 UNK         0.0000 
     24 O24         2.2781   54.1330   29.1066 O.co2     1 UNK         0.0000 
     25 H25         7.5892   53.9355   27.0875 H         1 UNK         0.0000 
     26 H26         6.1521   53.4375   28.9733 H         1 UNK         0.0000 
     27 H27         2.7152   54.6508   26.6835 H         1 UNK         0.0000 
     28 H28         4.1686   55.1632   24.7879 H         1 UNK         0.0000 
     29 H29         7.0576   56.0043   24.6001 H         1 UNK         0.0000 
     30 H30         7.9037   54.4976   24.8209 H         1 UNK         0.0000 
     31 H31         7.2479   56.0380   22.3935 H         1 UNK         0.0000 
     32 H32         5.2905   53.3626   20.9408 H         1 UNK         0.0000 
     33 H33         5.1353   56.5057   18.8525 H         1 UNK         0.0000 
     34 H34         2.6228   54.7860   15.8736 H         1 UNK         0.0000 
     35 H35         4.4158   51.4203   18.7909 H         1 UNK         0.0000 
@<TRIPOS>BOND
     1    1    6 ar   
     2    1    2 ar   
     3    1   25 1    
     4    2    3 ar   
     5    2   26 1    
     6    3    4 ar   
     7    3   22 1    
     8    4    5 ar   
     9    4   27 1    
    10    5    6 ar   
    11    5   28 1    
    12    6    7 1    
    13    7    8 1    
    14    7   29 1    
    15    7   30 1    
    16    8    9 2    
    17    8   10 am   BACKBONE|DICT|INTERRES
    18   10   11 1    
    19   10   31 1    
    20   11   12 2    
    21   12   13 1    
    22   12   32 1    
    23   13   18 ar   
    24   13   14 ar   
    25   14   15 ar   
    26   14   33 1    
    27   15   16 ar   
    28   15   21 1    
    29   16   17 ar   
    30   16   34 1    
    31   17   18 ar   
    32   17   20 1    
    33   18   19 1    
    34   19   35 1    
    35   22   23 2    
    36   22   24 1    
@<TRIPOS>SUBSTRUCTURE
     1 UNK         1 GROUP             0       ****    0 ROOT    
