@<TRIPOS>MOLECULE
ZINC56069976_4598
52   54    1
SMALL
USER_CHARGES


@<TRIPOS>ATOM
      1 C1         -1.9582   50.9179   27.5432 C.3       1 UNK         0.0000 
      2 C2         -0.7463   51.7475   27.9213 C.ar      1 UNK         0.0000 
      3 C3          0.1140   52.1993   26.9247 C.ar      1 UNK         0.0000 
      4 C4          1.1836   53.0270   27.2511 C.ar      1 UNK         0.0000 
      5 C5          1.4180   53.4148   28.5733 C.ar      1 UNK         0.0000 
      6 C6          0.5724   52.9274   29.5901 C.ar      1 UNK         0.0000 
      7 C7         -0.4966   52.0897   29.2526 C.ar      1 UNK         0.0000 
      8 C8          0.7544   53.3103   31.0519 C.3       1 UNK         0.0000 
      9 S9          2.7494   54.5792   28.9238 S.o2      1 UNK         0.0000 
     10 O10         3.5935   53.9674   29.9557 O.2       1 UNK         0.0000 
     11 O11         2.0861   55.8603   29.1858 O.2       1 UNK         0.0000 
     12 N12         3.7026   54.7942   27.4419 N.pl3     1 UNK         0.0000 
     13 C13         4.6308   53.7736   26.8965 C.3       1 UNK         0.0000 
     14 H14         4.0967   52.8232   26.8900 H         1 UNK         0.0000 
     15 C15         5.8727   53.6009   27.7988 C.3       1 UNK         0.0000 
     16 C16         4.9466   54.0964   25.4210 C.ar      1 UNK         0.0000 
     17 C17         3.9413   53.9177   24.4624 C.ar      1 UNK         0.0000 
     18 C18         4.2029   54.0966   23.1085 C.ar      1 UNK         0.0000 
     19 C19         5.4697   54.4967   22.6882 C.ar      1 UNK         0.0000 
     20 C20         6.4874   54.6922   23.6340 C.ar      1 UNK         0.0000 
     21 C21         6.2218   54.4973   24.9908 C.ar      1 UNK         0.0000 
     22 N22         5.6340   54.6942   21.3057 N.am      1 UNK         0.0000 
     23 C23         6.4070   55.6146   20.6976 C.2       1 UNK         0.0000 
     24 O24         7.1039   56.4426   21.2818 O.2       1 UNK         0.0000 
     25 N25         6.2739   55.5537   19.3608 N.am      1 UNK         0.0000 
     26 C26         6.6571   56.5478   18.3440 C.3       1 UNK         0.0000 
     27 C27         6.6999   58.0321   18.6623 C.3       1 UNK         0.0000 
     28 C28         7.9860   57.2725   18.4262 C.3       1 UNK         0.0000 
     29 H29        -2.4515   50.4969   28.4195 H         1 UNK         0.0000 
     30 H30        -2.6787   51.5311   27.0023 H         1 UNK         0.0000 
     31 H31        -1.6687   50.0966   26.8838 H         1 UNK         0.0000 
     32 H32        -0.0647   51.9354   25.8921 H         1 UNK         0.0000 
     33 H33         1.7985   53.3975   26.4534 H         1 UNK         0.0000 
     34 H34        -1.1562   51.7194   30.0258 H         1 UNK         0.0000 
     35 H35        -0.0667   52.9539   31.6776 H         1 UNK         0.0000 
     36 H36         1.6826   52.8926   31.4412 H         1 UNK         0.0000 
     37 H37         0.7978   54.3943   31.1601 H         1 UNK         0.0000 
     38 H38         3.3083   55.4411   26.7557 H         1 UNK         0.0000 
     39 H39         6.5837   52.9007   27.3589 H         1 UNK         0.0000 
     40 H40         6.3886   54.5474   27.9655 H         1 UNK         0.0000 
     41 H41         5.6134   53.1947   28.7745 H         1 UNK         0.0000 
     42 H42         2.9547   53.5946   24.7465 H         1 UNK         0.0000 
     43 H43         3.4084   53.9419   22.3915 H         1 UNK         0.0000 
     44 H44         7.4857   54.9842   23.3294 H         1 UNK         0.0000 
     45 H45         7.0265   54.6392   25.6949 H         1 UNK         0.0000 
     46 H46         4.9906   54.1833   20.7209 H         1 UNK         0.0000 
     47 H47         5.8382   54.7238   18.9874 H         1 UNK         0.0000 
     48 H48         6.3071   56.2707   17.3483 H         1 UNK         0.0000 
     49 H49         6.4538   58.3727   19.6669 H         1 UNK         0.0000 
     50 H50         6.3517   58.7356   17.9037 H         1 UNK         0.0000 
     51 H51         8.5373   57.4403   17.5006 H         1 UNK         0.0000 
     52 H52         8.6537   57.0637   19.2628 H         1 UNK         0.0000 
@<TRIPOS>BOND
     1    1    2 1    
     2    1   29 1    
     3    1   30 1    
     4    1   31 1    
     5    2    7 ar   
     6    2    3 ar   
     7    3    4 ar   
     8    3   32 1    
     9    4    5 ar   
    10    4   33 1    
    11    5    6 ar   
    12    5    9 1    
    13    6    7 ar   
    14    6    8 1    
    15    7   34 1    
    16    8   35 1    
    17    8   36 1    
    18    8   37 1    
    19    9   10 2    
    20    9   11 2    
    21    9   12 1    
    22   12   13 1    
    23   12   38 1    
    24   13   14 1    
    25   13   15 1    
    26   13   16 1    
    27   15   39 1    
    28   15   40 1    
    29   15   41 1    
    30   16   21 ar   
    31   16   17 ar   
    32   17   18 ar   
    33   17   42 1    
    34   18   19 ar   
    35   18   43 1    
    36   19   20 ar   
    37   19   22 1    
    38   20   21 ar   
    39   20   44 1    
    40   21   45 1    
    41   22   23 am   BACKBONE|DICT|INTERRES
    42   22   46 1    
    43   23   24 2    
    44   23   25 am   BACKBONE|DICT|INTERRES
    45   25   26 1    
    46   25   47 1    
    47   26   28 1    
    48   26   27 1    
    49   26   48 1    
    50   27   28 1    
    51   27   49 1    
    52   27   50 1    
    53   28   51 1    
    54   28   52 1    
@<TRIPOS>SUBSTRUCTURE
     1 UNK         1 GROUP             0       ****    0 ROOT    
