ZINC45891710_1749
                    3D
 Schrodinger Suite 2024-2.
 39 40  0  0  1  0            999 V2000
    0.1715   53.5866   30.0712 C   0  0  0  0  0  0
    1.6329   53.1754   29.8063 C   0  0  0  0  0  0
    1.6519   52.2380   28.5666 C   0  0  0  0  0  0
    1.9727   52.8915   27.2039 C   0  0  0  0  0  0
    3.1462   53.7660   27.3007 N   0  0  0  0  0  0
    2.7000   54.8987   28.1194 C   0  0  0  0  0  0
    2.4655   54.4673   29.5819 C   0  0  0  0  0  0
    3.9832   54.0054   26.2061 C   0  0  0  0  0  0
    3.5042   53.9111   24.8864 C   0  0  0  0  0  0
    4.3497   54.0974   23.7860 C   0  0  0  0  0  0
    5.6809   54.4967   24.0028 C   0  0  0  0  0  0
    6.1579   54.6306   25.3048 C   0  0  0  0  0  0
    5.3319   54.3817   26.3999 C   0  0  0  0  0  0
    5.8922   54.4963   27.6796 N   0  0  0  0  0  0
    6.7559   54.8891   22.7027 Cl  0  0  0  0  0  0
    3.8008   53.9541   22.4977 N   0  0  0  0  0  0
    4.2142   53.0609   21.5735 C   0  0  0  0  0  0
    5.1044   52.2318   21.7520 O   0  0  0  0  0  0
    3.5044   53.0953   20.2278 C   0  0  0  0  0  0
   -0.2674   54.0964   29.2120 H   0  0  0  0  0  0
   -0.4506   52.7175   30.2904 H   0  0  0  0  0  0
    0.0921   54.2523   30.9318 H   0  0  0  0  0  0
    2.0321   52.6356   30.6665 H   0  0  0  0  0  0
    0.7546   51.6173   28.5176 H   0  0  0  0  0  0
    2.4219   51.4809   28.7264 H   0  0  0  0  0  0
    1.1072   53.4251   26.8046 H   0  0  0  0  0  0
    2.1909   52.0968   26.4930 H   0  0  0  0  0  0
    3.4466   55.6949   28.1188 H   0  0  0  0  0  0
    1.7948   55.3421   27.6998 H   0  0  0  0  0  0
    3.4570   54.3018   30.0070 H   0  0  0  0  0  0
    2.0992   55.2947   30.1930 H   0  0  0  0  0  0
    2.4729   53.6436   24.7096 H   0  0  0  0  0  0
    7.1846   54.9245   25.4549 H   0  0  0  0  0  0
    5.3034   54.2755   28.4699 H   0  0  0  0  0  0
    6.8332   54.8353   27.8199 H   0  0  0  0  0  0
    2.9882   54.5094   22.2761 H   0  0  0  0  0  0
    3.5325   54.0984   19.8024 H   0  0  0  0  0  0
    2.4633   52.7925   20.3375 H   0  0  0  0  0  0
    3.9848   52.4147   19.5215 H   0  0  0  0  0  0
  1  2  1  0  0  0
  1 20  1  0  0  0
  1 21  1  0  0  0
  1 22  1  0  0  0
  2  7  1  0  0  0
  2  3  1  0  0  0
  2 23  1  0  0  0
  3  4  1  0  0  0
  3 24  1  0  0  0
  3 25  1  0  0  0
  4  5  1  0  0  0
  4 26  1  0  0  0
  4 27  1  0  0  0
  5  6  1  0  0  0
  5  8  1  0  0  0
  6  7  1  0  0  0
  6 28  1  0  0  0
  6 29  1  0  0  0
  7 30  1  0  0  0
  7 31  1  0  0  0
  8 13  2  0  0  0
  8  9  1  0  0  0
  9 10  2  0  0  0
  9 32  1  0  0  0
 10 11  1  0  0  0
 10 16  1  0  0  0
 11 12  2  0  0  0
 11 15  1  0  0  0
 12 13  1  0  0  0
 12 33  1  0  0  0
 13 14  1  0  0  0
 14 34  1  0  0  0
 14 35  1  0  0  0
 16 17  1  0  0  0
 16 36  1  0  0  0
 17 18  2  0  0  0
 17 19  1  0  0  0
 19 37  1  0  0  0
 19 38  1  0  0  0
 19 39  1  0  0  0
M  END
> <i_i_glide_confnum>
23

> <i_i_glide_lignum>
1750

> <i_i_glide_posenum>
325

> <i_i_glide_rotatable_bonds>
3

> <i_m_Source_File_Index>
3862

> <b_m_subgroup_collapsed>
0

> <r_i_docking_score>
-6.30583

> <r_i_glide_ecoul>
-1.48736

> <r_i_glide_eff_state_penalty>
0

> <r_i_glide_einternal>
2.92658

> <r_i_glide_emodel>
-50.9331

> <r_i_glide_energy>
-37.6046

> <r_i_glide_erotb>
0.455481

> <r_i_glide_esite>
0

> <r_i_glide_evdw>
-36.1172

> <r_i_glide_gscore>
-6.30583

> <r_i_glide_hbond>
-0.000131625

> <r_i_glide_ligand_efficiency>
-0.331886

> <r_i_glide_ligand_efficiency_ln>
-1.59866

> <r_i_glide_ligand_efficiency_sa>
-0.885605

> <r_i_glide_lipo>
-2.76896

> <r_i_glide_metal>
0

> <r_i_glide_rewards>
-1.96326

> <s_i_glide_gridfile>
wee1_glide-grid

> <s_m_Source_File>
wee1_decoys_glide_SP.sdf

> <s_m_Source_Path>
/Users/zhangxujun/Desktop

> <s_m_entry_id>
4137

> <s_m_entry_name>
wee1_decoys_glide_SP.3862

> <s_m_subgroup_title>
wee1_decoys_glide_SP

> <s_m_subgroupid>
wee1_decoys_glide_SP


$$$$
