@<TRIPOS>MOLECULE
ZINC46621178_3747
47   50    1
SMALL
USER_CHARGES


@<TRIPOS>ATOM
      1 C1          3.5187   52.6599   20.2357 C.ar      1 UNK         0.0000 
      2 C2          3.8515   53.2199   21.4664 C.ar      1 UNK         0.0000 
      3 C3          2.9470   53.1754   22.5282 C.ar      1 UNK         0.0000 
      4 C4          1.6980   52.5605   22.3417 C.ar      1 UNK         0.0000 
      5 C5          1.3658   52.0071   21.1130 C.ar      1 UNK         0.0000 
      6 C6          2.2682   52.0488   20.0471 C.ar      1 UNK         0.0000 
      7 C7          1.8935   51.3979   18.7373 C.2       1 UNK         0.0000 
      8 O8          1.0619   50.4848   18.7145 O.2       1 UNK         0.0000 
      9 N9          2.5265   51.8793   17.6428 N.am      1 UNK         0.0000 
     10 N10         2.3207   51.2966   16.3856 N.am      1 UNK         0.0000 
     11 C11         1.1649   51.4685   15.7014 C.2       1 UNK         0.0000 
     12 O12         0.2567   52.2220   16.0652 O.2       1 UNK         0.0000 
     13 C13         1.0585   50.7076   14.3951 C.ar      1 UNK         0.0000 
     14 C14         1.9335   49.6352   14.0843 C.ar      1 UNK         0.0000 
     15 C15         1.8282   48.9340   12.8751 C.ar      1 UNK         0.0000 
     16 C16         0.8396   49.3310   11.9845 C.ar      1 UNK         0.0000 
     17 C17        -0.0150   50.3559   12.2701 C.ar      1 UNK         0.0000 
     18 C18         0.0580   51.0618   13.4660 C.ar      1 UNK         0.0000 
     19 O19        -0.8966   50.5046   11.2463 O.3       1 UNK         0.0000 
     20 C20        -0.4120   49.6898   10.2134 C.3       1 UNK         0.0000 
     21 O21         0.5232   48.8050   10.7721 O.3       1 UNK         0.0000 
     22 N22         3.3987   53.6968   23.7573 N.am      1 UNK         0.0000 
     23 C23         2.7261   53.8126   24.9240 C.2       1 UNK         0.0000 
     24 O24         1.5044   53.6960   25.0241 O.2       1 UNK         0.0000 
     25 C25         3.5502   54.0842   26.1669 C.ar      1 UNK         0.0000 
     26 C26         4.9542   54.1872   26.1403 C.ar      1 UNK         0.0000 
     27 C27         5.6735   54.3899   27.3197 C.ar      1 UNK         0.0000 
     28 C28         5.0098   54.4965   28.5384 C.ar      1 UNK         0.0000 
     29 C29         3.6226   54.3924   28.5808 C.ar      1 UNK         0.0000 
     30 C30         2.9017   54.1904   27.4080 C.ar      1 UNK         0.0000 
     31 Cl31        2.7866   54.5012   30.0817 Cl        1 UNK         0.0000 
     32 Cl32        7.3909   54.4967   27.2806 Cl        1 UNK         0.0000 
     33 H33         4.2536   52.6855   19.4430 H         1 UNK         0.0000 
     34 H34         4.8256   53.6708   21.5878 H         1 UNK         0.0000 
     35 H35         0.9704   52.4670   23.1302 H         1 UNK         0.0000 
     36 H36         0.4022   51.5289   21.0020 H         1 UNK         0.0000 
     37 H37         2.9000   52.8143   17.5817 H         1 UNK         0.0000 
     38 H38         2.9075   50.4728   16.2765 H         1 UNK         0.0000 
     39 H39         2.7030   49.3200   14.7772 H         1 UNK         0.0000 
     40 H40         2.4960   48.1154   12.6538 H         1 UNK         0.0000 
     41 H41        -0.6374   51.8641   13.6706 H         1 UNK         0.0000 
     42 H42         0.0874   50.3144    9.4705 H         1 UNK         0.0000 
     43 H43        -1.2242   49.1437    9.7367 H         1 UNK         0.0000 
     44 H44         4.3772   53.9317   23.7782 H         1 UNK         0.0000 
     45 H45         5.5101   54.0934   25.2199 H         1 UNK         0.0000 
     46 H46         5.5734   54.6659   29.4438 H         1 UNK         0.0000 
     47 H47         1.8259   54.1051   27.4768 H         1 UNK         0.0000 
@<TRIPOS>BOND
     1    1    6 ar   
     2    1    2 ar   
     3    1   33 1    
     4    2    3 ar   
     5    2   34 1    
     6    3    4 ar   
     7    3   22 1    
     8    4    5 ar   
     9    4   35 1    
    10    5    6 ar   
    11    5   36 1    
    12    6    7 1    
    13    7    8 2    
    14    7    9 am   BACKBONE|DICT|INTERRES
    15    9   10 1    
    16    9   37 1    
    17   10   11 am   BACKBONE|DICT|INTERRES
    18   10   38 1    
    19   11   12 2    
    20   11   13 1    
    21   13   18 ar   
    22   13   14 ar   
    23   14   15 ar   
    24   14   39 1    
    25   15   16 ar   
    26   15   40 1    
    27   16   21 1    
    28   16   17 ar   
    29   17   18 ar   
    30   17   19 1    
    31   18   41 1    
    32   19   20 1    
    33   20   21 1    
    34   20   42 1    
    35   20   43 1    
    36   22   23 am   BACKBONE|DICT|INTERRES
    37   22   44 1    
    38   23   24 2    
    39   23   25 1    
    40   25   30 ar   
    41   25   26 ar   
    42   26   27 ar   
    43   26   45 1    
    44   27   28 ar   
    45   27   32 1    
    46   28   29 ar   
    47   28   46 1    
    48   29   30 ar   
    49   29   31 1    
    50   30   47 1    
@<TRIPOS>SUBSTRUCTURE
     1 UNK         1 GROUP             0       ****    0 ROOT    
