ZINC15874382_4572
                    3D
 Schrodinger Suite 2024-2.
 45 47  0  0  1  0            999 V2000
    4.3340   53.9744   28.8808 C   0  0  0  0  0  0
    3.2683   53.5739   28.0815 C   0  0  0  0  0  0
    3.3594   53.6964   26.6990 C   0  0  0  0  0  0
    4.5056   54.2063   26.1385 N   0  0  0  0  0  0
    5.6000   54.6136   26.9184 C   0  0  0  0  0  0
    5.5010   54.4967   28.3183 C   0  0  0  0  0  0
    6.6005   55.0946   26.1365 N   0  0  0  0  0  0
    6.1459   54.9884   24.9040 C   0  0  0  0  0  0
    4.8679   54.4227   24.8293 C   0  0  0  0  0  0
    4.0057   54.0965   23.7129 C   0  0  0  0  0  0
    4.3830   53.4886   22.5681 C   0  0  0  0  0  0
    3.4454   53.0874   21.5482 C   0  0  0  0  0  0
    3.6912   53.2296   20.3505 O   0  0  0  0  0  0
    2.3480   52.4871   22.0456 N   0  0  0  0  0  0
    1.3174   52.0968   21.1975 N   0  0  0  0  0  0
    0.0795   51.7697   21.6787 C   0  0  0  0  0  0
   -1.0704   51.2985   20.5635 S   0  0  0  0  0  0
   -0.1156   51.8582   23.0373 N   0  0  0  0  0  0
   -1.3689   51.6153   23.7655 C   0  0  0  0  0  0
   -1.1052   51.1710   25.2269 C   0  0  0  0  0  0
   -2.3831   50.9792   26.0642 C   0  0  0  0  0  0
   -3.3025   52.2108   26.0047 C   0  0  0  0  0  0
   -3.6539   52.5649   24.5515 C   0  0  0  0  0  0
   -2.3994   52.7755   23.6804 C   0  0  0  0  0  0
    7.0951   55.5178   23.5733 Cl  0  0  0  0  0  0
    4.2565   53.8832   29.9565 H   0  0  0  0  0  0
    2.3736   53.1682   28.5328 H   0  0  0  0  0  0
    2.5679   53.4004   26.0275 H   0  0  0  0  0  0
    6.3046   54.8225   28.9569 H   0  0  0  0  0  0
    2.9674   54.3572   23.8757 H   0  0  0  0  0  0
    5.4174   53.2538   22.3648 H   0  0  0  0  0  0
    2.0751   52.5556   23.0111 H   0  0  0  0  0  0
    1.4217   52.5130   20.2795 H   0  0  0  0  0  0
    0.6739   52.0879   23.6186 H   0  0  0  0  0  0
   -1.8513   50.7432   23.3166 H   0  0  0  0  0  0
   -0.5281   50.2435   25.2462 H   0  0  0  0  0  0
   -0.5015   51.9290   25.7296 H   0  0  0  0  0  0
   -2.9218   50.1005   25.7038 H   0  0  0  0  0  0
   -2.1168   50.7557   27.0988 H   0  0  0  0  0  0
   -4.2136   52.0241   26.5746 H   0  0  0  0  0  0
   -2.8094   53.0615   26.4774 H   0  0  0  0  0  0
   -4.2602   51.7637   24.1194 H   0  0  0  0  0  0
   -4.2754   53.4618   24.5241 H   0  0  0  0  0  0
   -1.9137   53.6973   24.0061 H   0  0  0  0  0  0
   -2.7107   52.9257   22.6465 H   0  0  0  0  0  0
  1  6  2  0  0  0
  1  2  1  0  0  0
  1 26  1  0  0  0
  2  3  2  0  0  0
  2 27  1  0  0  0
  3  4  1  0  0  0
  3 28  1  0  0  0
  4  9  1  0  0  0
  4  5  1  0  0  0
  5  6  1  0  0  0
  5  7  2  0  0  0
  6 29  1  0  0  0
  7  8  1  0  0  0
  8  9  2  0  0  0
  8 25  1  0  0  0
  9 10  1  0  0  0
 10 11  2  0  0  0
 10 30  1  0  0  0
 11 12  1  0  0  0
 11 31  1  0  0  0
 12 13  2  0  0  0
 12 14  1  0  0  0
 14 15  1  0  0  0
 14 32  1  0  0  0
 15 16  1  0  0  0
 15 33  1  0  0  0
 16 17  2  0  0  0
 16 18  1  0  0  0
 18 19  1  0  0  0
 18 34  1  0  0  0
 19 24  1  0  0  0
 19 20  1  0  0  0
 19 35  1  0  0  0
 20 21  1  0  0  0
 20 36  1  0  0  0
 20 37  1  0  0  0
 21 22  1  0  0  0
 21 38  1  0  0  0
 21 39  1  0  0  0
 22 23  1  0  0  0
 22 40  1  0  0  0
 22 41  1  0  0  0
 23 24  1  0  0  0
 23 42  1  0  0  0
 23 43  1  0  0  0
 24 44  1  0  0  0
 24 45  1  0  0  0
M  END
> <i_i_glide_confnum>
11

> <i_i_glide_lignum>
4573

> <i_i_glide_posenum>
103

> <i_i_glide_rotatable_bonds>
7

> <i_m_Source_File_Index>
5985

> <b_m_subgroup_collapsed>
0

> <r_i_docking_score>
-6.36885

> <r_i_glide_ecoul>
-2.02955

> <r_i_glide_eff_state_penalty>
0

> <r_i_glide_einternal>
6.22286

> <r_i_glide_emodel>
-56.1203

> <r_i_glide_energy>
-41.3204

> <r_i_glide_erotb>
0.678325

> <r_i_glide_esite>
-0.0207617

> <r_i_glide_evdw>
-39.2909

> <r_i_glide_gscore>
-6.36885

> <r_i_glide_hbond>
-0.235293

> <r_i_glide_ligand_efficiency>
-0.254754

> <r_i_glide_ligand_efficiency_ln>
-1.50961

> <r_i_glide_ligand_efficiency_sa>
-0.744905

> <r_i_glide_lipo>
-2.06249

> <r_i_glide_metal>
0

> <r_i_glide_rewards>
-2.45965

> <s_i_glide_gridfile>
wee1_glide-grid

> <s_m_Source_File>
wee1_decoys_glide_SP.sdf

> <s_m_Source_Path>
/Users/zhangxujun/Desktop

> <s_m_entry_id>
6260

> <s_m_entry_name>
wee1_decoys_glide_SP.5985

> <s_m_subgroup_title>
wee1_decoys_glide_SP

> <s_m_subgroupid>
wee1_decoys_glide_SP


$$$$
