@<TRIPOS>MOLECULE
ZINC39684666_790
65   67    1
SMALL
USER_CHARGES


@<TRIPOS>ATOM
      1 C1         -0.4855   52.2997   21.1703 C.3       1 UNK         0.0000 
      2 C2          0.4554   52.2300   19.9446 C.3       1 UNK         0.0000 
      3 H3          0.8471   53.2343   19.7746 H         1 UNK         0.0000 
      4 C4         -0.2405   51.8161   18.5945 C.3       1 UNK         0.0000 
      5 C5          0.8030   51.7591   17.4465 C.3       1 UNK         0.0000 
      6 C6         -1.3169   52.8477   18.1746 C.3       1 UNK         0.0000 
      7 C7         -0.9070   50.4209   18.7043 C.3       1 UNK         0.0000 
      8 N8          1.5595   51.3327   20.2871 N.am      1 UNK         0.0000 
      9 C9          2.7436   51.5663   20.8686 C.2       1 UNK         0.0000 
     10 O10         3.3889   50.5858   21.2298 O.2       1 UNK         0.0000 
     11 C11         3.2607   53.0113   21.1707 C.3       1 UNK         0.0000 
     12 H12         2.4229   53.6960   21.2811 H         1 UNK         0.0000 
     13 C13         4.0107   52.9464   22.5048 C.3       1 UNK         0.0000 
     14 N14         4.9307   54.0767   22.4916 N.am      1 UNK         0.0000 
     15 C15         5.1691   54.5483   21.1225 C.3       1 UNK         0.0000 
     16 C16         4.3638   53.5892   20.2135 C.3       1 UNK         0.0000 
     17 C17         3.7340   54.2511   18.9606 C.3       1 UNK         0.0000 
     18 C18         4.7450   54.8286   17.9611 C.3       1 UNK         0.0000 
     19 N19         5.5912   53.6536   17.4472 N.4       1 UNK         0.0000 
     20 C20         6.3358   52.9492   18.5913 C.3       1 UNK         0.0000 
     21 C21         5.3334   52.4955   19.6820 C.3       1 UNK         0.0000 
     22 C22         5.6861   54.4975   23.5390 C.2       1 UNK         0.0000 
     23 O23         6.7044   55.1683   23.3593 O.2       1 UNK         0.0000 
     24 C24         5.2446   54.2458   24.9694 C.ar      1 UNK         0.0000 
     25 C25         3.8959   54.2679   25.3590 C.ar      1 UNK         0.0000 
     26 C26         3.5310   54.0798   26.6951 C.ar      1 UNK         0.0000 
     27 C27         4.5114   53.8870   27.6754 C.ar      1 UNK         0.0000 
     28 C28         5.8591   53.9074   27.3041 C.ar      1 UNK         0.0000 
     29 C29         6.2127   54.0971   25.9697 C.ar      1 UNK         0.0000 
     30 Cl30        7.1042   53.6966   28.4800 Cl        1 UNK         0.0000 
     31 O31         4.1546   53.7174   28.9931 O.3       1 UNK         0.0000 
     32 C32         3.9946   52.3599   29.3830 C.3       1 UNK         0.0000 
     33 Cl33        1.8582   54.0938   27.1242 Cl        1 UNK         0.0000 
     34 H34        -1.3856   52.8799   20.9796 H         1 UNK         0.0000 
     35 H35        -0.8224   51.3085   21.4767 H         1 UNK         0.0000 
     36 H36         0.0114   52.7676   22.0210 H         1 UNK         0.0000 
     37 H37         1.6046   51.0465   17.6481 H         1 UNK         0.0000 
     38 H38         0.3487   51.4586   16.5014 H         1 UNK         0.0000 
     39 H39         1.2653   52.7314   17.2786 H         1 UNK         0.0000 
     40 H40        -2.1473   52.8900   18.8782 H         1 UNK         0.0000 
     41 H41        -0.9009   53.8522   18.0816 H         1 UNK         0.0000 
     42 H42        -1.7486   52.5965   17.2045 H         1 UNK         0.0000 
     43 H43        -1.7008   50.4053   19.4522 H         1 UNK         0.0000 
     44 H44        -1.3586   50.1182   17.7580 H         1 UNK         0.0000 
     45 H45        -0.1880   49.6462   18.9734 H         1 UNK         0.0000 
     46 H46         1.3671   50.3547   20.1307 H         1 UNK         0.0000 
     47 H47         3.3553   52.8335   23.3652 H         1 UNK         0.0000 
     48 H48         4.6946   52.0984   22.4815 H         1 UNK         0.0000 
     49 H49         6.2123   54.6210   20.8128 H         1 UNK         0.0000 
     50 H50         4.7048   55.5267   21.0612 H         1 UNK         0.0000 
     51 H51         3.1067   55.0745   19.2724 H         1 UNK         0.0000 
     52 H52         3.0683   53.5484   18.4584 H         1 UNK         0.0000 
     53 H53         5.4246   55.5628   18.4001 H         1 UNK         0.0000 
     54 H54         4.2605   55.2644   17.0851 H         1 UNK         0.0000 
     55 H55         6.2514   53.9700   16.7492 H         1 UNK         0.0000 
     56 H56         7.0784   53.6647   18.9486 H         1 UNK         0.0000 
     57 H57         6.8456   52.1058   18.1189 H         1 UNK         0.0000 
     58 H58         4.7056   51.7088   19.2817 H         1 UNK         0.0000 
     59 H59         5.8962   52.0233   20.4906 H         1 UNK         0.0000 
     60 H60         3.1157   54.4636   24.6378 H         1 UNK         0.0000 
     61 H61         7.2557   54.1229   25.7089 H         1 UNK         0.0000 
     62 H62         3.7010   52.3175   30.4315 H         1 UNK         0.0000 
     63 H63         3.2169   51.8631   28.8010 H         1 UNK         0.0000 
     64 H64         4.9233   51.7982   29.2786 H         1 UNK         0.0000 
     65 H65         4.9913   52.9722   16.9972 H         1 UNK         0.0000 
@<TRIPOS>BOND
     1    1    2 1    
     2    1   34 1    
     3    1   35 1    
     4    1   36 1    
     5    2    3 1    
     6    2    4 1    
     7    2    8 1    
     8    4    5 1    
     9    4    6 1    
    10    4    7 1    
    11    5   37 1    
    12    5   38 1    
    13    5   39 1    
    14    6   40 1    
    15    6   41 1    
    16    6   42 1    
    17    7   43 1    
    18    7   44 1    
    19    7   45 1    
    20    8    9 am   BACKBONE|DICT|INTERRES
    21    8   46 1    
    22    9   10 2    
    23    9   11 1    
    24   11   12 1    
    25   11   16 1    
    26   11   13 1    
    27   13   14 1    
    28   13   47 1    
    29   13   48 1    
    30   14   15 1    
    31   14   22 am   BACKBONE|DICT|INTERRES
    32   15   16 1    
    33   15   49 1    
    34   15   50 1    
    35   16   21 1    
    36   16   17 1    
    37   17   18 1    
    38   17   51 1    
    39   17   52 1    
    40   18   19 1    
    41   18   53 1    
    42   18   54 1    
    43   19   20 1    
    44   19   55 1    
    45   19   65 1    
    46   20   21 1    
    47   20   56 1    
    48   20   57 1    
    49   21   58 1    
    50   21   59 1    
    51   22   23 2    
    52   22   24 1    
    53   24   29 ar   
    54   24   25 ar   
    55   25   26 ar   
    56   25   60 1    
    57   26   27 ar   
    58   26   33 1    
    59   27   28 ar   
    60   27   31 1    
    61   28   29 ar   
    62   28   30 1    
    63   29   61 1    
    64   31   32 1    
    65   32   62 1    
    66   32   63 1    
    67   32   64 1    
@<TRIPOS>SUBSTRUCTURE
     1 UNK         1 GROUP             0       ****    0 ROOT    
