ZINC03012012_1236
                    3D
 Schrodinger Suite 2024-2.
 51 55  0  0  1  0            999 V2000
    6.5331   53.3743   17.6631 C   0  0  0  0  0  0
    7.0185   53.2386   16.3675 C   0  0  0  0  0  0
    6.7979   54.2511   15.4360 C   0  0  0  0  0  0
    6.0910   55.3982   15.7922 C   0  0  0  0  0  0
    5.5952   55.5307   17.0854 C   0  0  0  0  0  0
    5.8164   54.5204   18.0283 C   0  0  0  0  0  0
    5.2671   54.6654   19.4449 C   0  0  1  0  0  0
    4.6836   55.5871   19.4250 H   0  0  0  0  0  0
    4.3210   53.5060   19.8339 C   0  0  0  0  0  0
    3.7505   53.6309   21.2652 C   0  0  2  0  0  0
    3.1035   54.5021   21.2815 H   0  0  0  0  0  0
    4.8617   53.9857   22.1550 N   0  0  0  0  0  0
    5.9894   54.6839   21.7802 C   0  0  0  0  0  0
    6.6507   54.9717   22.9551 C   0  0  0  0  0  0
    5.8676   54.4522   23.9987 C   0  0  0  0  0  0
    4.7761   53.9055   23.4949 N   0  0  0  0  0  0
    6.1860   54.5635   25.4095 C   0  0  0  0  0  0
    7.0963   55.2954   25.8074 O   0  0  0  0  0  0
    5.4161   53.8148   26.2246 N   0  0  0  0  0  0
    5.5157   53.7367   27.6838 C   0  0  0  0  0  0
    4.1579   53.7193   28.3894 C   0  0  0  0  0  0
    3.1468   54.6178   27.9926 C   0  0  0  0  0  0
    1.9099   54.6577   28.6478 C   0  0  0  0  0  0
    1.7019   53.7536   29.6817 C   0  0  0  0  0  0
    2.6579   52.8505   30.0527 C   0  0  0  0  0  0
    3.9049   52.8080   29.4314 C   0  0  0  0  0  0
    2.1902   52.0992   31.0863 O   0  0  0  0  0  0
    0.8513   52.4967   31.2814 C   0  0  0  0  0  0
    0.6146   53.6280   30.4865 O   0  0  0  0  0  0
    6.3050   54.8975   20.4524 N   0  0  0  0  0  0
    2.9012   52.4046   21.6789 C   0  0  0  0  0  0
    1.9063   52.1996   20.8162 F   0  0  0  0  0  0
    3.6365   51.2941   21.6817 F   0  0  0  0  0  0
    2.3488   52.5382   22.8854 F   0  0  0  0  0  0
    7.4003   54.0820   13.8283 Cl  0  0  0  0  0  0
    6.6983   52.5794   18.3763 H   0  0  0  0  0  0
    7.5576   52.3459   16.0870 H   0  0  0  0  0  0
    5.9207   56.1791   15.0651 H   0  0  0  0  0  0
    5.0411   56.4204   17.3500 H   0  0  0  0  0  0
    4.8303   52.5462   19.7281 H   0  0  0  0  0  0
    3.4979   53.4459   19.1190 H   0  0  0  0  0  0
    7.5801   55.5076   23.0463 H   0  0  0  0  0  0
    4.8281   53.1207   25.7872 H   0  0  0  0  0  0
    6.0975   54.5680   28.0882 H   0  0  0  0  0  0
    6.0772   52.8325   27.9269 H   0  0  0  0  0  0
    3.3305   55.2968   27.1734 H   0  0  0  0  0  0
    1.1521   55.3704   28.3538 H   0  0  0  0  0  0
    4.6615   52.1053   29.7470 H   0  0  0  0  0  0
    0.1738   51.7007   30.9629 H   0  0  0  0  0  0
    0.6686   52.7309   32.3329 H   0  0  0  0  0  0
    6.8761   55.6924   20.2097 H   0  0  0  0  0  0
  1  6  2  0  0  0
  1  2  1  0  0  0
  1 36  1  0  0  0
  2  3  2  0  0  0
  2 37  1  0  0  0
  3  4  1  0  0  0
  3 35  1  0  0  0
  4  5  2  0  0  0
  4 38  1  0  0  0
  5  6  1  0  0  0
  5 39  1  0  0  0
  6  7  1  0  0  0
  7  8  1  0  0  0
  7 30  1  0  0  0
  7  9  1  0  0  0
  9 10  1  0  0  0
  9 40  1  0  0  0
  9 41  1  0  0  0
 10 11  1  0  0  0
 10 12  1  0  0  0
 10 31  1  0  0  0
 12 16  1  0  0  0
 12 13  1  0  0  0
 13 14  2  0  0  0
 13 30  1  0  0  0
 14 15  1  0  0  0
 14 42  1  0  0  0
 15 16  2  0  0  0
 15 17  1  0  0  0
 17 18  2  0  0  0
 17 19  1  0  0  0
 19 20  1  0  0  0
 19 43  1  0  0  0
 20 21  1  0  0  0
 20 44  1  0  0  0
 20 45  1  0  0  0
 21 26  2  0  0  0
 21 22  1  0  0  0
 22 23  2  0  0  0
 22 46  1  0  0  0
 23 24  1  0  0  0
 23 47  1  0  0  0
 24 29  1  0  0  0
 24 25  2  0  0  0
 25 26  1  0  0  0
 25 27  1  0  0  0
 26 48  1  0  0  0
 27 28  1  0  0  0
 28 29  1  0  0  0
 28 49  1  0  0  0
 28 50  1  0  0  0
 30 51  1  0  0  0
 31 32  1  0  0  0
 31 33  1  0  0  0
 31 34  1  0  0  0
M  END
> <i_i_glide_confnum>
23

> <i_i_glide_lignum>
1237

> <i_i_glide_posenum>
358

> <i_i_glide_rotatable_bonds>
6

> <i_m_Source_File_Index>
3612

> <b_m_subgroup_collapsed>
0

> <r_i_docking_score>
-7.5788

> <r_i_glide_ecoul>
-9.60439

> <r_i_glide_eff_state_penalty>
0

> <r_i_glide_einternal>
3.84042

> <r_i_glide_emodel>
-79.348

> <r_i_glide_energy>
-55.6403

> <r_i_glide_erotb>
0.353556

> <r_i_glide_esite>
-0.0998376

> <r_i_glide_evdw>
-46.0359

> <r_i_glide_gscore>
-7.5788

> <r_i_glide_hbond>
-0.58315

> <r_i_glide_ligand_efficiency>
-0.229661

> <r_i_glide_ligand_efficiency_ln>
-1.68549

> <r_i_glide_ligand_efficiency_sa>
-0.736644

> <r_i_glide_lipo>
-2.42707

> <r_i_glide_metal>
0

> <r_i_glide_rewards>
-1.07984

> <s_i_glide_gridfile>
wee1_glide-grid

> <s_m_Source_File>
wee1_decoys_glide_SP.sdf

> <s_m_Source_Path>
/Users/zhangxujun/Desktop

> <s_m_entry_id>
3887

> <s_m_entry_name>
wee1_decoys_glide_SP.3612

> <s_m_subgroup_title>
wee1_decoys_glide_SP

> <s_m_subgroupid>
wee1_decoys_glide_SP


$$$$
