@<TRIPOS>MOLECULE
ZINC34978245_2316
71   74    1
SMALL
USER_CHARGES


@<TRIPOS>ATOM
      1 C1         -1.3808   49.8831   23.4392 C.3       1 UNK         0.0000 
      2 C2          0.1237   49.8208   23.1161 C.3       1 UNK         0.0000 
      3 H3          0.3505   48.7696   22.9281 H         1 UNK         0.0000 
      4 C4          1.0261   50.2372   24.3142 C.3       1 UNK         0.0000 
      5 N5          1.1005   51.7079   24.4553 N.am      1 UNK         0.0000 
      6 C6          1.4976   52.4257   23.2275 C.3       1 UNK         0.0000 
      7 C7          0.4885   52.0748   22.1160 C.3       1 UNK         0.0000 
      8 N8          0.5067   50.6144   21.9191 N.am      1 UNK         0.0000 
      9 C9          0.6620   49.9978   20.7089 C.2       1 UNK         0.0000 
     10 O10         0.4395   48.7905   20.5842 O.2       1 UNK         0.0000 
     11 C11         1.1011   50.7493   19.4180 C.3       1 UNK         0.0000 
     12 C12        -0.0585   51.5805   18.8083 C.3       1 UNK         0.0000 
     13 C13         0.3772   52.1524   17.4421 C.3       1 UNK         0.0000 
     14 C14         1.7054   52.9339   17.5241 C.3       1 UNK         0.0000 
     15 C15         2.8344   52.1043   18.1728 C.3       1 UNK         0.0000 
     16 C16         2.4427   51.5222   19.5494 C.3       1 UNK         0.0000 
     17 C17         1.0929   52.3667   25.6518 C.2       1 UNK         0.0000 
     18 O18         1.5043   53.5256   25.7464 O.2       1 UNK         0.0000 
     19 C19         0.5811   51.6740   26.9636 C.3       1 UNK         0.0000 
     20 H20         1.3475   50.9469   27.2297 H         1 UNK         0.0000 
     21 C21         0.4180   52.6148   28.1994 C.3       1 UNK         0.0000 
     22 C22         1.6821   53.2486   28.7467 C.ar      1 UNK         0.0000 
     23 C23         1.8202   54.6520   28.7794 C.ar      1 UNK         0.0000 
     24 C24         2.9935   55.2168   29.2543 C.ar      1 UNK         0.0000 
     25 C25         4.0367   54.4057   29.6818 C.ar      1 UNK         0.0000 
     26 C26         3.9035   53.0226   29.6745 C.ar      1 UNK         0.0000 
     27 C27         2.7346   52.4369   29.2147 C.ar      1 UNK         0.0000 
     28 N28        -0.6610   50.8972   26.8453 N.am      1 UNK         0.0000 
     29 C29        -1.8744   51.3809   26.5434 C.2       1 UNK         0.0000 
     30 O30        -2.0689   52.4951   26.0568 O.2       1 UNK         0.0000 
     31 N31        -2.8266   50.4958   26.8853 N.am      1 UNK         0.0000 
     32 C32        -4.2193   50.6080   26.7430 C.ar      1 UNK         0.0000 
     33 C33        -4.8473   51.4624   25.8232 C.ar      1 UNK         0.0000 
     34 C34        -6.2373   51.4982   25.7458 C.ar      1 UNK         0.0000 
     35 C35        -6.9964   50.6813   26.5798 C.ar      1 UNK         0.0000 
     36 C36        -6.3800   49.8228   27.4873 C.ar      1 UNK         0.0000 
     37 C37        -4.9900   49.7832   27.5655 C.ar      1 UNK         0.0000 
     38 H38        -1.6063   49.2916   24.3271 H         1 UNK         0.0000 
     39 H39        -1.7129   50.9001   23.6465 H         1 UNK         0.0000 
     40 H40        -1.9782   49.4769   22.6226 H         1 UNK         0.0000 
     41 H41         2.0301   49.8761   24.0817 H         1 UNK         0.0000 
     42 H42         0.7227   49.7148   25.2197 H         1 UNK         0.0000 
     43 H43         1.5279   53.5088   23.3589 H         1 UNK         0.0000 
     44 H44         2.4954   52.1006   22.9292 H         1 UNK         0.0000 
     45 H45        -0.5124   52.3668   22.4348 H         1 UNK         0.0000 
     46 H46         0.6766   52.6599   21.2228 H         1 UNK         0.0000 
     47 H47         1.3025   49.9280   18.7246 H         1 UNK         0.0000 
     48 H48        -0.9300   50.9525   18.6112 H         1 UNK         0.0000 
     49 H49        -0.3331   52.4364   19.4234 H         1 UNK         0.0000 
     50 H50         0.4897   51.3352   16.7271 H         1 UNK         0.0000 
     51 H51        -0.4067   52.7962   17.0405 H         1 UNK         0.0000 
     52 H52         2.0098   53.2441   16.5235 H         1 UNK         0.0000 
     53 H53         1.5535   53.8555   18.0850 H         1 UNK         0.0000 
     54 H54         3.1046   51.2888   17.4997 H         1 UNK         0.0000 
     55 H55         3.7345   52.7121   18.2706 H         1 UNK         0.0000 
     56 H56         2.3978   52.3772   20.2195 H         1 UNK         0.0000 
     57 H57         3.2555   50.8525   19.8361 H         1 UNK         0.0000 
     58 H58        -0.2995   53.4040   27.9690 H         1 UNK         0.0000 
     59 H59        -0.0331   52.0631   29.0271 H         1 UNK         0.0000 
     60 H60         1.0240   55.2891   28.4233 H         1 UNK         0.0000 
     61 H61         3.0992   56.2914   29.2813 H         1 UNK         0.0000 
     62 H62         4.9550   54.8583   30.0283 H         1 UNK         0.0000 
     63 H63         4.7104   52.3951   30.0184 H         1 UNK         0.0000 
     64 H64         2.6412   51.3614   29.1982 H         1 UNK         0.0000 
     65 H65        -0.6090   49.9413   27.1774 H         1 UNK         0.0000 
     66 H66        -2.5129   49.6740   27.3942 H         1 UNK         0.0000 
     67 H67        -4.2783   52.0907   25.1549 H         1 UNK         0.0000 
     68 H68        -6.7225   52.1537   25.0366 H         1 UNK         0.0000 
     69 H69        -8.0744   50.7087   26.5176 H         1 UNK         0.0000 
     70 H70        -6.9777   49.1899   28.1269 H         1 UNK         0.0000 
     71 H71        -4.5160   49.1145   28.2723 H         1 UNK         0.0000 
@<TRIPOS>BOND
     1    1    2 1    
     2    1   38 1    
     3    1   39 1    
     4    1   40 1    
     5    2    3 1    
     6    2    8 1    
     7    2    4 1    
     8    4    5 1    
     9    4   41 1    
    10    4   42 1    
    11    5    6 1    
    12    5   17 am   BACKBONE|DICT|INTERRES
    13    6    7 1    
    14    6   43 1    
    15    6   44 1    
    16    7    8 1    
    17    7   45 1    
    18    7   46 1    
    19    8    9 am   BACKBONE|DICT|INTERRES
    20    9   10 2    
    21    9   11 1    
    22   11   16 1    
    23   11   12 1    
    24   11   47 1    
    25   12   13 1    
    26   12   48 1    
    27   12   49 1    
    28   13   14 1    
    29   13   50 1    
    30   13   51 1    
    31   14   15 1    
    32   14   52 1    
    33   14   53 1    
    34   15   16 1    
    35   15   54 1    
    36   15   55 1    
    37   16   56 1    
    38   16   57 1    
    39   17   18 2    
    40   17   19 1    
    41   19   20 1    
    42   19   21 1    
    43   19   28 1    
    44   21   22 1    
    45   21   58 1    
    46   21   59 1    
    47   22   27 ar   
    48   22   23 ar   
    49   23   24 ar   
    50   23   60 1    
    51   24   25 ar   
    52   24   61 1    
    53   25   26 ar   
    54   25   62 1    
    55   26   27 ar   
    56   26   63 1    
    57   27   64 1    
    58   28   29 am   BACKBONE|DICT|INTERRES
    59   28   65 1    
    60   29   30 2    
    61   29   31 am   BACKBONE|DICT|INTERRES
    62   31   32 1    
    63   31   66 1    
    64   32   37 ar   
    65   32   33 ar   
    66   33   34 ar   
    67   33   67 1    
    68   34   35 ar   
    69   34   68 1    
    70   35   36 ar   
    71   35   69 1    
    72   36   37 ar   
    73   36   70 1    
    74   37   71 1    
@<TRIPOS>SUBSTRUCTURE
     1 UNK         1 GROUP             0       ****    0 ROOT    
