ZINC26127808_3223
                    3D
 Schrodinger Suite 2024-2.
 53 56  0  0  1  0            999 V2000
    6.6366   54.3732   24.4569 C   0  0  0  0  0  0
    5.4685   54.2331   25.4168 C   0  0  0  0  0  0
    5.7009   54.1155   26.7833 C   0  0  0  0  0  0
    4.6388   54.0013   27.6849 C   0  0  0  0  0  0
    3.2981   54.0168   27.2221 C   0  0  0  0  0  0
    3.0812   54.0968   25.8243 C   0  0  0  0  0  0
    4.1587   54.2104   24.9447 C   0  0  0  0  0  0
    1.5046   54.0961   25.1049 Cl  0  0  0  0  0  0
    2.2051   53.9879   28.1630 N   0  0  0  0  0  0
    1.3308   52.8676   28.1239 C   0  0  0  0  0  0
    1.4797   51.8507   27.2945 N   0  0  0  0  0  0
    0.4810   50.9853   27.3282 C   0  0  0  0  0  0
   -0.5179   51.2953   28.2355 C   0  0  0  0  0  0
   -0.1094   52.7124   29.0968 S   0  0  0  0  0  0
    0.5299   49.7781   26.4032 C   0  0  0  0  0  0
    0.1722   50.1513   24.6531 S   0  0  0  0  0  0
   -1.2529   51.1801   24.8477 C   0  0  0  0  0  0
   -1.3664   52.3588   24.2860 N   0  0  0  0  0  0
   -2.6261   52.8568   24.5981 N   0  0  0  0  0  0
   -3.2376   51.9490   25.3200 C   0  0  0  0  0  0
   -2.4346   50.8346   25.4743 N   0  0  0  0  0  0
   -2.7561   49.6264   26.0818 N   0  0  0  0  0  0
   -4.6015   52.1056   25.8215 C   0  0  0  0  0  0
   -5.6870   52.6256   25.1049 C   0  0  0  0  0  0
   -6.7858   52.5959   25.9410 C   0  0  0  0  0  0
   -6.4282   52.1001   27.1493 O   0  0  0  0  0  0
   -5.1009   51.8134   27.0920 C   0  0  0  0  0  0
   -4.4902   51.2855   28.3674 C   0  0  0  0  0  0
    2.0727   55.0590   29.0287 C   0  0  0  0  0  0
    2.7039   56.0968   28.8833 O   0  0  0  0  0  0
    1.2261   55.0601   30.3072 C   0  0  0  0  0  0
    4.9933   53.8225   29.1537 C   0  0  0  0  0  0
    6.3093   54.5364   23.4289 H   0  0  0  0  0  0
    7.2627   53.4806   24.4857 H   0  0  0  0  0  0
    7.2618   55.2183   24.7469 H   0  0  0  0  0  0
    6.7175   54.1131   27.1495 H   0  0  0  0  0  0
    3.9682   54.2868   23.8838 H   0  0  0  0  0  0
   -1.4076   50.7309   28.4706 H   0  0  0  0  0  0
    1.5041   49.2978   26.4264 H   0  0  0  0  0  0
   -0.1181   48.9763   26.7420 H   0  0  0  0  0  0
   -2.7479   48.8629   25.4232 H   0  0  0  0  0  0
   -2.2050   49.4306   26.9160 H   0  0  0  0  0  0
   -5.6721   52.9736   24.0825 H   0  0  0  0  0  0
   -7.8211   52.8794   25.8234 H   0  0  0  0  0  0
   -3.4633   51.6275   28.4808 H   0  0  0  0  0  0
   -5.0332   51.6193   29.2508 H   0  0  0  0  0  0
   -4.4779   50.1958   28.3878 H   0  0  0  0  0  0
    1.3616   54.1439   30.8806 H   0  0  0  0  0  0
    1.5185   55.8882   30.9551 H   0  0  0  0  0  0
    0.1758   55.2143   30.0844 H   0  0  0  0  0  0
    4.2920   53.1557   29.6559 H   0  0  0  0  0  0
    5.9731   53.3574   29.2543 H   0  0  0  0  0  0
    5.0086   54.7826   29.6705 H   0  0  0  0  0  0
  1  2  1  0  0  0
  1 33  1  0  0  0
  1 34  1  0  0  0
  1 35  1  0  0  0
  2  7  2  0  0  0
  2  3  1  0  0  0
  3  4  2  0  0  0
  3 36  1  0  0  0
  4  5  1  0  0  0
  4 32  1  0  0  0
  5  6  2  0  0  0
  5  9  1  0  0  0
  6  7  1  0  0  0
  6  8  1  0  0  0
  7 37  1  0  0  0
  9 10  1  0  0  0
  9 29  1  0  0  0
 10 14  1  0  0  0
 10 11  2  0  0  0
 11 12  1  0  0  0
 12 13  2  0  0  0
 12 15  1  0  0  0
 13 14  1  0  0  0
 13 38  1  0  0  0
 15 16  1  0  0  0
 15 39  1  0  0  0
 15 40  1  0  0  0
 16 17  1  0  0  0
 17 21  1  0  0  0
 17 18  2  0  0  0
 18 19  1  0  0  0
 19 20  2  0  0  0
 20 21  1  0  0  0
 20 23  1  0  0  0
 21 22  1  0  0  0
 22 41  1  0  0  0
 22 42  1  0  0  0
 23 27  2  0  0  0
 23 24  1  0  0  0
 24 25  2  0  0  0
 24 43  1  0  0  0
 25 26  1  0  0  0
 25 44  1  0  0  0
 26 27  1  0  0  0
 27 28  1  0  0  0
 28 45  1  0  0  0
 28 46  1  0  0  0
 28 47  1  0  0  0
 29 30  2  0  0  0
 29 31  1  0  0  0
 31 48  1  0  0  0
 31 49  1  0  0  0
 31 50  1  0  0  0
 32 51  1  0  0  0
 32 52  1  0  0  0
 32 53  1  0  0  0
M  END
> <i_i_glide_confnum>
146

> <i_i_glide_lignum>
3224

> <i_i_glide_posenum>
47

> <i_i_glide_rotatable_bonds>
7

> <i_m_Source_File_Index>
3221

> <b_m_subgroup_collapsed>
0

> <r_i_docking_score>
-6.01897

> <r_i_glide_ecoul>
-5.36046

> <r_i_glide_eff_state_penalty>
0

> <r_i_glide_einternal>
7.8347

> <r_i_glide_emodel>
-59.2507

> <r_i_glide_energy>
-47.3603

> <r_i_glide_erotb>
0.510351

> <r_i_glide_esite>
-0.12857

> <r_i_glide_evdw>
-41.9998

> <r_i_glide_gscore>
-6.01897

> <r_i_glide_hbond>
-0.16

> <r_i_glide_ligand_efficiency>
-0.188093

> <r_i_glide_ligand_efficiency_ln>
-1.34781

> <r_i_glide_ligand_efficiency_sa>
-0.597157

> <r_i_glide_lipo>
-2.74078

> <r_i_glide_metal>
0

> <r_i_glide_rewards>
-0.595904

> <s_i_glide_gridfile>
wee1_glide-grid

> <s_m_Source_File>
wee1_decoys_glide_SP.sdf

> <s_m_Source_Path>
/Users/zhangxujun/Desktop

> <s_m_entry_id>
3496

> <s_m_entry_name>
wee1_decoys_glide_SP.3221

> <s_m_subgroup_title>
wee1_decoys_glide_SP

> <s_m_subgroupid>
wee1_decoys_glide_SP


$$$$
