@<TRIPOS>MOLECULE
ZINC43741657_4087
76   80    1
SMALL
USER_CHARGES


@<TRIPOS>ATOM
      1 C1          1.7491   52.4713   31.3565 C.3       1 UNK         0.0000 
      2 C2          3.0018   52.4967   30.4865 C.2       1 UNK         0.0000 
      3 O3          3.9045   51.6968   30.7180 O.2       1 UNK         0.0000 
      4 C4          3.0950   53.5699   29.3649 C.3       1 UNK         0.0000 
      5 H5          2.9598   54.5329   29.8578 H         1 UNK         0.0000 
      6 C6          4.4742   53.6124   28.6601 C.3       1 UNK         0.0000 
      7 C7          4.1908   53.8349   27.1707 C.3       1 UNK         0.0000 
      8 C8          2.6975   54.1953   27.0470 C.3       1 UNK         0.0000 
      9 H9          2.6340   55.2600   27.2817 H         1 UNK         0.0000 
     10 C10         2.0162   53.4425   28.2399 C.3       1 UNK         0.0000 
     11 C11         1.7529   51.9625   27.8406 C.3       1 UNK         0.0000 
     12 C12         0.9330   51.8330   26.5635 C.3       1 UNK         0.0000 
     13 C13         1.6655   52.4837   25.3635 C.3       1 UNK         0.0000 
     14 H14         2.6686   52.0967   25.2818 H         1 UNK         0.0000 
     15 C15         2.0281   53.9521   25.6375 C.3       1 UNK         0.0000 
     16 H16         1.1044   54.4967   25.5865 H         1 UNK         0.0000 
     17 C17         2.9226   54.4116   24.4672 C.3       1 UNK         0.0000 
     18 C18         2.2242   54.2821   23.1026 C.3       1 UNK         0.0000 
     19 C19         1.7808   52.8389   22.8679 C.2       1 UNK         0.0000 
     20 C20         2.0774   52.1738   21.7307 C.2       1 UNK         0.0000 
     21 C21         1.5872   50.8673   21.3472 C.2       1 UNK         0.0000 
     22 N22         1.8660   50.2237   20.2840 N.2       1 UNK         0.0000 
     23 O23         2.8785   50.8564   19.5422 O.3       1 UNK         0.0000 
     24 C24         2.3934   51.2380   18.2574 C.3       1 UNK         0.0000 
     25 C25         3.0111   52.5880   17.8841 C.2       1 UNK         0.0000 
     26 O26         3.8036   53.1631   18.6362 O.2       1 UNK         0.0000 
     27 N27         2.6219   53.1113   16.7074 N.am      1 UNK         0.0000 
     28 C28         3.0975   54.3937   16.1950 C.3       1 UNK         0.0000 
     29 C29         2.5826   55.5957   17.0185 C.3       1 UNK         0.0000 
     30 C30         3.4254   56.8341   16.8442 C.ar      1 UNK         0.0000 
     31 C31         3.1044   58.1369   16.4728 C.ar      1 UNK         0.0000 
     32 N32         4.2560   58.8967   16.5589 N.pl3     1 UNK         0.0000 
     33 H33         4.3044   59.9182   16.4457 H         1 UNK         0.0000 
     34 C34         5.3004   58.0969   16.9529 C.ar      1 UNK         0.0000 
     35 N35         4.7829   56.8368   17.1408 N.pl3     1 UNK         0.0000 
     36 C36         0.5779   50.2331   22.3002 C.3       1 UNK         0.0000 
     37 C37         0.8283   50.6746   23.7555 C.3       1 UNK         0.0000 
     38 C38         0.9291   52.2171   23.9969 C.3       1 UNK         0.0000 
     39 C39        -0.4929   52.8391   23.9332 C.3       1 UNK         0.0000 
     40 C40         0.6994   54.1422   28.6657 C.3       1 UNK         0.0000 
     41 H41         1.3792   53.4760   31.5531 H         1 UNK         0.0000 
     42 H42         1.9540   51.9820   32.3091 H         1 UNK         0.0000 
     43 H43         0.9574   51.9090   30.8630 H         1 UNK         0.0000 
     44 H44         5.0731   54.4320   29.0610 H         1 UNK         0.0000 
     45 H45         5.0708   52.7061   28.7816 H         1 UNK         0.0000 
     46 H46         4.8422   54.5800   26.7117 H         1 UNK         0.0000 
     47 H47         4.3887   52.8967   26.6574 H         1 UNK         0.0000 
     48 H48         2.7026   51.4531   27.6843 H         1 UNK         0.0000 
     49 H49         1.2557   51.4149   28.6417 H         1 UNK         0.0000 
     50 H50        -0.0736   52.2316   26.6808 H         1 UNK         0.0000 
     51 H51         0.7784   50.7687   26.3912 H         1 UNK         0.0000 
     52 H52         3.1938   55.4392   24.6502 H         1 UNK         0.0000 
     53 H53         3.8739   53.8768   24.4581 H         1 UNK         0.0000 
     54 H54         2.8901   54.6261   22.3094 H         1 UNK         0.0000 
     55 H55         1.3507   54.9280   23.0594 H         1 UNK         0.0000 
     56 H56         2.6642   52.7263   21.0113 H         1 UNK         0.0000 
     57 H57         2.7044   50.4967   17.5276 H         1 UNK         0.0000 
     58 H58         1.3060   51.3354   18.2124 H         1 UNK         0.0000 
     59 H59         2.0010   52.5765   16.1184 H         1 UNK         0.0000 
     60 H60         4.1896   54.3555   16.2016 H         1 UNK         0.0000 
     61 H61         2.8168   54.5045   15.1465 H         1 UNK         0.0000 
     62 H62         1.5417   55.7898   16.7580 H         1 UNK         0.0000 
     63 H63         2.5705   55.3527   18.0815 H         1 UNK         0.0000 
     64 H64         2.1633   58.5981   16.2058 H         1 UNK         0.0000 
     65 H65         6.3148   58.4218   17.1450 H         1 UNK         0.0000 
     66 H66        -0.4322   50.4868   21.9783 H         1 UNK         0.0000 
     67 H67         0.6573   49.1451   22.2538 H         1 UNK         0.0000 
     68 H68         1.7549   50.1964   24.0817 H         1 UNK         0.0000 
     69 H69         0.0456   50.2412   24.3793 H         1 UNK         0.0000 
     70 H70        -1.1565   52.4133   24.6854 H         1 UNK         0.0000 
     71 H71        -0.4882   53.9175   24.0817 H         1 UNK         0.0000 
     72 H72        -0.9627   52.6568   22.9662 H         1 UNK         0.0000 
     73 H73        -0.0540   54.0968   27.8862 H         1 UNK         0.0000 
     74 H74         0.2448   53.6749   29.5366 H         1 UNK         0.0000 
     75 H75         0.8590   55.1939   28.9065 H         1 UNK         0.0000 
     76 H76         5.3000   56.0336   17.4751 H         1 UNK         0.0000 
@<TRIPOS>BOND
     1    1    2 1    
     2    1   41 1    
     3    1   42 1    
     4    1   43 1    
     5    2    3 2    
     6    2    4 1    
     7    4    5 1    
     8    4   10 1    
     9    4    6 1    
    10    6    7 1    
    11    6   44 1    
    12    6   45 1    
    13    7    8 1    
    14    7   46 1    
    15    7   47 1    
    16    8    9 1    
    17    8   15 1    
    18    8   10 1    
    19   10   11 1    
    20   10   40 1    
    21   11   12 1    
    22   11   48 1    
    23   11   49 1    
    24   12   13 1    
    25   12   50 1    
    26   12   51 1    
    27   13   14 1    
    28   13   38 1    
    29   13   15 1    
    30   15   16 1    
    31   15   17 1    
    32   17   18 1    
    33   17   52 1    
    34   17   53 1    
    35   18   19 1    
    36   18   54 1    
    37   18   55 1    
    38   19   38 1    
    39   19   20 2    
    40   20   21 1    
    41   20   56 1    
    42   21   22 2    
    43   21   36 1    
    44   22   23 1    
    45   23   24 1    
    46   24   25 1    
    47   24   57 1    
    48   24   58 1    
    49   25   26 2    
    50   25   27 am   BACKBONE|DICT|INTERRES
    51   27   28 1    
    52   27   59 1    
    53   28   29 1    
    54   28   60 1    
    55   28   61 1    
    56   29   30 1    
    57   29   62 1    
    58   29   63 1    
    59   30   35 ar   
    60   30   31 ar   
    61   31   32 ar   
    62   31   64 1    
    63   32   33 1    
    64   32   34 ar   
    65   34   35 ar   
    66   34   65 1    
    67   35   76 1    
    68   36   37 1    
    69   36   66 1    
    70   36   67 1    
    71   37   38 1    
    72   37   68 1    
    73   37   69 1    
    74   38   39 1    
    75   39   70 1    
    76   39   71 1    
    77   39   72 1    
    78   40   73 1    
    79   40   74 1    
    80   40   75 1    
@<TRIPOS>SUBSTRUCTURE
     1 UNK         1 GROUP             0       ****    0 ROOT    
