ZINC58886438_2016
                    3D
 Schrodinger Suite 2024-2.
 41 42  0  0  1  0            999 V2000
    2.0689   53.4126   29.9311 C   0  0  0  0  0  0
    2.0445   54.3904   28.9389 C   0  0  0  0  0  0
    3.1340   54.5312   28.0825 C   0  0  0  0  0  0
    4.2494   53.6940   28.2066 C   0  0  0  0  0  0
    4.2600   52.7201   29.2126 C   0  0  0  0  0  0
    3.1768   52.5833   30.0777 C   0  0  0  0  0  0
    5.4666   53.8375   27.2809 C   0  0  1  0  0  0
    6.0518   52.9163   27.3258 H   0  0  0  0  0  0
    5.1146   54.0929   25.7955 C   0  0  0  0  0  0
    6.3438   54.1928   24.8512 C   0  0  0  0  0  0
    5.9715   54.3899   23.3757 C   0  0  0  0  0  0
    4.8387   54.0970   22.9807 O   0  0  0  0  0  0
    6.9404   54.8972   22.5889 N   0  0  0  0  0  0
    6.6966   55.2973   21.3265 N   0  0  0  0  0  0
    7.7311   55.6966   20.7058 C   0  0  0  0  0  0
    7.6713   56.2798   19.3604 C   0  0  0  0  0  0
    8.8496   56.5023   18.6436 C   0  0  0  0  0  0
    8.8536   57.0775   17.3605 C   0  0  0  0  0  0
    7.6076   57.4307   16.7886 C   0  0  0  0  0  0
    6.4183   57.2172   17.5040 C   0  0  0  0  0  0
    6.4585   56.6477   18.7709 C   0  0  0  0  0  0
    4.5228   57.7344   16.7574 I   0  0  0  0  0  0
    7.5179   57.9383   15.6276 O   0  5  0  0  0  0
   10.1657   57.2877   16.6770 N   0  3  0  0  0  0
   11.1888   56.9714   17.2800 O   0  0  0  0  0  0
   10.2253   57.7678   15.5496 O   0  5  0  0  0  0
    6.3045   54.8968   27.6813 O   0  0  0  0  0  0
    1.2219   53.2984   30.5936 H   0  0  0  0  0  0
    1.1831   55.0342   28.8315 H   0  0  0  0  0  0
    3.1008   55.2964   27.3249 H   0  0  0  0  0  0
    5.1052   52.0585   29.3270 H   0  0  0  0  0  0
    3.1966   51.8361   30.8551 H   0  0  0  0  0  0
    4.4514   53.2969   25.4576 H   0  0  0  0  0  0
    4.5448   55.0195   25.7058 H   0  0  0  0  0  0
    6.9754   55.0278   25.1576 H   0  0  0  0  0  0
    6.9553   53.2967   24.9314 H   0  0  0  0  0  0
    7.8802   55.0527   22.9320 H   0  0  0  0  0  0
    8.7305   55.6524   21.1374 H   0  0  0  0  0  0
    9.7911   56.2239   19.0998 H   0  0  0  0  0  0
    5.5249   56.4967   19.2956 H   0  0  0  0  0  0
    6.5572   54.7831   28.6037 H   0  0  0  0  0  0
  1  6  2  0  0  0
  1  2  1  0  0  0
  1 28  1  0  0  0
  2  3  2  0  0  0
  2 29  1  0  0  0
  3  4  1  0  0  0
  3 30  1  0  0  0
  4  5  2  0  0  0
  4  7  1  0  0  0
  5  6  1  0  0  0
  5 31  1  0  0  0
  6 32  1  0  0  0
  7  8  1  0  0  0
  7  9  1  0  0  0
  7 27  1  0  0  0
  9 10  1  0  0  0
  9 33  1  0  0  0
  9 34  1  0  0  0
 10 11  1  0  0  0
 10 35  1  0  0  0
 10 36  1  0  0  0
 11 12  2  0  0  0
 11 13  1  0  0  0
 13 14  1  0  0  0
 13 37  1  0  0  0
 14 15  2  0  0  0
 15 16  1  0  0  0
 15 38  1  0  0  0
 16 21  2  0  0  0
 16 17  1  0  0  0
 17 18  2  0  0  0
 17 39  1  0  0  0
 18 19  1  0  0  0
 18 24  1  0  0  0
 19 20  2  0  0  0
 19 23  1  0  0  0
 20 21  1  0  0  0
 20 22  1  0  0  0
 21 40  1  0  0  0
 24 25  2  0  0  0
 24 26  1  0  0  0
 27 41  1  0  0  0
M  CHG  3  23  -1  24   1  26  -1
M  END
> <i_i_glide_confnum>
33

> <i_i_glide_lignum>
2017

> <i_i_glide_posenum>
182

> <i_i_glide_rotatable_bonds>
9

> <i_m_Source_File_Index>
3239

> <b_m_subgroup_collapsed>
0

> <r_i_docking_score>
-5.34482

> <r_i_glide_ecoul>
-3.25641

> <r_i_glide_eff_state_penalty>
0

> <r_i_glide_einternal>
3.50929

> <r_i_glide_emodel>
-56.5966

> <r_i_glide_energy>
-41.7888

> <r_i_glide_erotb>
0.552518

> <r_i_glide_esite>
-0.0138201

> <r_i_glide_evdw>
-38.5324

> <r_i_glide_gscore>
-5.34482

> <r_i_glide_hbond>
-0.416351

> <r_i_glide_ligand_efficiency>
-0.20557

> <r_i_glide_ligand_efficiency_ln>
-1.25521

> <r_i_glide_ligand_efficiency_sa>
-0.609001

> <r_i_glide_lipo>
-2.17117

> <r_i_glide_metal>
0

> <r_i_glide_rewards>
-0.880924

> <s_i_glide_gridfile>
wee1_glide-grid

> <s_m_Source_File>
wee1_decoys_glide_SP.sdf

> <s_m_Source_Path>
/Users/zhangxujun/Desktop

> <s_m_entry_id>
3514

> <s_m_entry_name>
wee1_decoys_glide_SP.3239

> <s_m_subgroup_title>
wee1_decoys_glide_SP

> <s_m_subgroupid>
wee1_decoys_glide_SP


$$$$
