@<TRIPOS>MOLECULE
ZINC35513904_507
56   58    1
SMALL
USER_CHARGES


@<TRIPOS>ATOM
      1 C1          3.8325   54.4352   28.2512 C.3       1 UNK         0.0000 
      2 C2          3.9402   54.6544   26.7306 C.3       1 UNK         0.0000 
      3 C3          5.3040   54.3050   26.0962 C.3       1 UNK         0.0000 
      4 H4          5.4360   53.2277   26.2224 H         1 UNK         0.0000 
      5 C5          6.5220   54.9953   26.7564 C.3       1 UNK         0.0000 
      6 N6          5.2298   54.5475   24.6549 N.am      1 UNK         0.0000 
      7 C7          6.1443   54.1973   23.7395 C.2       1 UNK         0.0000 
      8 O8          7.2254   53.6965   24.0192 O.2       1 UNK         0.0000 
      9 C9          5.8082   54.5156   22.3119 C.ar      1 UNK         0.0000 
     10 C10         6.5537   55.5109   21.6697 C.ar      1 UNK         0.0000 
     11 C11         6.3355   55.8381   20.3313 C.ar      1 UNK         0.0000 
     12 C12         5.3441   55.0967   19.6711 C.ar      1 UNK         0.0000 
     13 N13         4.6212   54.1088   20.2492 N.ar      1 UNK         0.0000 
     14 C14         4.8505   53.8068   21.5535 C.ar      1 UNK         0.0000 
     15 N15         4.0531   52.7981   22.0814 N.pl3     1 UNK         0.0000 
     16 C16         2.9313   53.1353   22.9801 C.3       1 UNK         0.0000 
     17 C17         1.5049   52.9377   22.4110 C.3       1 UNK         0.0000 
     18 N18         1.3833   51.6019   21.6620 N.4       1 UNK         0.0000 
     19 C19         2.4901   51.4808   20.6081 C.3       1 UNK         0.0000 
     20 C20         3.8368   51.5435   21.3419 C.3       1 UNK         0.0000 
     21 N21         7.1040   56.8385   19.7903 N.2       1 UNK         0.0000 
     22 S22         7.2146   57.1334   18.2504 S.o2      1 UNK         0.0000 
     23 O23         8.2679   58.1045   17.9378 O.2       1 UNK         0.0000 
     24 O24         5.9188   57.2970   17.5826 O.2       1 UNK         0.0000 
     25 C25         7.8792   55.5636   17.6602 C.ar      1 UNK         0.0000 
     26 C26         9.1470   55.1532   18.0788 C.ar      1 UNK         0.0000 
     27 C27         9.6396   53.9137   17.6814 C.ar      1 UNK         0.0000 
     28 C28         8.8607   53.0810   16.8824 C.ar      1 UNK         0.0000 
     29 C29         7.6066   53.4936   16.4443 C.ar      1 UNK         0.0000 
     30 C30         7.1184   54.7403   16.8242 C.ar      1 UNK         0.0000 
     31 Br31        9.5048   51.3565   16.4006 Br        1 UNK         0.0000 
     32 H32         2.8056   54.5774   28.5861 H         1 UNK         0.0000 
     33 H33         4.1342   53.4244   28.5307 H         1 UNK         0.0000 
     34 H34         4.4487   55.1372   28.8117 H         1 UNK         0.0000 
     35 H35         3.6735   55.6826   26.4815 H         1 UNK         0.0000 
     36 H36         3.1714   54.0412   26.2551 H         1 UNK         0.0000 
     37 H37         6.4784   54.9400   27.8421 H         1 UNK         0.0000 
     38 H38         7.4518   54.4983   26.4830 H         1 UNK         0.0000 
     39 H39         6.6007   56.0461   26.4813 H         1 UNK         0.0000 
     40 H40         4.3864   54.9850   24.3246 H         1 UNK         0.0000 
     41 H41         7.3245   56.0362   22.2167 H         1 UNK         0.0000 
     42 H42         5.0827   55.2913   18.6438 H         1 UNK         0.0000 
     43 H43         3.0610   52.4966   23.8513 H         1 UNK         0.0000 
     44 H44         3.0127   54.1634   23.3275 H         1 UNK         0.0000 
     45 H45         1.2419   53.6968   21.6808 H         1 UNK         0.0000 
     46 H46         0.7449   52.9057   23.1928 H         1 UNK         0.0000 
     47 H47         0.4770   51.5275   21.2210 H         1 UNK         0.0000 
     48 H48         2.3564   52.2877   19.8830 H         1 UNK         0.0000 
     49 H49         2.3387   50.5225   20.1072 H         1 UNK         0.0000 
     50 H50         4.6464   51.3877   20.6244 H         1 UNK         0.0000 
     51 H51         3.8923   50.7336   22.0694 H         1 UNK         0.0000 
     52 H52         9.7380   55.7856   18.7262 H         1 UNK         0.0000 
     53 H53        10.6090   53.5844   18.0206 H         1 UNK         0.0000 
     54 H54         7.0092   52.8424   15.8248 H         1 UNK         0.0000 
     55 H55         6.1397   55.0517   16.4893 H         1 UNK         0.0000 
     56 H56         1.4660   50.8371   22.3168 H         1 UNK         0.0000 
@<TRIPOS>BOND
     1    1    2 1    
     2    1   32 1    
     3    1   33 1    
     4    1   34 1    
     5    2    3 1    
     6    2   35 1    
     7    2   36 1    
     8    3    4 1    
     9    3    5 1    
    10    3    6 1    
    11    5   37 1    
    12    5   38 1    
    13    5   39 1    
    14    6    7 am   BACKBONE|DICT|INTERRES
    15    6   40 1    
    16    7    8 2    
    17    7    9 1    
    18    9   14 ar   
    19    9   10 ar   
    20   10   11 ar   
    21   10   41 1    
    22   11   12 ar   
    23   11   21 1    
    24   12   13 ar   
    25   12   42 1    
    26   13   14 ar   
    27   14   15 1    
    28   15   20 1    
    29   15   16 1    
    30   16   17 1    
    31   16   43 1    
    32   16   44 1    
    33   17   18 1    
    34   17   45 1    
    35   17   46 1    
    36   18   19 1    
    37   18   47 1    
    38   18   56 1    
    39   19   20 1    
    40   19   48 1    
    41   19   49 1    
    42   20   50 1    
    43   20   51 1    
    44   21   22 1    
    45   22   23 2    
    46   22   24 2    
    47   22   25 1    
    48   25   30 ar   
    49   25   26 ar   
    50   26   27 ar   
    51   26   52 1    
    52   27   28 ar   
    53   27   53 1    
    54   28   29 ar   
    55   28   31 1    
    56   29   30 ar   
    57   29   54 1    
    58   30   55 1    
@<TRIPOS>SUBSTRUCTURE
     1 UNK         1 GROUP             0       ****    0 ROOT    
