@<TRIPOS>MOLECULE
ZINC50309726_4746
43   44    1
SMALL
USER_CHARGES


@<TRIPOS>ATOM
      1 C1          0.4095   52.7577   31.8695 C.3       1 UNK         0.0000 
      2 C2          0.7482   53.0001   30.4232 C.ar      1 UNK         0.0000 
      3 C3          1.4753   54.1337   30.0991 C.ar      1 UNK         0.0000 
      4 C4          1.8966   54.3686   28.8027 C.ar      1 UNK         0.0000 
      5 C5          1.5445   53.4586   27.7791 C.ar      1 UNK         0.0000 
      6 C6          0.7383   52.3426   28.0939 C.ar      1 UNK         0.0000 
      7 C7          0.3625   52.1126   29.4201 C.ar      1 UNK         0.0000 
      8 C8          0.2611   51.3608   27.0291 C.3       1 UNK         0.0000 
      9 N9          1.9124   53.6513   26.4376 N.am      1 UNK         0.0000 
     10 C10         3.1644   53.8161   25.9588 C.2       1 UNK         0.0000 
     11 O11         4.1759   53.8133   26.6628 O.2       1 UNK         0.0000 
     12 C12         3.2479   53.9740   24.5140 C.ar      1 UNK         0.0000 
     13 C13         4.4533   54.0962   23.7666 C.ar      1 UNK         0.0000 
     14 C14         4.0598   54.1393   22.4288 C.ar      1 UNK         0.0000 
     15 N15         2.6956   54.0969   22.4810 N.pl3     1 UNK         0.0000 
     16 H16         2.1008   54.1481   21.6598 H         1 UNK         0.0000 
     17 N17         2.1989   54.0129   23.7113 N.2       1 UNK         0.0000 
     18 C18         4.7928   54.1890   21.0936 C.3       1 UNK         0.0000 
     19 C19         6.1205   54.9680   21.1538 C.3       1 UNK         0.0000 
     20 C20         4.9849   52.7666   20.5360 C.3       1 UNK         0.0000 
     21 N21         5.7364   54.1246   24.2406 N.pl3     1 UNK         0.0000 
     22 C22         2.6690   55.6532   28.5847 C.3       1 UNK         0.0000 
     23 H23         0.3045   51.6963   32.0792 H         1 UNK         0.0000 
     24 H24         1.1990   53.1031   32.5297 H         1 UNK         0.0000 
     25 H25        -0.4963   53.2974   32.1315 H         1 UNK         0.0000 
     26 H26         1.7068   54.8497   30.8687 H         1 UNK         0.0000 
     27 H27        -0.2363   51.2502   29.6749 H         1 UNK         0.0000 
     28 H28        -0.2716   50.5055   27.4561 H         1 UNK         0.0000 
     29 H29        -0.4000   51.8634   26.3222 H         1 UNK         0.0000 
     30 H30         1.1037   50.9683   26.4646 H         1 UNK         0.0000 
     31 H31         1.1736   53.5727   25.7573 H         1 UNK         0.0000 
     32 H32         4.1655   54.7243   20.3753 H         1 UNK         0.0000 
     33 H33         5.9643   55.9893   21.5012 H         1 UNK         0.0000 
     34 H34         6.5854   55.0297   20.1689 H         1 UNK         0.0000 
     35 H35         6.8434   54.4969   21.8185 H         1 UNK         0.0000 
     36 H36         4.0247   52.2951   20.3196 H         1 UNK         0.0000 
     37 H37         5.5581   52.7676   19.6086 H         1 UNK         0.0000 
     38 H38         5.5048   52.1255   21.2489 H         1 UNK         0.0000 
     39 H39         5.9077   54.0210   25.2323 H         1 UNK         0.0000 
     40 H40         6.5386   54.1984   23.6330 H         1 UNK         0.0000 
     41 H41         2.5101   56.3850   29.3782 H         1 UNK         0.0000 
     42 H42         3.7356   55.4588   28.5012 H         1 UNK         0.0000 
     43 H43         2.3042   56.1142   27.6817 H         1 UNK         0.0000 
@<TRIPOS>BOND
     1    1    2 1    
     2    1   23 1    
     3    1   24 1    
     4    1   25 1    
     5    2    7 ar   
     6    2    3 ar   
     7    3    4 ar   
     8    3   26 1    
     9    4    5 ar   
    10    4   22 1    
    11    5    6 ar   
    12    5    9 1    
    13    6    7 ar   
    14    6    8 1    
    15    7   27 1    
    16    8   28 1    
    17    8   29 1    
    18    8   30 1    
    19    9   10 am   BACKBONE|DICT|INTERRES
    20    9   31 1    
    21   10   11 2    
    22   10   12 1    
    23   12   17 ar   
    24   12   13 ar   
    25   13   14 ar   
    26   13   21 1    
    27   14   15 ar   
    28   14   18 1    
    29   15   16 1    
    30   15   17 ar   
    31   18   19 1    
    32   18   20 1    
    33   18   32 1    
    34   19   33 1    
    35   19   34 1    
    36   19   35 1    
    37   20   36 1    
    38   20   37 1    
    39   20   38 1    
    40   21   39 1    
    41   21   40 1    
    42   22   41 1    
    43   22   42 1    
    44   22   43 1    
@<TRIPOS>SUBSTRUCTURE
     1 UNK         1 GROUP             0       ****    0 ROOT    
