@<TRIPOS>MOLECULE
ZINC13018846_556
56   59    1
SMALL
USER_CHARGES


@<TRIPOS>ATOM
      1 C1          1.1039   54.7863   30.4271 C.3       1 UNK         0.0000 
      2 O2          1.9664   53.6764   30.2046 O.3       1 UNK         0.0000 
      3 C3          2.7979   53.8054   29.1206 C.ar      1 UNK         0.0000 
      4 C4          4.0537   54.3813   29.3080 C.ar      1 UNK         0.0000 
      5 C5          4.9360   54.5279   28.2425 C.ar      1 UNK         0.0000 
      6 C6          4.5737   54.1330   26.9488 C.ar      1 UNK         0.0000 
      7 C7          3.3261   53.4955   26.7869 C.ar      1 UNK         0.0000 
      8 C8          2.4431   53.3173   27.8562 C.ar      1 UNK         0.0000 
      9 S9          0.9155   52.3771   27.6802 S.o2      1 UNK         0.0000 
     10 O10        -0.2097   53.2963   27.8521 O.2       1 UNK         0.0000 
     11 O11         1.0756   51.2725   28.6253 O.2       1 UNK         0.0000 
     12 N12         0.8175   51.7061   26.0259 N.pl3     1 UNK         0.0000 
     13 C13         0.2994   50.3202   25.8806 C.3       1 UNK         0.0000 
     14 C14        -1.2233   50.1966   26.0815 C.3       1 UNK         0.0000 
     15 C15        -2.1255   50.8112   24.9966 C.3       1 UNK         0.0000 
     16 C16        -1.8567   52.2851   24.6489 C.3       1 UNK         0.0000 
     17 C17        -0.4967   52.5022   23.9637 C.3       1 UNK         0.0000 
     18 C18         0.7119   52.6736   24.9021 C.3       1 UNK         0.0000 
     19 C19         5.5160   54.4187   25.7837 C.2       1 UNK         0.0000 
     20 O20         6.6190   54.9327   26.0253 O.2       1 UNK         0.0000 
     21 N21         5.0234   54.1037   24.5962 N.2       1 UNK         0.0000 
     22 C22         5.5844   54.4963   23.4246 C.ar      1 UNK         0.0000 
     23 N23         5.1552   54.2535   22.2103 N.2       1 UNK         0.0000 
     24 C24         6.0063   54.8966   21.4142 C.ar      1 UNK         0.0000 
     25 N25         6.9888   55.5232   22.0283 N.2       1 UNK         0.0000 
     26 H26         7.2740   55.5805   24.0787 H         1 UNK         0.0000 
     27 N27         6.7055   55.2706   23.3027 N.pl3     1 UNK         0.0000 
     28 C28         5.8670   54.8997   19.9189 C.ar      1 UNK         0.0000 
     29 C29         6.9265   55.3243   19.1059 C.ar      1 UNK         0.0000 
     30 C30         6.7949   55.3291   17.7205 C.ar      1 UNK         0.0000 
     31 C31         5.6026   54.9075   17.1383 C.ar      1 UNK         0.0000 
     32 C32         4.5429   54.4789   17.9319 C.ar      1 UNK         0.0000 
     33 C33         4.6753   54.4750   19.3176 C.ar      1 UNK         0.0000 
     34 F34         5.4733   54.9163   15.7921 F         1 UNK         0.0000 
     35 H35         0.5562   54.6382   31.3593 H         1 UNK         0.0000 
     36 H36         1.6614   55.7225   30.5122 H         1 UNK         0.0000 
     37 H37         0.3683   54.9003   29.6304 H         1 UNK         0.0000 
     38 H38         4.3529   54.7117   30.2902 H         1 UNK         0.0000 
     39 H39         5.8945   54.9950   28.4314 H         1 UNK         0.0000 
     40 H40         3.0593   53.1078   25.8187 H         1 UNK         0.0000 
     41 H41         0.6729   49.8690   24.9613 H         1 UNK         0.0000 
     42 H42         0.7581   49.7303   26.6746 H         1 UNK         0.0000 
     43 H43        -1.4938   50.6014   27.0603 H         1 UNK         0.0000 
     44 H44        -1.4663   49.1353   26.1429 H         1 UNK         0.0000 
     45 H45        -3.1644   50.7114   25.3192 H         1 UNK         0.0000 
     46 H46        -2.0469   50.2120   24.0876 H         1 UNK         0.0000 
     47 H47        -2.6443   52.6247   23.9737 H         1 UNK         0.0000 
     48 H48        -1.9388   52.9061   25.5428 H         1 UNK         0.0000 
     49 H49        -0.3034   51.6822   23.2693 H         1 UNK         0.0000 
     50 H50        -0.5523   53.3836   23.3317 H         1 UNK         0.0000 
     51 H51         1.5633   52.4653   24.2530 H         1 UNK         0.0000 
     52 H52         0.8751   53.6896   25.2534 H         1 UNK         0.0000 
     53 H53         7.8588   55.6488   19.5452 H         1 UNK         0.0000 
     54 H54         7.6129   55.6580   17.0964 H         1 UNK         0.0000 
     55 H55         3.6235   54.1514   17.4719 H         1 UNK         0.0000 
     56 H56         3.8421   54.1448   19.9219 H         1 UNK         0.0000 
@<TRIPOS>BOND
     1    1    2 1    
     2    1   35 1    
     3    1   36 1    
     4    1   37 1    
     5    2    3 1    
     6    3    8 ar   
     7    3    4 ar   
     8    4    5 ar   
     9    4   38 1    
    10    5    6 ar   
    11    5   39 1    
    12    6    7 ar   
    13    6   19 1    
    14    7    8 ar   
    15    7   40 1    
    16    8    9 1    
    17    9   10 2    
    18    9   11 2    
    19    9   12 1    
    20   12   18 1    
    21   12   13 1    
    22   13   14 1    
    23   13   41 1    
    24   13   42 1    
    25   14   15 1    
    26   14   43 1    
    27   14   44 1    
    28   15   16 1    
    29   15   45 1    
    30   15   46 1    
    31   16   17 1    
    32   16   47 1    
    33   16   48 1    
    34   17   18 1    
    35   17   49 1    
    36   17   50 1    
    37   18   51 1    
    38   18   52 1    
    39   19   20 2    
    40   19   21 1    
    41   21   22 1    
    42   22   23 ar   
    43   22   27 ar   
    44   23   24 ar   
    45   24   28 1    
    46   24   25 ar   
    47   25   27 ar   
    48   26   27 1    
    49   28   33 ar   
    50   28   29 ar   
    51   29   30 ar   
    52   29   53 1    
    53   30   31 ar   
    54   30   54 1    
    55   31   32 ar   
    56   31   34 1    
    57   32   33 ar   
    58   32   55 1    
    59   33   56 1    
@<TRIPOS>SUBSTRUCTURE
     1 UNK         1 GROUP             0       ****    0 ROOT    
