@<TRIPOS>MOLECULE
ZINC02258763_5233
63   69    1
SMALL
USER_CHARGES


@<TRIPOS>ATOM
      1 C1          3.6987   53.6887   27.8958 C.ar      1 UNK         0.0000 
      2 C2          3.1370   54.1003   26.6912 C.ar      1 UNK         0.0000 
      3 C3          1.9577   53.5182   26.2364 C.ar      1 UNK         0.0000 
      4 C4          1.3440   52.4909   26.9646 C.ar      1 UNK         0.0000 
      5 C5          1.9188   52.0932   28.1838 C.ar      1 UNK         0.0000 
      6 C6          3.0877   52.6917   28.6481 C.ar      1 UNK         0.0000 
      7 C7          0.0878   51.8041   26.5059 C.2       1 UNK         0.0000 
      8 O8         -0.4186   50.8959   27.1672 O.2       1 UNK         0.0000 
      9 C9         -0.6142   52.2278   25.1761 C.3       1 UNK         0.0000 
     10 H10        -0.5428   53.2945   24.9766 H         1 UNK         0.0000 
     11 C11        -0.2521   51.3081   23.9603 C.3       1 UNK         0.0000 
     12 H12         0.2437   50.4252   24.3664 H         1 UNK         0.0000 
     13 C13        -1.6119   50.8349   23.2746 C.3       1 UNK         0.0000 
     14 C14        -1.8035   49.3466   23.4130 C.ar      1 UNK         0.0000 
     15 C15        -1.8048   48.5123   24.5346 C.ar      1 UNK         0.0000 
     16 C16        -1.9508   47.1334   24.3682 C.ar      1 UNK         0.0000 
     17 C17        -2.0961   46.5937   23.0852 C.ar      1 UNK         0.0000 
     18 C18        -2.0870   47.4257   21.9645 C.ar      1 UNK         0.0000 
     19 C19        -1.9373   48.7985   22.1492 C.ar      1 UNK         0.0000 
     20 N20        -1.8966   49.8042   21.1997 N.am      1 UNK         0.0000 
     21 C21        -1.7563   51.0284   21.7350 C.2       1 UNK         0.0000 
     22 O22        -1.7338   52.0967   21.1241 O.2       1 UNK         0.0000 
     23 C23        -2.6728   51.7459   23.9464 C.3       1 UNK         0.0000 
     24 H24        -2.6298   52.7575   23.5305 H         1 UNK         0.0000 
     25 C25        -2.9169   52.8968   26.1509 C.2       1 UNK         0.0000 
     26 C26        -4.2530   52.9210   25.9886 C.2       1 UNK         0.0000 
     27 C27        -4.9409   52.0501   25.0268 C.ar      1 UNK         0.0000 
     28 C28        -4.1793   51.3875   24.0425 C.ar      1 UNK         0.0000 
     29 C29        -4.8473   50.4960   23.1906 C.ar      1 UNK         0.0000 
     30 C30        -6.2153   50.2584   23.3165 C.ar      1 UNK         0.0000 
     31 C31        -6.9465   50.9130   24.3038 C.ar      1 UNK         0.0000 
     32 C32        -6.3099   51.8032   25.1626 C.ar      1 UNK         0.0000 
     33 C33         0.8348   51.9347   23.0289 C.2       1 UNK         0.0000 
     34 O34         1.0801   53.1392   23.1081 O.2       1 UNK         0.0000 
     35 C35         1.4390   51.0655   21.9633 C.ar      1 UNK         0.0000 
     36 C36         1.3484   49.6641   22.0138 C.ar      1 UNK         0.0000 
     37 C37         1.7625   48.9001   20.9285 C.ar      1 UNK         0.0000 
     38 C38         2.3252   49.5170   19.8294 C.ar      1 UNK         0.0000 
     39 C39         2.5074   50.8945   19.7914 C.ar      1 UNK         0.0000 
     40 C40         2.0579   51.6724   20.8561 C.ar      1 UNK         0.0000 
     41 F41         2.7047   48.7345   18.8059 F         1 UNK         0.0000 
     42 H42         4.6128   54.1451   28.2457 H         1 UNK         0.0000 
     43 H43         3.6107   54.8818   26.1147 H         1 UNK         0.0000 
     44 H44         1.5394   53.8910   25.3189 H         1 UNK         0.0000 
     45 H45         1.4713   51.3120   28.7828 H         1 UNK         0.0000 
     46 H46         3.5274   52.3724   29.5820 H         1 UNK         0.0000 
     47 H47        -1.6773   48.9079   25.5352 H         1 UNK         0.0000 
     48 H48        -1.9374   46.4947   25.2394 H         1 UNK         0.0000 
     49 H49        -2.1994   45.5294   22.9539 H         1 UNK         0.0000 
     50 H50        -2.1901   46.9976   20.9780 H         1 UNK         0.0000 
     51 H51        -1.9866   49.6555   20.2068 H         1 UNK         0.0000 
     52 H52        -2.3878   53.4895   26.8814 H         1 UNK         0.0000 
     53 H53        -4.8367   53.5930   26.6016 H         1 UNK         0.0000 
     54 H54        -4.3185   49.9802   22.4077 H         1 UNK         0.0000 
     55 H55        -6.7073   49.5655   22.6485 H         1 UNK         0.0000 
     56 H56        -8.0063   50.7288   24.4064 H         1 UNK         0.0000 
     57 H57        -6.8857   52.2910   25.9366 H         1 UNK         0.0000 
     58 H58         0.9105   49.1426   22.8517 H         1 UNK         0.0000 
     59 H59         1.6553   47.8314   20.8814 H         1 UNK         0.0000 
     60 H60         2.9803   51.3457   18.9292 H         1 UNK         0.0000 
     61 H61         2.1596   52.7491   20.7880 H         1 UNK         0.0000 
     62 N62        -2.1179   51.9418   25.3707 N.4       1 UNK         0.0000 
     63 H63        -2.1649   51.0389   25.8288 H         1 UNK         0.0000 
@<TRIPOS>BOND
     1    1    6 ar   
     2    1    2 ar   
     3    1   42 1    
     4    2    3 ar   
     5    2   43 1    
     6    3    4 ar   
     7    3   44 1    
     8    4    5 ar   
     9    4    7 1    
    10    5    6 ar   
    11    5   45 1    
    12    6   46 1    
    13    7    8 2    
    14    7    9 1    
    15    9   10 1    
    16    9   11 1    
    17    9   62 1    
    18   11   12 1    
    19   11   13 1    
    20   11   33 1    
    21   13   21 1    
    22   13   14 1    
    23   13   23 1    
    24   14   19 ar   
    25   14   15 ar   
    26   15   16 ar   
    27   15   47 1    
    28   16   17 ar   
    29   16   48 1    
    30   17   18 ar   
    31   17   49 1    
    32   18   19 ar   
    33   18   50 1    
    34   19   20 1    
    35   20   21 am   BACKBONE|DICT|INTERRES
    36   20   51 1    
    37   21   22 2    
    38   23   24 1    
    39   23   28 1    
    40   23   62 1    
    41   25   26 2    
    42   25   52 1    
    43   25   62 1    
    44   26   27 1    
    45   26   53 1    
    46   27   32 ar   
    47   27   28 ar   
    48   28   29 ar   
    49   29   30 ar   
    50   29   54 1    
    51   30   31 ar   
    52   30   55 1    
    53   31   32 ar   
    54   31   56 1    
    55   32   57 1    
    56   33   34 2    
    57   33   35 1    
    58   35   40 ar   
    59   35   36 ar   
    60   36   37 ar   
    61   36   58 1    
    62   37   38 ar   
    63   37   59 1    
    64   38   39 ar   
    65   38   41 1    
    66   39   40 ar   
    67   39   60 1    
    68   40   61 1    
    69   62   63 1    
@<TRIPOS>SUBSTRUCTURE
     1 UNK         1 GROUP             0       ****    0 ROOT    
