ZINC38621037_3992
                    3D
 Schrodinger Suite 2024-2.
 66 70  0  0  1  0            999 V2000
   -8.2403   45.3561   28.8890 C   0  0  0  0  0  0
   -6.9556   46.1318   29.1153 C   0  0  0  0  0  0
   -6.7905   46.8975   30.2720 C   0  0  0  0  0  0
   -5.6162   47.6217   30.4691 C   0  0  0  0  0  0
   -4.6025   47.5834   29.5125 C   0  0  0  0  0  0
   -4.7487   46.8229   28.3494 C   0  0  0  0  0  0
   -5.9406   46.1017   28.1541 C   0  0  0  0  0  0
   -3.6956   46.8968   27.4165 N   0  0  0  0  0  0
   -3.4878   46.1265   26.3163 C   0  0  0  0  0  0
   -4.0962   45.0773   26.0798 O   0  0  0  0  0  0
   -2.4842   46.6262   25.3179 C   0  0  0  0  0  0
   -2.4091   46.1056   24.1998 O   0  0  0  0  0  0
   -1.6870   47.6525   25.6817 N   0  0  0  0  0  0
   -0.7229   48.3139   24.7935 C   0  0  0  0  0  0
   -0.5770   49.8525   25.0151 C   0  0  2  0  0  0
    0.0388   49.9929   25.9067 H   0  0  0  0  0  0
   -1.9571   50.4946   25.2484 C   0  0  0  0  0  0
   -2.8223   50.7830   24.1692 C   0  0  0  0  0  0
   -4.1081   51.2969   24.3884 C   0  0  0  0  0  0
   -4.5067   51.4854   25.7065 C   0  0  0  0  0  0
   -3.6780   51.2088   26.7568 C   0  0  0  0  0  0
   -2.3891   50.7260   26.5664 C   0  0  0  0  0  0
   -4.3206   51.4865   27.9210 O   0  0  0  0  0  0
   -5.6593   51.6950   27.5602 C   0  0  0  0  0  0
   -5.6906   51.9535   26.1819 O   0  0  0  0  0  0
    0.1172   50.5275   23.8882 N   0  0  0  0  0  0
    0.5356   51.8819   24.2796 C   0  0  0  0  0  0
    1.1609   52.6512   23.0939 C   0  0  0  0  0  0
    2.3047   51.9580   22.4789 N   0  0  0  0  0  0
    1.9629   50.5519   22.2050 C   0  0  0  0  0  0
    1.3049   49.8150   23.3914 C   0  0  0  0  0  0
    3.2035   52.6617   21.6763 C   0  0  0  0  0  0
    3.5063   52.2258   20.3751 C   0  0  0  0  0  0
    4.4400   52.8968   19.5881 C   0  0  0  0  0  0
    5.1049   54.0106   20.0911 C   0  0  0  0  0  0
    4.8441   54.4426   21.3882 C   0  0  0  0  0  0
    3.9087   53.7731   22.1797 C   0  0  0  0  0  0
    3.7229   54.2034   23.4510 F   0  0  0  0  0  0
   -8.1058   44.3056   29.1469 H   0  0  0  0  0  0
   -8.5417   45.4133   27.8422 H   0  0  0  0  0  0
   -9.0647   45.7643   29.4755 H   0  0  0  0  0  0
   -7.5709   46.9365   31.0182 H   0  0  0  0  0  0
   -5.4921   48.2211   31.3587 H   0  0  0  0  0  0
   -3.7023   48.1595   29.6795 H   0  0  0  0  0  0
   -6.1097   45.5293   27.2556 H   0  0  0  0  0  0
   -3.0300   47.6381   27.6191 H   0  0  0  0  0  0
   -1.6955   47.9929   26.6442 H   0  0  0  0  0  0
    0.2434   47.8235   24.9252 H   0  0  0  0  0  0
   -0.9955   48.1430   23.7492 H   0  0  0  0  0  0
   -2.4956   50.5939   23.1568 H   0  0  0  0  0  0
   -4.7671   51.5133   23.5611 H   0  0  0  0  0  0
   -1.7526   50.4972   27.4097 H   0  0  0  0  0  0
   -6.0955   52.5208   28.1216 H   0  0  0  0  0  0
   -6.2319   50.7888   27.7711 H   0  0  0  0  0  0
   -0.3287   52.4534   24.6206 H   0  0  0  0  0  0
    1.2593   51.8425   25.0962 H   0  0  0  0  0  0
    1.4256   53.6569   23.4169 H   0  0  0  0  0  0
    0.3927   52.7611   22.3267 H   0  0  0  0  0  0
    2.8475   49.9974   21.8884 H   0  0  0  0  0  0
    1.2511   50.5401   21.3778 H   0  0  0  0  0  0
    2.0416   49.6975   24.1850 H   0  0  0  0  0  0
    1.0392   48.8249   23.0241 H   0  0  0  0  0  0
    3.0152   51.3638   19.9479 H   0  0  0  0  0  0
    4.6529   52.5393   18.5896 H   0  0  0  0  0  0
    5.8297   54.5277   19.4795 H   0  0  0  0  0  0
    5.3756   55.2948   21.7845 H   0  0  0  0  0  0
  1  2  1  0  0  0
  1 39  1  0  0  0
  1 40  1  0  0  0
  1 41  1  0  0  0
  2  7  2  0  0  0
  2  3  1  0  0  0
  3  4  2  0  0  0
  3 42  1  0  0  0
  4  5  1  0  0  0
  4 43  1  0  0  0
  5  6  2  0  0  0
  5 44  1  0  0  0
  6  7  1  0  0  0
  6  8  1  0  0  0
  7 45  1  0  0  0
  8  9  1  0  0  0
  8 46  1  0  0  0
  9 10  2  0  0  0
  9 11  1  0  0  0
 11 12  2  0  0  0
 11 13  1  0  0  0
 13 14  1  0  0  0
 13 47  1  0  0  0
 14 15  1  0  0  0
 14 48  1  0  0  0
 14 49  1  0  0  0
 15 16  1  0  0  0
 15 17  1  0  0  0
 15 26  1  0  0  0
 17 22  2  0  0  0
 17 18  1  0  0  0
 18 19  2  0  0  0
 18 50  1  0  0  0
 19 20  1  0  0  0
 19 51  1  0  0  0
 20 25  1  0  0  0
 20 21  2  0  0  0
 21 22  1  0  0  0
 21 23  1  0  0  0
 22 52  1  0  0  0
 23 24  1  0  0  0
 24 25  1  0  0  0
 24 53  1  0  0  0
 24 54  1  0  0  0
 26 31  1  0  0  0
 26 27  1  0  0  0
 27 28  1  0  0  0
 27 55  1  0  0  0
 27 56  1  0  0  0
 28 29  1  0  0  0
 28 57  1  0  0  0
 28 58  1  0  0  0
 29 30  1  0  0  0
 29 32  1  0  0  0
 30 31  1  0  0  0
 30 59  1  0  0  0
 30 60  1  0  0  0
 31 61  1  0  0  0
 31 62  1  0  0  0
 32 37  2  0  0  0
 32 33  1  0  0  0
 33 34  2  0  0  0
 33 63  1  0  0  0
 34 35  1  0  0  0
 34 64  1  0  0  0
 35 36  2  0  0  0
 35 65  1  0  0  0
 36 37  1  0  0  0
 36 66  1  0  0  0
 37 38  1  0  0  0
M  END
> <i_i_glide_confnum>
307

> <i_i_glide_lignum>
3993

> <i_i_glide_posenum>
323

> <i_i_glide_rotatable_bonds>
9

> <i_m_Source_File_Index>
4073

> <b_m_subgroup_collapsed>
0

> <r_i_docking_score>
-5.17709

> <r_i_glide_ecoul>
-15.1882

> <r_i_glide_eff_state_penalty>
0

> <r_i_glide_einternal>
11.3014

> <r_i_glide_emodel>
-62.7943

> <r_i_glide_energy>
-49.7802

> <r_i_glide_erotb>
0.722883

> <r_i_glide_esite>
-0.394142

> <r_i_glide_evdw>
-34.592

> <r_i_glide_gscore>
-5.17709

> <r_i_glide_hbond>
-0.464865

> <r_i_glide_ligand_efficiency>
-0.139921

> <r_i_glide_ligand_efficiency_ln>
-1.12279

> <r_i_glide_ligand_efficiency_sa>
-0.466249

> <r_i_glide_lipo>
-0.701636

> <r_i_glide_metal>
0

> <r_i_glide_rewards>
-0.3315

> <s_i_glide_gridfile>
wee1_glide-grid

> <s_m_Source_File>
wee1_decoys_glide_SP.sdf

> <s_m_Source_Path>
/Users/zhangxujun/Desktop

> <s_m_entry_id>
4348

> <s_m_entry_name>
wee1_decoys_glide_SP.4073

> <s_m_subgroup_title>
wee1_decoys_glide_SP

> <s_m_subgroupid>
wee1_decoys_glide_SP


$$$$
