@<TRIPOS>MOLECULE
ZINC21327869_2498
43   45    1
SMALL
USER_CHARGES


@<TRIPOS>ATOM
      1 C1          2.5887   54.0962   27.0978 C.ar      1 UNK         0.0000 
      2 C2          3.3060   54.0947   25.9008 C.ar      1 UNK         0.0000 
      3 C3          4.7035   54.1446   25.9122 C.ar      1 UNK         0.0000 
      4 C4          5.3832   54.1293   27.1498 C.ar      1 UNK         0.0000 
      5 C5          4.6539   54.1554   28.3380 C.ar      1 UNK         0.0000 
      6 C6          3.2619   54.1448   28.3163 C.ar      1 UNK         0.0000 
      7 Cl7         2.3769   54.1753   29.7973 Cl        1 UNK         0.0000 
      8 Cl8         7.1044   54.0140   27.2812 Cl        1 UNK         0.0000 
      9 N9          5.3482   54.0967   24.6653 N.am      1 UNK         0.0000 
     10 C10         6.3044   54.9389   24.2347 C.2       1 UNK         0.0000 
     11 O11         6.7043   55.9056   24.8816 O.2       1 UNK         0.0000 
     12 C12         6.9315   54.6219   22.8751 C.3       1 UNK         0.0000 
     13 S13         5.9044   55.0678   21.4273 S.3       1 UNK         0.0000 
     14 C14         5.0472   53.5583   21.1092 C.ar      1 UNK         0.0000 
     15 N15         5.1030   52.4956   21.8716 N.2       1 UNK         0.0000 
     16 N16         4.3292   51.5043   21.2817 N.2       1 UNK         0.0000 
     17 C17         3.7862   52.0326   20.2198 C.ar      1 UNK         0.0000 
     18 N18         4.2144   53.3292   20.0333 N.pl3     1 UNK         0.0000 
     19 N19         3.9043   54.1973   18.9965 N.3       1 UNK         0.0000 
     20 N20         2.9390   51.3681   19.3557 N.pl3     1 UNK         0.0000 
     21 N21         1.5456   51.0978   19.4637 N.2       1 UNK         0.0000 
     22 C22         0.7960   51.4625   20.4334 C.2       1 UNK         0.0000 
     23 C23        -0.6913   51.1209   20.4890 C.3       1 UNK         0.0000 
     24 C24        -1.2798   51.9323   21.6421 C.3       1 UNK         0.0000 
     25 C25        -0.1247   52.1091   22.6060 C.3       1 UNK         0.0000 
     26 C26         1.1090   52.2493   21.7145 C.3       1 UNK         0.0000 
     27 H27         1.5091   54.0664   27.0811 H         1 UNK         0.0000 
     28 H28         2.7673   54.0622   24.9644 H         1 UNK         0.0000 
     29 H29         5.1753   54.1697   29.2811 H         1 UNK         0.0000 
     30 H30         4.9450   53.4795   23.9753 H         1 UNK         0.0000 
     31 H31         7.8279   55.2274   22.7664 H         1 UNK         0.0000 
     32 H32         7.2726   53.5878   22.8817 H         1 UNK         0.0000 
     33 H33         3.2405   54.8944   19.3097 H         1 UNK         0.0000 
     34 H34         4.7351   54.6361   18.6280 H         1 UNK         0.0000 
     35 H35         3.3647   50.9103   18.5520 H         1 UNK         0.0000 
     36 H36        -1.1884   51.3342   19.5418 H         1 UNK         0.0000 
     37 H37        -0.8043   50.0537   20.6856 H         1 UNK         0.0000 
     38 H38        -1.6419   52.8962   21.2870 H         1 UNK         0.0000 
     39 H39        -2.1211   51.4219   22.1140 H         1 UNK         0.0000 
     40 H40        -0.0290   51.2304   23.2478 H         1 UNK         0.0000 
     41 H41        -0.2634   52.9726   23.2579 H         1 UNK         0.0000 
     42 H42         1.9814   51.8613   22.2360 H         1 UNK         0.0000 
     43 H43         1.2947   53.2962   21.4677 H         1 UNK         0.0000 
@<TRIPOS>BOND
     1    1    6 ar   
     2    1    2 ar   
     3    1   27 1    
     4    2    3 ar   
     5    2   28 1    
     6    3    4 ar   
     7    3    9 1    
     8    4    5 ar   
     9    4    8 1    
    10    5    6 ar   
    11    5   29 1    
    12    6    7 1    
    13    9   10 am   BACKBONE|DICT|INTERRES
    14    9   30 1    
    15   10   11 2    
    16   10   12 1    
    17   12   13 1    
    18   12   31 1    
    19   12   32 1    
    20   13   14 1    
    21   14   18 ar   
    22   14   15 ar   
    23   15   16 ar   
    24   16   17 ar   
    25   17   18 ar   
    26   17   20 1    
    27   18   19 1    
    28   19   33 1    
    29   19   34 1    
    30   20   21 1    
    31   20   35 1    
    32   21   22 2    
    33   22   26 1    
    34   22   23 1    
    35   23   24 1    
    36   23   36 1    
    37   23   37 1    
    38   24   25 1    
    39   24   38 1    
    40   24   39 1    
    41   25   26 1    
    42   25   40 1    
    43   25   41 1    
    44   26   42 1    
    45   26   43 1    
@<TRIPOS>SUBSTRUCTURE
     1 UNK         1 GROUP             0       ****    0 ROOT    
