@<TRIPOS>MOLECULE
ZINC29770030_2765
51   54    1
SMALL
USER_CHARGES


@<TRIPOS>ATOM
      1 C1          6.6539   52.9108   17.8813 C.3       1 UNK         0.0000 
      2 C2          5.7485   54.0962   17.5712 C.ar      1 UNK         0.0000 
      3 C3          5.3866   55.0432   18.5434 C.ar      1 UNK         0.0000 
      4 C4          4.5821   56.1177   18.1519 C.ar      1 UNK         0.0000 
      5 C5          4.1654   56.2403   16.8055 C.ar      1 UNK         0.0000 
      6 C6          3.3902   57.3322   16.3384 C.ar      1 UNK         0.0000 
      7 C7          3.0184   57.4147   14.9879 C.ar      1 UNK         0.0000 
      8 C8          3.4058   56.4026   14.1117 C.ar      1 UNK         0.0000 
      9 C9          4.1678   55.3178   14.5399 C.ar      1 UNK         0.0000 
     10 C10         4.5687   55.2231   15.8915 C.ar      1 UNK         0.0000 
     11 N11         5.3411   54.1705   16.2779 N.ar      1 UNK         0.0000 
     12 O12         2.2818   58.4474   14.4403 O.3       1 UNK         0.0000 
     13 C13         1.8607   59.5224   15.2718 C.3       1 UNK         0.0000 
     14 C14         5.9021   54.9773   19.9527 C.2       1 UNK         0.0000 
     15 O15         7.0716   55.2967   20.1690 O.2       1 UNK         0.0000 
     16 N16         5.0058   54.5504   20.8748 N.am      1 UNK         0.0000 
     17 C17         5.2015   54.4405   22.2532 C.2       1 UNK         0.0000 
     18 N18         4.2287   54.1000   23.0710 N.2       1 UNK         0.0000 
     19 C19         4.5781   54.1565   24.3547 C.2       1 UNK         0.0000 
     20 C20         5.9198   54.4971   24.5579 C.2       1 UNK         0.0000 
     21 S21         6.7043   54.8062   23.0541 S.3       1 UNK         0.0000 
     22 C22         3.6009   53.8631   25.4621 C.ar      1 UNK         0.0000 
     23 C23         3.9649   54.1399   26.7862 C.ar      1 UNK         0.0000 
     24 C24         3.1219   53.8157   27.8421 C.ar      1 UNK         0.0000 
     25 C25         1.8923   53.1916   27.5946 C.ar      1 UNK         0.0000 
     26 C26         1.5044   52.9498   26.2742 C.ar      1 UNK         0.0000 
     27 C27         2.3460   53.2918   25.2158 C.ar      1 UNK         0.0000 
     28 N28         0.9894   52.8058   28.6064 N.am      1 UNK         0.0000 
     29 C29         1.2133   52.6611   29.9305 C.2       1 UNK         0.0000 
     30 O30         2.3044   52.7888   30.4866 O.2       1 UNK         0.0000 
     31 C31         0.0002   52.2858   30.7729 C.3       1 UNK         0.0000 
     32 H32         7.6712   53.2597   18.0580 H         1 UNK         0.0000 
     33 H33         6.3046   52.4028   18.7795 H         1 UNK         0.0000 
     34 H34         6.6811   52.1788   17.0726 H         1 UNK         0.0000 
     35 H35         4.3043   56.8886   18.8552 H         1 UNK         0.0000 
     36 H36         3.1096   58.1026   17.0417 H         1 UNK         0.0000 
     37 H37         3.1148   56.4678   13.0735 H         1 UNK         0.0000 
     38 H38         4.4673   54.5492   13.8415 H         1 UNK         0.0000 
     39 H39         1.2729   60.2234   14.6799 H         1 UNK         0.0000 
     40 H40         1.2245   59.1677   16.0815 H         1 UNK         0.0000 
     41 H41         2.7042   60.0752   15.6874 H         1 UNK         0.0000 
     42 H42         4.0828   54.3185   20.5367 H         1 UNK         0.0000 
     43 H43         6.4708   54.5843   25.4806 H         1 UNK         0.0000 
     44 H44         4.9100   54.6029   27.0217 H         1 UNK         0.0000 
     45 H45         3.4507   54.0565   28.8400 H         1 UNK         0.0000 
     46 H46         0.5546   52.4821   26.0571 H         1 UNK         0.0000 
     47 H47         2.0332   53.0721   24.2055 H         1 UNK         0.0000 
     48 H48         0.0713   52.5449   28.2815 H         1 UNK         0.0000 
     49 H49        -0.7225   51.6962   30.2080 H         1 UNK         0.0000 
     50 H50        -0.4948   53.1833   31.1428 H         1 UNK         0.0000 
     51 H51         0.3039   51.6984   31.6406 H         1 UNK         0.0000 
@<TRIPOS>BOND
     1    1    2 1    
     2    1   32 1    
     3    1   33 1    
     4    1   34 1    
     5    2   11 ar   
     6    2    3 ar   
     7    3    4 ar   
     8    3   14 1    
     9    4    5 ar   
    10    4   35 1    
    11    5   10 ar   
    12    5    6 ar   
    13    6    7 ar   
    14    6   36 1    
    15    7    8 ar   
    16    7   12 1    
    17    8    9 ar   
    18    8   37 1    
    19    9   10 ar   
    20    9   38 1    
    21   10   11 ar   
    22   12   13 1    
    23   13   39 1    
    24   13   40 1    
    25   13   41 1    
    26   14   15 2    
    27   14   16 am   BACKBONE|DICT|INTERRES
    28   16   17 am   BACKBONE|DICT|INTERRES
    29   16   42 1    
    30   17   21 1    
    31   17   18 2    
    32   18   19 1    
    33   19   20 2    
    34   19   22 1    
    35   20   21 1    
    36   20   43 1    
    37   22   27 ar   
    38   22   23 ar   
    39   23   24 ar   
    40   23   44 1    
    41   24   25 ar   
    42   24   45 1    
    43   25   26 ar   
    44   25   28 1    
    45   26   27 ar   
    46   26   46 1    
    47   27   47 1    
    48   28   29 am   BACKBONE|DICT|INTERRES
    49   28   48 1    
    50   29   30 2    
    51   29   31 1    
    52   31   49 1    
    53   31   50 1    
    54   31   51 1    
@<TRIPOS>SUBSTRUCTURE
     1 UNK         1 GROUP             0       ****    0 ROOT    
