@<TRIPOS>MOLECULE
ZINC21323028_3123
54   56    1
SMALL
USER_CHARGES


@<TRIPOS>ATOM
      1 C1         -4.3311   49.4273   30.0536 C.3       1 UNK         0.0000 
      2 C2         -4.9759   50.7027   29.4995 C.2       1 UNK         0.0000 
      3 N3         -4.5934   51.2963   28.4290 N.2       1 UNK         0.0000 
      4 N4         -3.4490   50.8810   27.7238 N.pl3     1 UNK         0.0000 
      5 C5         -3.0559   51.4329   26.5176 C.ar      1 UNK         0.0000 
      6 N6         -3.3402   52.6400   26.0882 N.2       1 UNK         0.0000 
      7 N7         -2.7194   52.7856   24.8557 N.2       1 UNK         0.0000 
      8 C8         -2.0974   51.6613   24.5819 C.ar      1 UNK         0.0000 
      9 N9         -2.2799   50.7547   25.6023 N.pl3     1 UNK         0.0000 
     10 N10        -1.7904   49.4582   25.6815 N.3       1 UNK         0.0000 
     11 S11        -1.0819   51.4009   23.1609 S.3       1 UNK         0.0000 
     12 C12        -0.0362   52.8967   23.2810 C.3       1 UNK         0.0000 
     13 C13         1.2235   52.7634   24.1274 C.2       1 UNK         0.0000 
     14 O14         1.5034   51.6979   24.6696 O.2       1 UNK         0.0000 
     15 N15         1.9790   53.8775   24.2065 N.am      1 UNK         0.0000 
     16 C16         3.1400   54.0048   24.9820 C.ar      1 UNK         0.0000 
     17 C17         4.3185   54.3604   24.3241 C.ar      1 UNK         0.0000 
     18 C18         5.5068   54.5028   25.0376 C.ar      1 UNK         0.0000 
     19 C19         5.5385   54.2842   26.4138 C.ar      1 UNK         0.0000 
     20 C20         4.3439   53.9553   27.0746 C.ar      1 UNK         0.0000 
     21 C21         3.1321   53.8220   26.3798 C.ar      1 UNK         0.0000 
     22 O22         1.9252   53.5468   26.9987 O.3       1 UNK         0.0000 
     23 C23         1.8912   53.2844   28.3981 C.3       1 UNK         0.0000 
     24 O24         6.7608   54.4131   27.0404 O.3       1 UNK         0.0000 
     25 C25         6.8828   53.9588   28.3845 C.3       1 UNK         0.0000 
     26 C26        -6.0664   51.2961   30.3233 C.ar      1 UNK         0.0000 
     27 C27        -6.8997   52.2962   29.7896 C.ar      1 UNK         0.0000 
     28 C28        -7.8901   52.8976   30.5588 C.ar      1 UNK         0.0000 
     29 C29        -8.0496   52.5328   31.8902 C.ar      1 UNK         0.0000 
     30 C30        -7.2433   51.5472   32.4496 C.ar      1 UNK         0.0000 
     31 C31        -6.2641   50.9291   31.6691 C.ar      1 UNK         0.0000 
     32 Br32       -9.3787   53.3976   32.9440 Br        1 UNK         0.0000 
     33 H33        -3.6949   49.6682   30.9061 H         1 UNK         0.0000 
     34 H34        -5.0812   48.7012   30.3708 H         1 UNK         0.0000 
     35 H35        -3.6959   48.9162   29.3302 H         1 UNK         0.0000 
     36 H36        -3.0469   50.0093   28.0604 H         1 UNK         0.0000 
     37 H37        -1.8744   48.9801   24.7983 H         1 UNK         0.0000 
     38 H38        -0.8256   49.4532   25.9850 H         1 UNK         0.0000 
     39 H39         0.3038   53.1361   22.2726 H         1 UNK         0.0000 
     40 H40        -0.6121   53.7337   23.6769 H         1 UNK         0.0000 
     41 H41         1.7573   54.6564   23.6034 H         1 UNK         0.0000 
     42 H42         4.3261   54.5130   23.2526 H         1 UNK         0.0000 
     43 H43         6.4171   54.7631   24.5169 H         1 UNK         0.0000 
     44 H44         4.3545   53.8042   28.1386 H         1 UNK         0.0000 
     45 H45         0.8685   53.0436   28.6916 H         1 UNK         0.0000 
     46 H46         2.5201   52.4304   28.6624 H         1 UNK         0.0000 
     47 H47         2.2076   54.1550   28.9742 H         1 UNK         0.0000 
     48 H48         7.9043   54.0964   28.7337 H         1 UNK         0.0000 
     49 H49         6.2298   54.5014   29.0686 H         1 UNK         0.0000 
     50 H50         6.6521   52.8964   28.4603 H         1 UNK         0.0000 
     51 H51        -6.7922   52.6125   28.7605 H         1 UNK         0.0000 
     52 H52        -8.5252   53.6556   30.1280 H         1 UNK         0.0000 
     53 H53        -7.3654   51.2683   33.4869 H         1 UNK         0.0000 
     54 H54        -5.6402   50.1886   32.1501 H         1 UNK         0.0000 
@<TRIPOS>BOND
     1    1    2 1    
     2    1   33 1    
     3    1   34 1    
     4    1   35 1    
     5    2    3 2    
     6    2   26 1    
     7    3    4 1    
     8    4    5 1    
     9    4   36 1    
    10    5    9 ar   
    11    5    6 ar   
    12    6    7 ar   
    13    7    8 ar   
    14    8    9 ar   
    15    8   11 1    
    16    9   10 1    
    17   10   37 1    
    18   10   38 1    
    19   11   12 1    
    20   12   13 1    
    21   12   39 1    
    22   12   40 1    
    23   13   14 2    
    24   13   15 am   BACKBONE|DICT|INTERRES
    25   15   16 1    
    26   15   41 1    
    27   16   21 ar   
    28   16   17 ar   
    29   17   18 ar   
    30   17   42 1    
    31   18   19 ar   
    32   18   43 1    
    33   19   20 ar   
    34   19   24 1    
    35   20   21 ar   
    36   20   44 1    
    37   21   22 1    
    38   22   23 1    
    39   23   45 1    
    40   23   46 1    
    41   23   47 1    
    42   24   25 1    
    43   25   48 1    
    44   25   49 1    
    45   25   50 1    
    46   26   31 ar   
    47   26   27 ar   
    48   27   28 ar   
    49   27   51 1    
    50   28   29 ar   
    51   28   52 1    
    52   29   30 ar   
    53   29   32 1    
    54   30   31 ar   
    55   30   53 1    
    56   31   54 1    
@<TRIPOS>SUBSTRUCTURE
     1 UNK         1 GROUP             0       ****    0 ROOT    
