@<TRIPOS>MOLECULE
ZINC22505830_1968
65   67    1
SMALL
USER_CHARGES


@<TRIPOS>ATOM
      1 C1         -5.1153   52.5117   24.6295 C.3       1 UNK         0.0000 
      2 C2         -3.8410   53.3706   24.4801 C.3       1 UNK         0.0000 
      3 C3         -2.7368   52.7416   23.6037 C.3       1 UNK         0.0000 
      4 C4         -1.3380   53.2921   23.9284 C.3       1 UNK         0.0000 
      5 C5         -0.1767   52.5214   23.2460 C.3       1 UNK         0.0000 
      6 C6         -0.0038   51.0419   23.7006 C.3       1 UNK         0.0000 
      7 C7          0.1759   50.8549   25.2176 C.2       1 UNK         0.0000 
      8 N8          0.7044   51.8113   25.8888 N.2       1 UNK         0.0000 
      9 N9          0.8391   51.7038   27.1969 N.2       1 UNK         0.0000 
     10 C10         1.7074   52.4533   27.7520 C.2       1 UNK         0.0000 
     11 N11         2.0087   52.3941   28.9760 N.am      1 UNK         0.0000 
     12 C12         3.0119   53.2289   29.3728 C.2       1 UNK         0.0000 
     13 O13         3.4266   53.2966   30.5222 O.2       1 UNK         0.0000 
     14 C14         3.6282   54.0681   28.2570 C.3       1 UNK         0.0000 
     15 H15         3.4679   55.1173   28.5034 H         1 UNK         0.0000 
     16 S16         2.6421   53.6960   26.8004 S.3       1 UNK         0.0000 
     17 C17         5.1561   53.7571   28.1944 C.3       1 UNK         0.0000 
     18 C18         5.9715   54.1296   26.9525 C.2       1 UNK         0.0000 
     19 O19         7.1120   53.6965   26.8764 O.2       1 UNK         0.0000 
     20 N20         5.4367   54.8972   25.9943 N.am      1 UNK         0.0000 
     21 C21         6.0758   55.1993   24.7087 C.3       1 UNK         0.0000 
     22 C22         5.5597   54.2854   23.5727 C.3       1 UNK         0.0000 
     23 H23         5.9755   53.2920   23.7417 H         1 UNK         0.0000 
     24 C24         4.0331   54.1552   23.4693 C.3       1 UNK         0.0000 
     25 C25         3.7526   54.0787   21.9833 C.3       1 UNK         0.0000 
     26 C26         5.1141   54.2285   21.3133 C.3       1 UNK         0.0000 
     27 O27         5.9621   54.8000   22.3080 O.3       1 UNK         0.0000 
     28 C28        -0.3209   49.4921   25.7622 C.3       1 UNK         0.0000 
     29 C29        -1.8444   49.2514   25.5786 C.3       1 UNK         0.0000 
     30 C30        -2.7885   50.3420   26.1451 C.3       1 UNK         0.0000 
     31 C31        -4.2271   50.2268   25.5925 C.3       1 UNK         0.0000 
     32 C32        -5.1096   51.4809   25.7903 C.3       1 UNK         0.0000 
     33 H33        -5.3521   52.0189   23.6843 H         1 UNK         0.0000 
     34 H34        -5.9484   53.1928   24.8076 H         1 UNK         0.0000 
     35 H35        -4.1046   54.3376   24.0489 H         1 UNK         0.0000 
     36 H36        -3.4599   53.5984   25.4768 H         1 UNK         0.0000 
     37 H37        -2.7417   51.6622   23.7304 H         1 UNK         0.0000 
     38 H38        -2.9438   52.8969   22.5456 H         1 UNK         0.0000 
     39 H39        -1.2919   54.3500   23.6817 H         1 UNK         0.0000 
     40 H40        -1.2017   53.2821   25.0074 H         1 UNK         0.0000 
     41 H41         0.7549   53.0631   23.4206 H         1 UNK         0.0000 
     42 H42        -0.3187   52.5375   22.1650 H         1 UNK         0.0000 
     43 H43         0.8492   50.5960   23.1892 H         1 UNK         0.0000 
     44 H44        -0.8633   50.4839   23.3358 H         1 UNK         0.0000 
     45 H45         5.3048   52.6779   28.2881 H         1 UNK         0.0000 
     46 H46         5.6563   54.1973   29.0584 H         1 UNK         0.0000 
     47 H47         4.4779   55.1948   26.1095 H         1 UNK         0.0000 
     48 H48         7.1626   55.1094   24.7711 H         1 UNK         0.0000 
     49 H49         5.8840   56.2461   24.4817 H         1 UNK         0.0000 
     50 H50         3.5343   55.0364   23.8723 H         1 UNK         0.0000 
     51 H51         3.6567   53.2968   24.0264 H         1 UNK         0.0000 
     52 H52         3.1027   54.8967   21.6814 H         1 UNK         0.0000 
     53 H53         3.2649   53.1449   21.7016 H         1 UNK         0.0000 
     54 H54         5.0808   54.8630   20.4272 H         1 UNK         0.0000 
     55 H55         5.5056   53.2643   20.9880 H         1 UNK         0.0000 
     56 H56         0.2239   48.6915   25.2601 H         1 UNK         0.0000 
     57 H57        -0.0808   49.3643   26.8179 H         1 UNK         0.0000 
     58 H58        -2.0541   49.0964   24.5204 H         1 UNK         0.0000 
     59 H59        -2.0995   48.3018   26.0526 H         1 UNK         0.0000 
     60 H60        -2.7996   50.2719   27.2349 H         1 UNK         0.0000 
     61 H61        -2.3957   51.3334   25.9350 H         1 UNK         0.0000 
     62 H62        -4.2138   49.9704   24.5322 H         1 UNK         0.0000 
     63 H63        -4.7032   49.3769   26.0839 H         1 UNK         0.0000 
     64 H64        -6.1377   51.1382   25.9152 H         1 UNK         0.0000 
     65 H65        -4.8611   51.9718   26.7321 H         1 UNK         0.0000 
@<TRIPOS>BOND
     1    1   32 1    
     2    1    2 1    
     3    1   33 1    
     4    1   34 1    
     5    2    3 1    
     6    2   35 1    
     7    2   36 1    
     8    3    4 1    
     9    3   37 1    
    10    3   38 1    
    11    4    5 1    
    12    4   39 1    
    13    4   40 1    
    14    5    6 1    
    15    5   41 1    
    16    5   42 1    
    17    6    7 1    
    18    6   43 1    
    19    6   44 1    
    20    7    8 2    
    21    7   28 1    
    22    8    9 1    
    23    9   10 1    
    24   10   16 1    
    25   10   11 2    BACKBONE|DICT|INTERRES
    26   11   12 am   BACKBONE|DICT|INTERRES
    27   12   13 2    
    28   12   14 1    
    29   14   15 1    
    30   14   16 1    
    31   14   17 1    
    32   17   18 1    
    33   17   45 1    
    34   17   46 1    
    35   18   19 2    
    36   18   20 am   BACKBONE|DICT|INTERRES
    37   20   21 1    
    38   20   47 1    
    39   21   22 1    
    40   21   48 1    
    41   21   49 1    
    42   22   23 1    
    43   22   27 1    
    44   22   24 1    
    45   24   25 1    
    46   24   50 1    
    47   24   51 1    
    48   25   26 1    
    49   25   52 1    
    50   25   53 1    
    51   26   27 1    
    52   26   54 1    
    53   26   55 1    
    54   28   29 1    
    55   28   56 1    
    56   28   57 1    
    57   29   30 1    
    58   29   58 1    
    59   29   59 1    
    60   30   31 1    
    61   30   60 1    
    62   30   61 1    
    63   31   32 1    
    64   31   62 1    
    65   31   63 1    
    66   32   64 1    
    67   32   65 1    
@<TRIPOS>SUBSTRUCTURE
     1 UNK         1 GROUP             0       ****    0 ROOT    
