ZINC12569607_2475
                    3D
 Schrodinger Suite 2024-2.
 53 56  0  0  1  0            999 V2000
    1.1997   56.3162   30.7065 C   0  0  0  0  0  0
    1.3405   55.1537   29.7539 C   0  0  0  0  0  0
    2.1493   55.1759   28.7322 N   0  0  0  0  0  0
    2.0779   54.0971   27.9700 C   0  0  0  0  0  0
    1.1782   53.1045   28.4070 C   0  0  0  0  0  0
    0.4161   53.6979   29.8629 S   0  0  0  0  0  0
    0.8496   51.7216   27.8543 C   0  0  0  0  0  0
   -0.4247   51.6423   26.9936 C   0  0  0  0  0  0
   -1.1901   52.6022   26.9235 O   0  0  0  0  0  0
   -0.6332   50.4680   26.3641 N   0  0  0  0  0  0
   -1.7041   50.0999   25.5236 C   0  0  0  0  0  0
   -2.5479   51.0124   24.8664 C   0  0  0  0  0  0
   -3.6095   50.5555   24.0872 C   0  0  0  0  0  0
   -3.8406   49.1881   23.9510 C   0  0  0  0  0  0
   -3.0011   48.2687   24.5865 C   0  0  0  0  0  0
   -1.9219   48.7291   25.3487 C   0  0  0  0  0  0
   -3.2803   46.4968   24.3967 S   0  0  0  0  0  0
   -4.5448   46.3625   23.6661 O   0  0  0  0  0  0
   -2.0946   46.1123   23.6259 O   0  0  0  0  0  0
   -3.2878   45.8758   26.0576 N   0  0  0  0  0  0
   -3.8148   46.5081   27.0242 C   0  0  0  0  0  0
   -4.5859   47.6571   27.0193 N   0  0  0  0  0  0
   -4.6055   48.3342   28.3005 C   0  0  0  0  0  0
   -4.6091   47.1242   29.2156 C   0  0  0  0  0  0
   -3.7348   46.1028   28.4859 C   0  0  0  0  0  0
    2.9171   54.0651   26.7326 C   0  0  0  0  0  0
    4.2559   54.4776   26.7674 C   0  0  0  0  0  0
    5.0150   54.4909   25.5999 C   0  0  0  0  0  0
    4.4373   54.0980   24.3955 C   0  0  0  0  0  0
    3.1042   53.6988   24.3474 C   0  0  0  0  0  0
    2.3468   53.6747   25.5159 C   0  0  0  0  0  0
    5.1762   54.1056   23.2634 F   0  0  0  0  0  0
    2.0480   57.0027   30.6630 H   0  0  0  0  0  0
    0.3071   56.8964   30.4822 H   0  0  0  0  0  0
    1.1043   55.9855   31.7387 H   0  0  0  0  0  0
    1.6927   51.3416   27.2794 H   0  0  0  0  0  0
    0.7269   51.0227   28.6818 H   0  0  0  0  0  0
   -0.0321   49.7032   26.6354 H   0  0  0  0  0  0
   -2.3992   52.0777   24.9425 H   0  0  0  0  0  0
   -4.2560   51.2642   23.5906 H   0  0  0  0  0  0
   -4.6678   48.8474   23.3446 H   0  0  0  0  0  0
   -1.2805   48.0137   25.8486 H   0  0  0  0  0  0
   -3.6951   48.9252   28.4072 H   0  0  0  0  0  0
   -5.4854   48.9702   28.4034 H   0  0  0  0  0  0
   -5.6256   46.7460   29.3371 H   0  0  0  0  0  0
   -4.2410   47.3784   30.2110 H   0  0  0  0  0  0
   -4.0974   45.0874   28.6213 H   0  0  0  0  0  0
   -2.6999   46.1486   28.8289 H   0  0  0  0  0  0
    4.7104   54.7863   27.6982 H   0  0  0  0  0  0
    6.0489   54.8002   25.6246 H   0  0  0  0  0  0
    2.6654   53.4040   23.4054 H   0  0  0  0  0  0
    1.3086   53.3790   25.4657 H   0  0  0  0  0  0
   -4.7296   48.2991   26.2542 H   0  0  0  0  0  0
  1  2  1  0  0  0
  1 33  1  0  0  0
  1 34  1  0  0  0
  1 35  1  0  0  0
  2  6  1  0  0  0
  2  3  2  0  0  0
  3  4  1  0  0  0
  4  5  2  0  0  0
  4 26  1  0  0  0
  5  6  1  0  0  0
  5  7  1  0  0  0
  7  8  1  0  0  0
  7 36  1  0  0  0
  7 37  1  0  0  0
  8  9  2  0  0  0
  8 10  1  0  0  0
 10 11  1  0  0  0
 10 38  1  0  0  0
 11 16  2  0  0  0
 11 12  1  0  0  0
 12 13  2  0  0  0
 12 39  1  0  0  0
 13 14  1  0  0  0
 13 40  1  0  0  0
 14 15  2  0  0  0
 14 41  1  0  0  0
 15 16  1  0  0  0
 15 17  1  0  0  0
 16 42  1  0  0  0
 17 18  2  0  0  0
 17 19  2  0  0  0
 17 20  1  0  0  0
 20 21  2  0  0  0
 21 25  1  0  0  0
 21 22  1  0  0  0
 22 23  1  0  0  0
 22 53  1  0  0  0
 23 24  1  0  0  0
 23 43  1  0  0  0
 23 44  1  0  0  0
 24 25  1  0  0  0
 24 45  1  0  0  0
 24 46  1  0  0  0
 25 47  1  0  0  0
 25 48  1  0  0  0
 26 31  2  0  0  0
 26 27  1  0  0  0
 27 28  2  0  0  0
 27 49  1  0  0  0
 28 29  1  0  0  0
 28 50  1  0  0  0
 29 30  2  0  0  0
 29 32  1  0  0  0
 30 31  1  0  0  0
 30 51  1  0  0  0
 31 52  1  0  0  0
M  END
> <i_i_glide_confnum>
24

> <i_i_glide_lignum>
2476

> <i_i_glide_posenum>
254

> <i_i_glide_rotatable_bonds>
7

> <i_m_Source_File_Index>
1019

> <b_m_subgroup_collapsed>
0

> <r_i_docking_score>
-5.25534

> <r_i_glide_ecoul>
-5.74105

> <r_i_glide_eff_state_penalty>
0

> <r_i_glide_einternal>
4.25593

> <r_i_glide_emodel>
-60.7315

> <r_i_glide_energy>
-48.4354

> <r_i_glide_erotb>
0.633856

> <r_i_glide_esite>
-0.384662

> <r_i_glide_evdw>
-42.6943

> <r_i_glide_gscore>
-5.25534

> <r_i_glide_hbond>
-0.108337

> <r_i_glide_ligand_efficiency>
-0.164229

> <r_i_glide_ligand_efficiency_ln>
-1.17681

> <r_i_glide_ligand_efficiency_sa>
-0.521396

> <r_i_glide_lipo>
-2.58261

> <r_i_glide_metal>
0

> <r_i_glide_rewards>
0.182292

> <s_i_glide_gridfile>
wee1_glide-grid

> <s_m_Source_File>
wee1_decoys_glide_SP.sdf

> <s_m_Source_Path>
/Users/zhangxujun/Desktop

> <s_m_entry_id>
1294

> <s_m_entry_name>
wee1_decoys_glide_SP.1019

> <s_m_subgroup_title>
wee1_decoys_glide_SP

> <s_m_subgroupid>
wee1_decoys_glide_SP


$$$$
