@<TRIPOS>MOLECULE
ZINC09090245_4311
59   64    1
SMALL
USER_CHARGES


@<TRIPOS>ATOM
      1 C1          5.9053   54.8379   22.8452 C.3       1 UNK         0.0000 
      2 C2          5.0250   54.4278   24.0240 C.ar      1 UNK         0.0000 
      3 N3          5.5109   54.6471   25.1992 N.2       1 UNK         0.0000 
      4 C4          4.7607   54.2615   26.2637 C.ar      1 UNK         0.0000 
      5 C5          3.5154   53.6459   26.1870 C.ar      1 UNK         0.0000 
      6 C6          2.9615   53.3672   27.4529 C.2       1 UNK         0.0000 
      7 C7          3.8075   53.7919   28.4877 C.2       1 UNK         0.0000 
      8 S8          5.2850   54.4948   27.8948 S.3       1 UNK         0.0000 
      9 C9          3.4542   53.7309   29.9628 C.3       1 UNK         0.0000 
     10 C10         2.2871   52.7446   30.1787 C.3       1 UNK         0.0000 
     11 C11         1.1468   52.9822   29.1768 C.3       1 UNK         0.0000 
     12 C12         1.5930   52.7305   27.7208 C.3       1 UNK         0.0000 
     13 C13         2.9736   53.3029   24.8721 C.ar      1 UNK         0.0000 
     14 O14         1.9458   52.6480   24.6969 O.2       1 UNK         0.0000 
     15 N15         3.7838   53.7861   23.8414 N.pl3     1 UNK         0.0000 
     16 N16         3.1629   53.7493   22.5583 N.pl3     1 UNK         0.0000 
     17 C17         3.2702   52.6917   21.6863 C.2       1 UNK         0.0000 
     18 S18         4.7042   52.0961   21.1215 S.2       1 UNK         0.0000 
     19 N19         2.1523   52.0970   21.1756 N.am      1 UNK         0.0000 
     20 C20         0.8458   52.1930   21.5114 C.2       1 UNK         0.0000 
     21 O21         0.4253   52.8967   22.4285 O.2       1 UNK         0.0000 
     22 C22        -0.1419   51.3325   20.6699 C.3       1 UNK         0.0000 
     23 C23        -0.1280   51.8320   19.1895 C.3       1 UNK         0.0000 
     24 C24        -1.0999   50.9774   18.3350 C.3       1 UNK         0.0000 
     25 C25        -2.5387   51.1111   18.9001 C.3       1 UNK         0.0000 
     26 C26        -2.5754   50.6073   20.3667 C.3       1 UNK         0.0000 
     27 C27        -1.6030   51.4549   21.2260 C.3       1 UNK         0.0000 
     28 C28        -2.1366   49.1201   20.4140 C.3       1 UNK         0.0000 
     29 C29        -0.6958   48.9808   19.8563 C.3       1 UNK         0.0000 
     30 C30        -0.6589   49.4895   18.3900 C.3       1 UNK         0.0000 
     31 C31         0.2780   49.8255   20.7188 C.3       1 UNK         0.0000 
     32 H32         6.5659   55.6671   23.1096 H         1 UNK         0.0000 
     33 H33         6.5475   54.0122   22.5388 H         1 UNK         0.0000 
     34 H34         5.3241   55.1576   21.9803 H         1 UNK         0.0000 
     35 H35         4.3042   53.4418   30.5763 H         1 UNK         0.0000 
     36 H36         3.1517   54.7284   30.2840 H         1 UNK         0.0000 
     37 H37         2.6461   51.7200   30.0789 H         1 UNK         0.0000 
     38 H38         1.9077   52.8317   31.1978 H         1 UNK         0.0000 
     39 H39         0.2985   52.3362   29.4134 H         1 UNK         0.0000 
     40 H40         0.7809   54.0059   29.2794 H         1 UNK         0.0000 
     41 H41         0.8332   53.1146   27.0389 H         1 UNK         0.0000 
     42 H42         1.6506   51.6568   27.5346 H         1 UNK         0.0000 
     43 H43         2.3100   54.2936   22.5623 H         1 UNK         0.0000 
     44 H44         2.3432   51.4505   20.4247 H         1 UNK         0.0000 
     45 H45         0.8737   51.7670   18.7579 H         1 UNK         0.0000 
     46 H46        -0.4089   52.8846   19.1281 H         1 UNK         0.0000 
     47 H47        -1.0788   51.3257   17.3015 H         1 UNK         0.0000 
     48 H48        -3.2369   50.5384   18.2879 H         1 UNK         0.0000 
     49 H49        -2.8698   52.1495   18.8455 H         1 UNK         0.0000 
     50 H50        -3.5888   50.6992   20.7616 H         1 UNK         0.0000 
     51 H51        -1.9325   52.4955   21.2312 H         1 UNK         0.0000 
     52 H52        -1.6491   51.1222   22.2645 H         1 UNK         0.0000 
     53 H53        -2.8274   48.5046   19.8359 H         1 UNK         0.0000 
     54 H54        -2.1842   48.7424   21.4364 H         1 UNK         0.0000 
     55 H55        -0.3917   47.9332   19.8848 H         1 UNK         0.0000 
     56 H56         0.3447   49.3741   17.9774 H         1 UNK         0.0000 
     57 H57        -1.3119   48.8804   17.7622 H         1 UNK         0.0000 
     58 H58         0.2784   49.4575   21.7475 H         1 UNK         0.0000 
     59 H59         1.2952   49.6819   20.3473 H         1 UNK         0.0000 
@<TRIPOS>BOND
     1    1    2 1    
     2    1   32 1    
     3    1   33 1    
     4    1   34 1    
     5    2   15 ar   
     6    2    3 ar   
     7    3    4 ar   
     8    4    8 1    
     9    4    5 ar   
    10    5    6 1    
    11    5   13 ar   
    12    6   12 1    
    13    6    7 2    
    14    7    8 1    
    15    7    9 1    
    16    9   10 1    
    17    9   35 1    
    18    9   36 1    
    19   10   11 1    
    20   10   37 1    
    21   10   38 1    
    22   11   12 1    
    23   11   39 1    
    24   11   40 1    
    25   12   41 1    
    26   12   42 1    
    27   13   14 2    
    28   13   15 ar   
    29   15   16 1    
    30   16   17 1    
    31   16   43 1    
    32   17   18 2    
    33   17   19 am   BACKBONE|DICT|INTERRES
    34   19   20 am   BACKBONE|DICT|INTERRES
    35   19   44 1    
    36   20   21 2    
    37   20   22 1    
    38   22   27 1    
    39   22   31 1    
    40   22   23 1    
    41   23   24 1    
    42   23   45 1    
    43   23   46 1    
    44   24   30 1    
    45   24   25 1    
    46   24   47 1    
    47   25   26 1    
    48   25   48 1    
    49   25   49 1    
    50   26   27 1    
    51   26   28 1    
    52   26   50 1    
    53   27   51 1    
    54   27   52 1    
    55   28   29 1    
    56   28   53 1    
    57   28   54 1    
    58   29   30 1    
    59   29   31 1    
    60   29   55 1    
    61   30   56 1    
    62   30   57 1    
    63   31   58 1    
    64   31   59 1    
@<TRIPOS>SUBSTRUCTURE
     1 UNK         1 GROUP             0       ****    0 ROOT    
