@<TRIPOS>MOLECULE
ZINC15675839_5009
56   60    1
SMALL
USER_CHARGES


@<TRIPOS>ATOM
      1 C1          6.1826   54.6851   27.4575 C.3       1 UNK         0.0000 
      2 O2          5.1112   54.4025   26.5608 O.3       1 UNK         0.0000 
      3 C3          5.3414   54.4380   25.1987 C.ar      1 UNK         0.0000 
      4 C4          4.2699   54.0965   24.3704 C.ar      1 UNK         0.0000 
      5 C5          4.4103   54.0967   22.9829 C.ar      1 UNK         0.0000 
      6 C6          5.6206   54.4967   22.4148 C.ar      1 UNK         0.0000 
      7 C7          6.7044   54.8193   23.2349 C.ar      1 UNK         0.0000 
      8 C8          6.5690   54.7858   24.6180 C.ar      1 UNK         0.0000 
      9 N9          5.7146   54.5879   21.0176 N.am      1 UNK         0.0000 
     10 C10         6.2375   55.6282   20.3191 C.2       1 UNK         0.0000 
     11 O11         6.6744   56.6399   20.8815 O.2       1 UNK         0.0000 
     12 N12         6.3504   55.4387   18.9685 N.am      1 UNK         0.0000 
     13 C13         6.8244   56.5815   18.1309 C.3       1 UNK         0.0000 
     14 C14         5.5872   57.1981   17.4945 C.ar      1 UNK         0.0000 
     15 C15         4.3861   56.5187   17.3433 C.ar      1 UNK         0.0000 
     16 N16         3.5047   57.3617   16.6901 N.pl3     1 UNK         0.0000 
     17 H17         2.5488   57.1408   16.4482 H         1 UNK         0.0000 
     18 C18         4.1302   58.5722   16.4813 C.ar      1 UNK         0.0000 
     19 N19         5.4112   58.4781   16.9846 N.pl3     1 UNK         0.0000 
     20 C20         4.1590   55.0867   17.7954 C.3       1 UNK         0.0000 
     21 C21         5.5258   54.4321   18.2173 C.3       1 UNK         0.0000 
     22 H22         5.2528   53.5933   18.8573 H         1 UNK         0.0000 
     23 C23         6.3023   53.7674   17.0848 C.2       1 UNK         0.0000 
     24 N24         7.3911   53.0587   17.2017 N.2       1 UNK         0.0000 
     25 C25         7.5937   52.6291   15.9672 C.2       1 UNK         0.0000 
     26 N26         6.7377   53.0752   15.0676 N.2       1 UNK         0.0000 
     27 O27         5.8459   53.8475   15.8111 O.3       1 UNK         0.0000 
     28 C28         8.7044   51.6681   15.6251 C.ar      1 UNK         0.0000 
     29 C29         9.4619   51.0851   16.6503 C.ar      1 UNK         0.0000 
     30 C30        10.4589   50.1599   16.3643 C.ar      1 UNK         0.0000 
     31 C31        10.7291   49.8194   15.0410 C.ar      1 UNK         0.0000 
     32 C32         9.9875   50.3872   14.0066 C.ar      1 UNK         0.0000 
     33 C33         8.9813   51.3086   14.2971 C.ar      1 UNK         0.0000 
     34 O34        11.6992   48.8922   14.7598 O.3       1 UNK         0.0000 
     35 C35        13.0311   49.3938   14.6894 C.3       1 UNK         0.0000 
     36 F36        13.1805   50.2554   13.6834 F         1 UNK         0.0000 
     37 F37        13.4036   49.9637   15.8369 F         1 UNK         0.0000 
     38 F38        13.8425   48.3597   14.4811 F         1 UNK         0.0000 
     39 H39         6.9993   53.9693   27.3447 H         1 UNK         0.0000 
     40 H40         6.5708   55.6947   27.3156 H         1 UNK         0.0000 
     41 H41         5.8238   54.6151   28.4843 H         1 UNK         0.0000 
     42 H42         3.3248   53.8175   24.8126 H         1 UNK         0.0000 
     43 H43         3.5665   53.8385   22.3591 H         1 UNK         0.0000 
     44 H44         7.6444   55.1166   22.7972 H         1 UNK         0.0000 
     45 H45         7.4258   55.0431   25.2167 H         1 UNK         0.0000 
     46 H46         5.2969   53.8309   20.4996 H         1 UNK         0.0000 
     47 H47         7.3100   57.3413   18.7452 H         1 UNK         0.0000 
     48 H48         7.5401   56.2515   17.3763 H         1 UNK         0.0000 
     49 H49         3.6899   59.4637   16.0478 H         1 UNK         0.0000 
     50 H50         3.5039   55.0989   18.6672 H         1 UNK         0.0000 
     51 H51         3.6487   54.4872   17.0397 H         1 UNK         0.0000 
     52 H52         9.2685   51.3310   17.6819 H         1 UNK         0.0000 
     53 H53        11.0208   49.7091   17.1693 H         1 UNK         0.0000 
     54 H54        10.1998   50.1081   12.9830 H         1 UNK         0.0000 
     55 H55         8.4135   51.7342   13.4825 H         1 UNK         0.0000 
     56 H56         6.0838   59.2374   17.0096 H         1 UNK         0.0000 
@<TRIPOS>BOND
     1    1    2 1    
     2    1   39 1    
     3    1   40 1    
     4    1   41 1    
     5    2    3 1    
     6    3    8 ar   
     7    3    4 ar   
     8    4    5 ar   
     9    4   42 1    
    10    5    6 ar   
    11    5   43 1    
    12    6    7 ar   
    13    6    9 1    
    14    7    8 ar   
    15    7   44 1    
    16    8   45 1    
    17    9   10 am   BACKBONE|DICT|INTERRES
    18    9   46 1    
    19   10   11 2    
    20   10   12 am   BACKBONE|DICT|INTERRES
    21   12   21 1    
    22   12   13 1    
    23   13   14 1    
    24   13   47 1    
    25   13   48 1    
    26   14   19 ar   
    27   14   15 ar   
    28   15   16 ar   
    29   15   20 1    
    30   16   17 1    
    31   16   18 ar   
    32   18   19 ar   
    33   18   49 1    
    34   19   56 1    
    35   20   21 1    
    36   20   50 1    
    37   20   51 1    
    38   21   22 1    
    39   21   23 1    
    40   23   27 1    
    41   23   24 2    
    42   24   25 1    
    43   25   26 2    
    44   25   28 1    
    45   26   27 1    
    46   28   33 ar   
    47   28   29 ar   
    48   29   30 ar   
    49   29   52 1    
    50   30   31 ar   
    51   30   53 1    
    52   31   32 ar   
    53   31   34 1    
    54   32   33 ar   
    55   32   54 1    
    56   33   55 1    
    57   34   35 1    
    58   35   36 1    
    59   35   37 1    
    60   35   38 1    
@<TRIPOS>SUBSTRUCTURE
     1 UNK         1 GROUP             0       ****    0 ROOT    
