ZINC36220923_3174
                    3D
 Schrodinger Suite 2024-2.
 64 67  0  0  1  0            999 V2000
    6.4569   55.7137   24.8894 C   0  0  0  0  0  0
    6.1003   54.3859   25.5766 C   0  0  0  0  0  0
    6.6010   54.3592   27.0318 C   0  0  0  0  0  0
    4.5876   54.0647   25.5191 C   0  0  0  0  0  0
    3.9458   54.0933   24.1045 C   0  0  0  0  0  0
    2.8680   53.1264   23.8990 N   0  0  0  0  0  0
    1.7861   52.9618   24.6736 C   0  0  0  0  0  0
    1.5271   53.6975   25.6140 O   0  0  0  0  0  0
    0.8759   51.7683   24.3182 C   0  0  2  0  0  0
    1.5262   50.9060   24.1579 H   0  0  0  0  0  0
    0.0718   52.0894   23.0605 C   0  0  2  0  0  0
    0.3457   53.0572   22.6313 H   0  0  0  0  0  0
   -1.2561   52.2246   23.5377 O   0  0  0  0  0  0
   -1.4204   51.8507   24.8302 C   0  0  0  0  0  0
   -2.5151   51.8629   25.3854 O   0  0  0  0  0  0
   -0.1635   51.4779   25.3055 N   0  0  0  0  0  0
    0.0339   50.8231   26.6124 C   0  0  0  0  0  0
    0.6319   51.6918   27.7164 C   0  0  0  0  0  0
    0.0086   52.8796   28.1134 C   0  0  0  0  0  0
    0.5786   53.6759   29.1109 C   0  0  0  0  0  0
    1.7683   53.2882   29.7198 C   0  0  0  0  0  0
    2.3811   52.0956   29.3490 C   0  0  0  0  0  0
    1.8109   51.2982   28.3574 C   0  0  0  0  0  0
    3.5162   51.6978   29.9641 F   0  0  0  0  0  0
    0.2669   51.0528   21.9532 C   0  0  0  0  0  0
    1.2180   51.2808   20.9566 C   0  0  0  0  0  0
    1.4685   50.3067   19.9895 C   0  0  0  0  0  0
    0.7648   49.0996   20.0035 C   0  0  0  0  0  0
   -0.2054   48.8857   20.9964 C   0  0  0  0  0  0
   -0.4460   49.8541   21.9664 C   0  0  0  0  0  0
    1.0926   48.1729   18.9881 N   0  0  0  0  0  0
    0.5887   46.9380   18.7501 C   0  0  0  0  0  0
   -0.2432   46.3600   19.4469 O   0  0  0  0  0  0
    1.1044   46.3141   17.5573 C   0  0  0  0  0  0
    2.3051   46.5534   16.8812 C   0  0  0  0  0  0
    2.4989   45.7173   15.7825 C   0  0  0  0  0  0
    1.4765   44.7924   15.6275 C   0  0  0  0  0  0
    0.2647   44.9550   16.8544 S   0  0  0  0  0  0
    5.8558   56.5314   25.2814 H   0  0  0  0  0  0
    7.5041   55.9719   25.0263 H   0  0  0  0  0  0
    6.2977   55.6675   23.8133 H   0  0  0  0  0  0
    6.6282   53.5946   25.0399 H   0  0  0  0  0  0
    6.1332   55.1418   27.6311 H   0  0  0  0  0  0
    6.3759   53.4006   27.5071 H   0  0  0  0  0  0
    7.6779   54.4960   27.0914 H   0  0  0  0  0  0
    4.0387   54.7593   26.1587 H   0  0  0  0  0  0
    4.4327   53.0869   25.9786 H   0  0  0  0  0  0
    4.7047   53.8381   23.3651 H   0  0  0  0  0  0
    3.5929   55.0954   23.8581 H   0  0  0  0  0  0
    2.9864   52.4928   23.1253 H   0  0  0  0  0  0
    0.6659   49.9477   26.4550 H   0  0  0  0  0  0
   -0.9169   50.4364   26.9849 H   0  0  0  0  0  0
   -0.9000   53.2002   27.6324 H   0  0  0  0  0  0
    0.1091   54.5971   29.4108 H   0  0  0  0  0  0
    2.2101   53.9076   30.4816 H   0  0  0  0  0  0
    2.3035   50.3802   28.0811 H   0  0  0  0  0  0
    1.7809   52.2035   20.9342 H   0  0  0  0  0  0
    2.2196   50.4984   19.2346 H   0  0  0  0  0  0
   -0.7815   47.9772   21.0559 H   0  0  0  0  0  0
   -1.1784   49.6569   22.7357 H   0  0  0  0  0  0
    1.7791   48.5030   18.3251 H   0  0  0  0  0  0
    3.0355   47.2969   17.1710 H   0  0  0  0  0  0
    3.3637   45.7793   15.1426 H   0  0  0  0  0  0
    1.3884   44.0270   14.8717 H   0  0  0  0  0  0
  1  2  1  0  0  0
  1 39  1  0  0  0
  1 40  1  0  0  0
  1 41  1  0  0  0
  2  3  1  0  0  0
  2  4  1  0  0  0
  2 42  1  0  0  0
  3 43  1  0  0  0
  3 44  1  0  0  0
  3 45  1  0  0  0
  4  5  1  0  0  0
  4 46  1  0  0  0
  4 47  1  0  0  0
  5  6  1  0  0  0
  5 48  1  0  0  0
  5 49  1  0  0  0
  6  7  1  0  0  0
  6 50  1  0  0  0
  7  8  2  0  0  0
  7  9  1  0  0  0
  9 10  1  0  0  0
  9 16  1  0  0  0
  9 11  1  0  0  0
 11 12  1  0  0  0
 11 13  1  0  0  0
 11 25  1  0  0  0
 13 14  1  0  0  0
 14 15  2  0  0  0
 14 16  1  0  0  0
 16 17  1  0  0  0
 17 18  1  0  0  0
 17 51  1  0  0  0
 17 52  1  0  0  0
 18 23  2  0  0  0
 18 19  1  0  0  0
 19 20  2  0  0  0
 19 53  1  0  0  0
 20 21  1  0  0  0
 20 54  1  0  0  0
 21 22  2  0  0  0
 21 55  1  0  0  0
 22 23  1  0  0  0
 22 24  1  0  0  0
 23 56  1  0  0  0
 25 30  2  0  0  0
 25 26  1  0  0  0
 26 27  2  0  0  0
 26 57  1  0  0  0
 27 28  1  0  0  0
 27 58  1  0  0  0
 28 29  2  0  0  0
 28 31  1  0  0  0
 29 30  1  0  0  0
 29 59  1  0  0  0
 30 60  1  0  0  0
 31 32  1  0  0  0
 31 61  1  0  0  0
 32 33  2  0  0  0
 32 34  1  0  0  0
 34 38  1  0  0  0
 34 35  2  0  0  0
 35 36  1  0  0  0
 35 62  1  0  0  0
 36 37  2  0  0  0
 36 63  1  0  0  0
 37 38  1  0  0  0
 37 64  1  0  0  0
M  END
> <i_i_glide_confnum>
190

> <i_i_glide_lignum>
3175

> <i_i_glide_posenum>
335

> <i_i_glide_rotatable_bonds>
11

> <i_m_Source_File_Index>
1730

> <b_m_subgroup_collapsed>
0

> <r_i_docking_score>
-4.76525

> <r_i_glide_ecoul>
-3.2475

> <r_i_glide_eff_state_penalty>
0

> <r_i_glide_einternal>
8.21382

> <r_i_glide_emodel>
-57.1149

> <r_i_glide_energy>
-45.9057

> <r_i_glide_erotb>
0.788682

> <r_i_glide_esite>
-0.0480659

> <r_i_glide_evdw>
-42.6582

> <r_i_glide_gscore>
-4.76525

> <r_i_glide_hbond>
0

> <r_i_glide_ligand_efficiency>
-0.132368

> <r_i_glide_ligand_efficiency_ln>
-1.03965

> <r_i_glide_ligand_efficiency_sa>
-0.43707

> <r_i_glide_lipo>
-2.3606

> <r_i_glide_metal>
0

> <r_i_glide_rewards>
-0.525233

> <s_i_glide_gridfile>
wee1_glide-grid

> <s_m_Source_File>
wee1_decoys_glide_SP.sdf

> <s_m_Source_Path>
/Users/zhangxujun/Desktop

> <s_m_entry_id>
2005

> <s_m_entry_name>
wee1_decoys_glide_SP.1730

> <s_m_subgroup_title>
wee1_decoys_glide_SP

> <s_m_subgroupid>
wee1_decoys_glide_SP


$$$$
