ZINC05020069_3863
                    3D
 Schrodinger Suite 2024-2.
 59 62  0  0  1  0            999 V2000
   -5.5323   48.5861   24.8778 C   0  0  0  0  0  0
   -4.1395   48.5222   24.2044 C   0  0  1  0  0  0
   -4.2513   47.7106   23.4846 H   0  0  0  0  0  0
   -3.8073   49.8106   23.4078 C   0  0  0  0  0  0
   -2.3270   50.1152   23.7053 C   0  0  1  0  0  0
   -1.7374   49.4680   23.0649 H   0  0  0  0  0  0
   -1.7597   51.5300   23.4300 C   0  0  2  0  0  0
   -2.3046   52.1982   24.0984 H   0  0  0  0  0  0
   -2.0959   52.0946   22.0412 C   0  0  0  0  0  0
   -1.0714   51.7224   21.0008 C   0  0  0  0  0  0
    0.2016   51.3600   21.2448 C   0  0  0  0  0  0
    1.1372   50.9689   20.0942 C   0  0  0  0  0  0
    1.6759   49.5347   20.2870 C   0  0  1  0  0  0
    2.4398   49.3422   19.5317 H   0  0  0  0  0  0
    2.3046   49.3517   21.6771 C   0  0  0  0  0  0
    1.3705   49.8262   22.8087 C   0  0  0  0  0  0
    0.8065   51.2772   22.6713 C   0  0  2  0  0  0
   -0.2454   51.6568   23.8076 C   0  0  2  0  0  0
   -0.1583   52.7329   23.9727 H   0  0  0  0  0  0
    0.0423   51.0277   25.2137 C   0  0  0  0  0  0
   -0.6085   49.6345   25.4566 C   0  0  0  0  0  0
   -2.1370   49.6505   25.1729 C   0  0  2  0  0  0
   -2.9076   48.2649   25.1631 C   0  0  2  0  0  0
   -2.0722   47.0455   24.5995 C   0  0  0  0  0  0
   -1.7303   46.0967   25.3042 O   0  0  0  0  0  0
   -1.6965   46.9679   23.1151 C   0  0  0  0  0  0
   -3.2961   47.8803   26.4816 O   0  0  0  0  0  0
   -2.8147   50.6228   26.2090 C   0  0  0  0  0  0
    1.9666   52.3084   22.7796 C   0  0  0  0  0  0
    0.6604   48.5688   20.0748 O   0  0  0  0  0  0
   -5.5943   49.3630   25.6362 H   0  0  0  0  0  0
   -6.3165   48.7816   24.1455 H   0  0  0  0  0  0
   -5.7740   47.6404   25.3634 H   0  0  0  0  0  0
   -3.9979   49.7212   22.3387 H   0  0  0  0  0  0
   -4.4010   50.6405   23.7920 H   0  0  0  0  0  0
   -3.0680   51.7316   21.7135 H   0  0  0  0  0  0
   -2.1579   53.1798   22.0860 H   0  0  0  0  0  0
   -1.3856   51.7522   19.9674 H   0  0  0  0  0  0
    0.6380   51.0473   19.1273 H   0  0  0  0  0  0
    1.9679   51.6727   20.0433 H   0  0  0  0  0  0
    2.6162   48.3200   21.8386 H   0  0  0  0  0  0
    3.1970   49.9726   21.7320 H   0  0  0  0  0  0
    1.8979   49.6981   23.7541 H   0  0  0  0  0  0
    0.5380   49.1326   22.8261 H   0  0  0  0  0  0
    1.1046   51.0202   25.4285 H   0  0  0  0  0  0
   -0.3279   51.7144   25.9743 H   0  0  0  0  0  0
   -0.4259   49.3120   26.4821 H   0  0  0  0  0  0
   -0.1036   48.8846   24.8569 H   0  0  0  0  0  0
   -2.4429   47.4074   22.4549 H   0  0  0  0  0  0
   -1.5532   45.9291   22.8189 H   0  0  0  0  0  0
   -0.7527   47.4805   22.9496 H   0  0  0  0  0  0
   -2.5639   48.0419   27.1063 H   0  0  0  0  0  0
   -2.4643   51.6503   26.1619 H   0  0  0  0  0  0
   -3.8937   50.6765   26.0924 H   0  0  0  0  0  0
   -2.6279   50.2943   27.2327 H   0  0  0  0  0  0
    2.3949   52.3121   23.7825 H   0  0  0  0  0  0
    2.7897   52.1189   22.0939 H   0  0  0  0  0  0
    1.6165   53.3227   22.5780 H   0  0  0  0  0  0
    0.3053   48.7017   19.1934 H   0  0  0  0  0  0
  1  2  1  0  0  0
  1 31  1  0  0  0
  1 32  1  0  0  0
  1 33  1  0  0  0
  2  3  1  0  0  0
  2 23  1  0  0  0
  2  4  1  0  0  0
  4  5  1  0  0  0
  4 34  1  0  0  0
  4 35  1  0  0  0
  5  6  1  0  0  0
  5 22  1  0  0  0
  5  7  1  0  0  0
  7  8  1  0  0  0
  7 18  1  0  0  0
  7  9  1  0  0  0
  9 10  1  0  0  0
  9 36  1  0  0  0
  9 37  1  0  0  0
 10 11  2  0  0  0
 10 38  1  0  0  0
 11 17  1  0  0  0
 11 12  1  0  0  0
 12 13  1  0  0  0
 12 39  1  0  0  0
 12 40  1  0  0  0
 13 14  1  0  0  0
 13 15  1  0  0  0
 13 30  1  0  0  0
 15 16  1  0  0  0
 15 41  1  0  0  0
 15 42  1  0  0  0
 16 17  1  0  0  0
 16 43  1  0  0  0
 16 44  1  0  0  0
 17 18  1  0  0  0
 17 29  1  0  0  0
 18 19  1  0  0  0
 18 20  1  0  0  0
 20 21  1  0  0  0
 20 45  1  0  0  0
 20 46  1  0  0  0
 21 22  1  0  0  0
 21 47  1  0  0  0
 21 48  1  0  0  0
 22 23  1  0  0  0
 22 28  1  0  0  0
 23 24  1  0  0  0
 23 27  1  0  0  0
 24 25  2  0  0  0
 24 26  1  0  0  0
 26 49  1  0  0  0
 26 50  1  0  0  0
 26 51  1  0  0  0
 27 52  1  0  0  0
 28 53  1  0  0  0
 28 54  1  0  0  0
 28 55  1  0  0  0
 29 56  1  0  0  0
 29 57  1  0  0  0
 29 58  1  0  0  0
 30 59  1  0  0  0
M  END
> <i_i_glide_confnum>
1

> <i_i_glide_lignum>
3864

> <i_i_glide_posenum>
249

> <i_i_glide_rotatable_bonds>
3

> <i_m_Source_File_Index>
5925

> <b_m_subgroup_collapsed>
0

> <r_i_docking_score>
-3.5478

> <r_i_glide_ecoul>
-5.85482

> <r_i_glide_eff_state_penalty>
0

> <r_i_glide_einternal>
1.05327

> <r_i_glide_emodel>
-34.5164

> <r_i_glide_energy>
-28.2157

> <r_i_glide_erotb>
0

> <r_i_glide_esite>
-0.0602368

> <r_i_glide_evdw>
-22.3609

> <r_i_glide_gscore>
-3.5478

> <r_i_glide_hbond>
0

> <r_i_glide_ligand_efficiency>
-0.141912

> <r_i_glide_ligand_efficiency_ln>
-0.840934

> <r_i_glide_ligand_efficiency_sa>
-0.414953

> <r_i_glide_lipo>
-0.444726

> <r_i_glide_metal>
0

> <r_i_glide_rewards>
-1.04657

> <s_i_glide_gridfile>
wee1_glide-grid

> <s_m_Source_File>
wee1_decoys_glide_SP.sdf

> <s_m_Source_Path>
/Users/zhangxujun/Desktop

> <s_m_entry_id>
6200

> <s_m_entry_name>
wee1_decoys_glide_SP.5925

> <s_m_subgroup_title>
wee1_decoys_glide_SP

> <s_m_subgroupid>
wee1_decoys_glide_SP


$$$$
