ZINC08854870_3637
                    3D
 Schrodinger Suite 2024-2.
 48 51  0  0  1  0            999 V2000
    3.8303   52.0637   31.3853 C   0  0  0  0  0  0
    3.3962   52.1247   29.9109 C   0  0  0  0  0  0
    1.9747   51.5306   29.6093 C   0  0  0  0  0  0
    1.1266   52.0753   28.6160 O   0  0  0  0  0  0
    1.1690   53.4206   28.6246 C   0  0  0  0  0  0
    0.6206   54.0989   29.7248 C   0  0  0  0  0  0
    1.0637   55.3817   30.0364 C   0  0  0  0  0  0
    2.0075   55.9865   29.2184 C   0  0  0  0  0  0
    2.4432   55.3029   28.0849 C   0  0  0  0  0  0
    2.0496   54.0432   27.7376 C   0  0  0  0  0  0
    2.8159   53.3461   26.5855 C   0  0  1  0  0  0
    2.7869   52.3251   26.8899 H   0  0  0  0  0  0
    2.2268   53.4705   25.1618 C   0  0  0  0  0  0
    1.0467   53.0849   24.4644 C   0  0  0  0  0  0
    1.0851   53.4728   23.1966 N   0  0  0  0  0  0
    2.2544   54.0714   23.0143 N   0  0  0  0  0  0
    2.5529   54.4369   22.1220 H   0  0  0  0  0  0
    2.9759   54.0625   24.1564 C   0  0  0  0  0  0
    4.2654   54.5104   24.1927 O   0  0  0  0  0  0
    4.8919   54.2402   25.3634 C   0  0  0  0  0  0
    4.3324   53.7009   26.4772 C   0  0  0  0  0  0
    5.1936   53.4789   27.5904 C   0  0  0  0  0  0
    5.9694   53.3323   28.4303 N   0  0  0  0  0  0
    6.2048   54.6015   25.2078 N   0  0  0  0  0  0
   -0.1672   52.3572   24.9578 C   0  0  0  0  0  0
   -0.0576   51.4295   25.9917 C   0  0  0  0  0  0
   -1.1934   50.8106   26.5034 C   0  0  0  0  0  0
   -2.4425   51.0780   25.9528 C   0  0  0  0  0  0
   -2.5607   51.9523   24.8797 C   0  0  0  0  0  0
   -1.4271   52.5844   24.3842 C   0  0  0  0  0  0
   -3.9940   50.2373   26.6618 Br  0  0  0  0  0  0
    4.7032   52.6580   31.5950 H   0  0  0  0  0  0
    4.0286   51.0417   31.7082 H   0  0  0  0  0  0
    3.0459   52.4499   32.0339 H   0  0  0  0  0  0
    3.4804   53.1755   29.6495 H   0  0  0  0  0  0
    4.1227   51.5948   29.2923 H   0  0  0  0  0  0
    2.0745   50.5015   29.2816 H   0  0  0  0  0  0
    1.4073   51.5409   30.5359 H   0  0  0  0  0  0
   -0.0446   53.5846   30.4012 H   0  0  0  0  0  0
    0.6967   55.8961   30.9118 H   0  0  0  0  0  0
    2.3699   56.9770   29.4359 H   0  0  0  0  0  0
    3.1171   55.6974   27.3771 H   0  0  0  0  0  0
    6.8526   54.4638   25.9713 H   0  0  0  0  0  0
    6.5900   54.6883   24.2785 H   0  0  0  0  0  0
    0.9042   51.1768   26.4097 H   0  0  0  0  0  0
   -1.0966   50.1178   27.3309 H   0  0  0  0  0  0
   -3.5275   52.1481   24.4443 H   0  0  0  0  0  0
   -1.5371   53.2882   23.5738 H   0  0  0  0  0  0
  1  2  1  0  0  0
  1 32  1  0  0  0
  1 33  1  0  0  0
  1 34  1  0  0  0
  2  3  1  0  0  0
  2 35  1  0  0  0
  2 36  1  0  0  0
  3  4  1  0  0  0
  3 37  1  0  0  0
  3 38  1  0  0  0
  4  5  1  0  0  0
  5 10  2  0  0  0
  5  6  1  0  0  0
  6  7  2  0  0  0
  6 39  1  0  0  0
  7  8  1  0  0  0
  7 40  1  0  0  0
  8  9  2  0  0  0
  8 41  1  0  0  0
  9 10  1  0  0  0
  9 42  1  0  0  0
 10 11  1  0  0  0
 11 12  1  0  0  0
 11 21  1  0  0  0
 11 13  1  0  0  0
 13 18  2  0  0  0
 13 14  1  0  0  0
 14 15  2  0  0  0
 14 25  1  0  0  0
 15 16  1  0  0  0
 16 17  1  0  0  0
 16 18  1  0  0  0
 18 19  1  0  0  0
 19 20  1  0  0  0
 20 21  2  0  0  0
 20 24  1  0  0  0
 21 22  1  0  0  0
 22 23  3  0  0  0
 24 43  1  0  0  0
 24 44  1  0  0  0
 25 30  2  0  0  0
 25 26  1  0  0  0
 26 27  2  0  0  0
 26 45  1  0  0  0
 27 28  1  0  0  0
 27 46  1  0  0  0
 28 29  2  0  0  0
 28 31  1  0  0  0
 29 30  1  0  0  0
 29 47  1  0  0  0
 30 48  1  0  0  0
M  END
> <i_i_glide_confnum>
28

> <i_i_glide_lignum>
3638

> <i_i_glide_posenum>
45

> <i_i_glide_rotatable_bonds>
6

> <i_m_Source_File_Index>
4809

> <b_m_subgroup_collapsed>
0

> <r_i_docking_score>
-5.13638

> <r_i_glide_ecoul>
0.00950795

> <r_i_glide_eff_state_penalty>
0

> <r_i_glide_einternal>
10.7984

> <r_i_glide_emodel>
-41.1251

> <r_i_glide_energy>
-34.4106

> <r_i_glide_erotb>
0.393863

> <r_i_glide_esite>
0

> <r_i_glide_evdw>
-34.4201

> <r_i_glide_gscore>
-5.13638

> <r_i_glide_hbond>
0

> <r_i_glide_ligand_efficiency>
-0.177117

> <r_i_glide_ligand_efficiency_ln>
-1.1761

> <r_i_glide_ligand_efficiency_sa>
-0.544158

> <r_i_glide_lipo>
-3.15327

> <r_i_glide_metal>
0

> <r_i_glide_rewards>
-0.65739

> <s_i_glide_gridfile>
wee1_glide-grid

> <s_m_Source_File>
wee1_decoys_glide_SP.sdf

> <s_m_Source_Path>
/Users/zhangxujun/Desktop

> <s_m_entry_id>
5084

> <s_m_entry_name>
wee1_decoys_glide_SP.4809

> <s_m_subgroup_title>
wee1_decoys_glide_SP

> <s_m_subgroupid>
wee1_decoys_glide_SP


$$$$
