@<TRIPOS>MOLECULE
ZINC17357306_2755
56   59    1
SMALL
USER_CHARGES


@<TRIPOS>ATOM
      1 C1          3.1048   53.9137   22.1086 C.ar      1 UNK         0.0000 
      2 C2          2.0543   53.2113   22.6789 C.ar      1 UNK         0.0000 
      3 C3          1.9378   51.8324   22.4903 C.ar      1 UNK         0.0000 
      4 C4          2.8532   51.1851   21.6520 C.ar      1 UNK         0.0000 
      5 C5          3.8752   51.9003   21.0232 C.ar      1 UNK         0.0000 
      6 C6          4.0143   53.2746   21.2656 C.ar      1 UNK         0.0000 
      7 C7          5.1051   54.0989   20.6371 C.2       1 UNK         0.0000 
      8 O8          5.6280   55.0146   21.2759 O.2       1 UNK         0.0000 
      9 N9          5.4039   53.8294   19.3517 N.am      1 UNK         0.0000 
     10 C10         6.2032   54.6997   18.4785 C.3       1 UNK         0.0000 
     11 C11         5.4947   56.0275   18.0906 C.3       1 UNK         0.0000 
     12 C12         6.3332   56.9573   17.1916 C.3       1 UNK         0.0000 
     13 C13         7.7426   57.1912   17.7567 C.3       1 UNK         0.0000 
     14 C14         8.4777   55.8584   17.9671 C.3       1 UNK         0.0000 
     15 C15         7.6940   54.8959   18.8811 C.3       1 UNK         0.0000 
     16 N16         0.9491   51.0533   23.1162 N.pl3     1 UNK         0.0000 
     17 S17        -0.3584   51.6423   24.1795 S.o2      1 UNK         0.0000 
     18 O18        -0.8156   52.9437   23.6821 O.2       1 UNK         0.0000 
     19 O19        -1.3026   50.5253   24.2876 O.2       1 UNK         0.0000 
     20 C20         0.3557   51.8932   25.8104 C.ar      1 UNK         0.0000 
     21 C21        -0.0502   51.0998   26.8850 C.ar      1 UNK         0.0000 
     22 C22         0.5093   51.2969   28.1444 C.ar      1 UNK         0.0000 
     23 C23         1.5057   52.2481   28.3588 C.ar      1 UNK         0.0000 
     24 C24         1.9023   53.0753   27.2799 C.ar      1 UNK         0.0000 
     25 C25         1.3066   52.8949   26.0312 C.ar      1 UNK         0.0000 
     26 O26         2.8151   54.1073   27.3704 O.3       1 UNK         0.0000 
     27 C27         3.0228   54.7247   28.6310 C.3       1 UNK         0.0000 
     28 C28         3.9478   53.8977   29.5206 C.3       1 UNK         0.0000 
     29 C29         3.5127   52.4338   29.6505 C.3       1 UNK         0.0000 
     30 O30         2.0980   52.2722   29.6071 O.3       1 UNK         0.0000 
     31 H31         3.1749   54.9772   22.2876 H         1 UNK         0.0000 
     32 H32         1.3458   53.7771   23.2547 H         1 UNK         0.0000 
     33 H33         2.7745   50.1211   21.4787 H         1 UNK         0.0000 
     34 H34         4.5584   51.3776   20.3659 H         1 UNK         0.0000 
     35 H35         4.8071   53.1637   18.8804 H         1 UNK         0.0000 
     36 H36         6.2741   54.1419   17.5421 H         1 UNK         0.0000 
     37 H37         5.2655   56.5836   19.0011 H         1 UNK         0.0000 
     38 H38         4.5414   55.8163   17.6032 H         1 UNK         0.0000 
     39 H39         5.8217   57.9142   17.0685 H         1 UNK         0.0000 
     40 H40         6.4084   56.5239   16.1918 H         1 UNK         0.0000 
     41 H41         7.6755   57.7310   18.7031 H         1 UNK         0.0000 
     42 H42         8.3123   57.8285   17.0794 H         1 UNK         0.0000 
     43 H43         9.4677   56.0420   18.3897 H         1 UNK         0.0000 
     44 H44         8.6481   55.3818   16.9994 H         1 UNK         0.0000 
     45 H45         8.2044   53.9331   18.8822 H         1 UNK         0.0000 
     46 H46         7.7536   55.3018   19.8912 H         1 UNK         0.0000 
     47 H47         1.0299   50.0523   23.0351 H         1 UNK         0.0000 
     48 H48        -0.7974   50.3266   26.7609 H         1 UNK         0.0000 
     49 H49         0.1812   50.6760   28.9643 H         1 UNK         0.0000 
     50 H50         1.6142   53.5544   25.2422 H         1 UNK         0.0000 
     51 H51         2.0698   54.9380   29.1198 H         1 UNK         0.0000 
     52 H52         3.4784   55.6964   28.4625 H         1 UNK         0.0000 
     53 H53         3.9945   54.3674   30.4976 H         1 UNK         0.0000 
     54 H54         4.9649   53.9353   29.1281 H         1 UNK         0.0000 
     55 H55         3.8755   52.0332   30.5985 H         1 UNK         0.0000 
     56 H56         3.9860   51.8128   28.8867 H         1 UNK         0.0000 
@<TRIPOS>BOND
     1    1    6 ar   
     2    1    2 ar   
     3    1   31 1    
     4    2    3 ar   
     5    2   32 1    
     6    3    4 ar   
     7    3   16 1    
     8    4    5 ar   
     9    4   33 1    
    10    5    6 ar   
    11    5   34 1    
    12    6    7 1    
    13    7    8 2    
    14    7    9 am   BACKBONE|DICT|INTERRES
    15    9   10 1    
    16    9   35 1    
    17   10   15 1    
    18   10   11 1    
    19   10   36 1    
    20   11   12 1    
    21   11   37 1    
    22   11   38 1    
    23   12   13 1    
    24   12   39 1    
    25   12   40 1    
    26   13   14 1    
    27   13   41 1    
    28   13   42 1    
    29   14   15 1    
    30   14   43 1    
    31   14   44 1    
    32   15   45 1    
    33   15   46 1    
    34   16   17 1    
    35   16   47 1    
    36   17   18 2    
    37   17   19 2    
    38   17   20 1    
    39   20   25 ar   
    40   20   21 ar   
    41   21   22 ar   
    42   21   48 1    
    43   22   23 ar   
    44   22   49 1    
    45   23   30 1    
    46   23   24 ar   
    47   24   25 ar   
    48   24   26 1    
    49   25   50 1    
    50   26   27 1    
    51   27   28 1    
    52   27   51 1    
    53   27   52 1    
    54   28   29 1    
    55   28   53 1    
    56   28   54 1    
    57   29   30 1    
    58   29   55 1    
    59   29   56 1    
@<TRIPOS>SUBSTRUCTURE
     1 UNK         1 GROUP             0       ****    0 ROOT    
