ZINC67625565_6233
                    3D
 Schrodinger Suite 2024-2.
 57 58  0  0  1  0            999 V2000
    1.7182   54.9756   28.7507 C   0  0  0  0  0  0
    2.1630   53.1732   29.0516 S   0  0  0  0  0  0
    1.9663   52.9328   30.4842 O   0  0  0  0  0  0
    3.4636   52.9098   28.4265 O   0  0  0  0  0  0
    0.9158   52.2675   28.1699 N   0  0  0  0  0  0
   -0.4940   52.5278   28.5471 C   0  0  0  0  0  0
   -1.3971   51.3616   28.0815 C   0  0  0  0  0  0
   -1.1670   50.9382   26.6071 C   0  0  0  0  0  0
    0.3413   50.8109   26.2687 C   0  0  2  0  0  0
    0.6933   50.0075   26.9185 H   0  0  0  0  0  0
    1.0998   52.0911   26.7076 C   0  0  0  0  0  0
    0.7039   50.2517   24.9645 N   0  0  0  0  0  0
    0.2219   50.5633   23.7542 C   0  0  0  0  0  0
   -0.5800   51.4688   23.5241 O   0  0  0  0  0  0
    0.8265   49.8241   22.8095 N   0  0  0  0  0  0
    0.9425   50.1601   21.3861 C   0  0  0  0  0  0
    1.5080   51.5685   21.0919 C   0  0  0  0  0  0
    2.8092   51.8974   21.8440 C   0  0  0  0  0  0
    3.0524   53.4106   21.7416 N   0  3  0  0  0  0
    4.0339   54.0531   22.7436 C   0  0  0  0  0  0
    3.5714   53.9446   24.2164 C   0  0  0  0  0  0
    4.5648   54.6205   25.1912 C   0  0  0  0  0  0
    6.0501   54.2925   24.9095 C   0  0  0  0  0  0
    6.4527   54.3934   23.4195 C   0  0  0  0  0  0
    5.4894   53.6297   22.4858 C   0  0  0  0  0  0
    2.4668   55.6031   29.2307 H   0  0  0  0  0  0
    1.7034   55.1603   27.6818 H   0  0  0  0  0  0
    0.7379   55.1728   29.1836 H   0  0  0  0  0  0
   -0.8269   53.4100   27.9982 H   0  0  0  0  0  0
   -0.5768   52.6761   29.6263 H   0  0  0  0  0  0
   -2.4456   51.6127   28.2424 H   0  0  0  0  0  0
   -1.2079   50.4977   28.7205 H   0  0  0  0  0  0
   -1.6285   51.6799   25.9554 H   0  0  0  0  0  0
   -1.6792   49.9930   26.4173 H   0  0  0  0  0  0
    2.1611   52.0971   26.4633 H   0  0  0  0  0  0
    0.6257   52.9298   26.1956 H   0  0  0  0  0  0
    1.3736   49.4979   25.0044 H   0  0  0  0  0  0
    1.2922   48.9769   23.1025 H   0  0  0  0  0  0
   -0.0317   50.0298   20.9089 H   0  0  0  0  0  0
    1.6135   49.4102   20.9626 H   0  0  0  0  0  0
    0.7423   52.3079   21.3338 H   0  0  0  0  0  0
    1.6740   51.6676   20.0184 H   0  0  0  0  0  0
    3.6920   51.3955   21.4455 H   0  0  0  0  0  0
    2.7049   51.6847   22.9043 H   0  0  0  0  0  0
    2.1603   53.8745   21.8514 H   0  0  0  0  0  0
    3.9864   55.1124   22.4898 H   0  0  0  0  0  0
    3.5032   52.8971   24.5055 H   0  0  0  0  0  0
    2.5533   54.3191   24.3370 H   0  0  0  0  0  0
    4.3184   54.3407   26.2168 H   0  0  0  0  0  0
    4.4384   55.6967   25.1573 H   0  0  0  0  0  0
    6.2673   53.2966   25.2790 H   0  0  0  0  0  0
    6.6864   54.9511   25.5019 H   0  0  0  0  0  0
    7.4693   54.0193   23.2884 H   0  0  0  0  0  0
    6.4841   55.4437   23.1256 H   0  0  0  0  0  0
    5.7508   53.7508   21.4339 H   0  0  0  0  0  0
    5.5902   52.5580   22.6652 H   0  0  0  0  0  0
    3.3530   53.6245   20.7993 H   0  0  0  0  0  0
  1  2  1  0  0  0
  1 26  1  0  0  0
  1 27  1  0  0  0
  1 28  1  0  0  0
  2  3  2  0  0  0
  2  4  2  0  0  0
  2  5  1  0  0  0
  5 11  1  0  0  0
  5  6  1  0  0  0
  6  7  1  0  0  0
  6 29  1  0  0  0
  6 30  1  0  0  0
  7  8  1  0  0  0
  7 31  1  0  0  0
  7 32  1  0  0  0
  8  9  1  0  0  0
  8 33  1  0  0  0
  8 34  1  0  0  0
  9 10  1  0  0  0
  9 11  1  0  0  0
  9 12  1  0  0  0
 11 35  1  0  0  0
 11 36  1  0  0  0
 12 13  1  0  0  0
 12 37  1  0  0  0
 13 14  2  0  0  0
 13 15  1  0  0  0
 15 16  1  0  0  0
 15 38  1  0  0  0
 16 17  1  0  0  0
 16 39  1  0  0  0
 16 40  1  0  0  0
 17 18  1  0  0  0
 17 41  1  0  0  0
 17 42  1  0  0  0
 18 19  1  0  0  0
 18 43  1  0  0  0
 18 44  1  0  0  0
 19 20  1  0  0  0
 19 45  1  0  0  0
 19 57  1  0  0  0
 20 25  1  0  0  0
 20 21  1  0  0  0
 20 46  1  0  0  0
 21 22  1  0  0  0
 21 47  1  0  0  0
 21 48  1  0  0  0
 22 23  1  0  0  0
 22 49  1  0  0  0
 22 50  1  0  0  0
 23 24  1  0  0  0
 23 51  1  0  0  0
 23 52  1  0  0  0
 24 25  1  0  0  0
 24 53  1  0  0  0
 24 54  1  0  0  0
 25 55  1  0  0  0
 25 56  1  0  0  0
M  CHG  1  19   1
M  END
> <i_i_glide_confnum>
114

> <i_i_glide_lignum>
6234

> <i_i_glide_posenum>
215

> <i_i_glide_rotatable_bonds>
9

> <i_m_Source_File_Index>
5260

> <b_m_subgroup_collapsed>
0

> <r_i_docking_score>
-4.49242

> <r_i_glide_ecoul>
-3.59538

> <r_i_glide_eff_state_penalty>
0

> <r_i_glide_einternal>
5.24957

> <r_i_glide_emodel>
-43.5747

> <r_i_glide_energy>
-32.9903

> <r_i_glide_erotb>
1.02786

> <r_i_glide_esite>
-0.00709297

> <r_i_glide_evdw>
-29.3949

> <r_i_glide_gscore>
-4.49242

> <r_i_glide_hbond>
0

> <r_i_glide_ligand_efficiency>
-0.187184

> <r_i_glide_ligand_efficiency_ln>
-1.07524

> <r_i_glide_ligand_efficiency_sa>
-0.539933

> <r_i_glide_lipo>
-2.09338

> <r_i_glide_metal>
0

> <r_i_glide_rewards>
-1.41075

> <s_i_glide_gridfile>
wee1_glide-grid

> <s_m_Source_File>
wee1_decoys_glide_SP.sdf

> <s_m_Source_Path>
/Users/zhangxujun/Desktop

> <s_m_entry_id>
5535

> <s_m_entry_name>
wee1_decoys_glide_SP.5260

> <s_m_subgroup_title>
wee1_decoys_glide_SP

> <s_m_subgroupid>
wee1_decoys_glide_SP


$$$$
