@<TRIPOS>MOLECULE
ZINC51021860_1704
31   34    1
SMALL
USER_CHARGES


@<TRIPOS>ATOM
      1 C1          3.0153   52.4827   30.2588 C.ar      1 UNK         0.0000 
      2 C2          4.1333   52.7448   29.4715 C.ar      1 UNK         0.0000 
      3 C3          3.9918   53.3202   28.1763 C.ar      1 UNK         0.0000 
      4 C4          2.6536   53.5476   27.7373 C.ar      1 UNK         0.0000 
      5 C5          2.4388   54.0956   26.4667 C.ar      1 UNK         0.0000 
      6 C6          3.5043   54.4468   25.6542 C.ar      1 UNK         0.0000 
      7 C7          4.8201   54.1925   26.0267 C.ar      1 UNK         0.0000 
      8 C8          5.0856   53.6622   27.3065 C.ar      1 UNK         0.0000 
      9 N9          6.4128   53.4794   27.7136 N.pl3     1 UNK         0.0000 
     10 S10         6.1460   54.5811   24.8766 S.3       1 UNK         0.0000 
     11 C11         5.5064   54.3360   23.2203 C.ar      1 UNK         0.0000 
     12 C12         6.2951   54.8639   22.1946 C.ar      1 UNK         0.0000 
     13 C13         5.8375   54.7538   20.8527 C.ar      1 UNK         0.0000 
     14 N14         6.7357   55.3014   19.9754 N.2       1 UNK         0.0000 
     15 H15         8.1892   55.6979   22.8056 H         1 UNK         0.0000 
     16 C16         7.7237   55.6968   20.7379 C.ar      1 UNK         0.0000 
     17 N17         7.5046   55.4986   22.0817 N.pl3     1 UNK         0.0000 
     18 N18         4.6838   54.1512   20.5419 N.ar      1 UNK         0.0000 
     19 C19         3.9968   53.6435   21.6011 C.ar      1 UNK         0.0000 
     20 N20         4.3488   53.6944   22.9127 N.ar      1 UNK         0.0000 
     21 N21         1.5609   53.2641   28.5017 N.ar      1 UNK         0.0000 
     22 C22         1.7558   52.7503   29.7380 C.ar      1 UNK         0.0000 
     23 H23         3.1248   52.0699   31.2511 H         1 UNK         0.0000 
     24 H24         5.1044   52.4965   29.8489 H         1 UNK         0.0000 
     25 H25         1.4298   54.2465   26.1256 H         1 UNK         0.0000 
     26 H26         3.2743   54.9207   24.7138 H         1 UNK         0.0000 
     27 H27         6.6212   53.1259   28.6341 H         1 UNK         0.0000 
     28 H28         7.1455   53.6678   27.0463 H         1 UNK         0.0000 
     29 H29         8.6552   56.1321   20.4010 H         1 UNK         0.0000 
     30 H30         3.0634   53.1500   21.3704 H         1 UNK         0.0000 
     31 H31         0.8651   52.5448   30.3157 H         1 UNK         0.0000 
@<TRIPOS>BOND
     1    1   22 ar   
     2    1    2 ar   
     3    1   23 1    
     4    2    3 ar   
     5    2   24 1    
     6    3    8 ar   
     7    3    4 ar   
     8    4    5 ar   
     9    4   21 ar   
    10    5    6 ar   
    11    5   25 1    
    12    6    7 ar   
    13    6   26 1    
    14    7    8 ar   
    15    7   10 1    
    16    8    9 1    
    17    9   27 1    
    18    9   28 1    
    19   10   11 1    
    20   11   20 ar   
    21   11   12 ar   
    22   12   13 ar   
    23   12   17 ar   
    24   13   14 ar   
    25   13   18 ar   
    26   14   16 ar   
    27   15   17 1    
    28   16   29 1    
    29   16   17 ar   
    30   18   19 ar   
    31   19   30 1    
    32   19   20 ar   
    33   21   22 ar   
    34   22   31 1    
@<TRIPOS>SUBSTRUCTURE
     1 UNK         1 GROUP             0       ****    0 ROOT    
