@<TRIPOS>MOLECULE
ZINC64557888_1010
57   60    1
SMALL
USER_CHARGES


@<TRIPOS>ATOM
      1 C1         -0.6834   51.7068   29.0575 C.3       1 UNK         0.0000 
      2 C2          0.6123   52.3900   29.5054 C.3       1 UNK         0.0000 
      3 O3          1.3438   52.7854   28.3512 O.3       1 UNK         0.0000 
      4 C4          2.6104   53.2579   28.4511 C.2       1 UNK         0.0000 
      5 O5          3.2162   53.3653   29.5240 O.2       1 UNK         0.0000 
      6 C6          3.2248   53.5598   27.1175 C.ar      1 UNK         0.0000 
      7 C7          4.6104   53.6976   27.0136 C.ar      1 UNK         0.0000 
      8 C8          5.2067   53.9458   25.7808 C.ar      1 UNK         0.0000 
      9 C9          4.4457   54.1211   24.6045 C.ar      1 UNK         0.0000 
     10 C10         3.0545   54.0336   24.7421 C.ar      1 UNK         0.0000 
     11 C11         2.4538   53.7118   25.9592 C.ar      1 UNK         0.0000 
     12 N12         5.0313   54.3997   23.3122 N.am      1 UNK         0.0000 
     13 C13         4.3273   54.3947   22.0017 C.3       1 UNK         0.0000 
     14 H14         3.5349   55.1431   22.0618 H         1 UNK         0.0000 
     15 C15         5.3792   54.8635   21.0223 C.2       1 UNK         0.0000 
     16 C16         6.4686   55.1671   21.7169 C.2       1 UNK         0.0000 
     17 C17         6.2992   54.8975   23.1363 C.2       1 UNK         0.0000 
     18 O18         7.1044   55.1403   24.0321 O.2       1 UNK         0.0000 
     19 O19         7.5681   55.6956   21.3065 O.co2     1 UNK         0.0000 
     20 S20         5.1101   55.0657   19.2279 S.o2      1 UNK         0.0000 
     21 O21         3.9730   54.2299   18.8324 O.2       1 UNK         0.0000 
     22 O22         5.1047   56.4965   18.9045 O.2       1 UNK         0.0000 
     23 C23         6.5588   54.3886   18.4104 C.ar      1 UNK         0.0000 
     24 C24         6.5155   53.1066   17.8615 C.ar      1 UNK         0.0000 
     25 C25         7.6286   52.5970   17.1980 C.ar      1 UNK         0.0000 
     26 C26         8.7836   53.3687   17.0911 C.ar      1 UNK         0.0000 
     27 C27         8.8288   54.6526   17.6267 C.ar      1 UNK         0.0000 
     28 C28         7.7101   55.1680   18.2749 C.ar      1 UNK         0.0000 
     29 C29         3.6195   53.0777   21.6320 C.ar      1 UNK         0.0000 
     30 C30         2.2269   52.9691   21.7455 C.ar      1 UNK         0.0000 
     31 C31         1.5581   51.8069   21.3776 C.ar      1 UNK         0.0000 
     32 C32         2.2773   50.7574   20.8163 C.ar      1 UNK         0.0000 
     33 C33         3.6434   50.8956   20.6084 C.ar      1 UNK         0.0000 
     34 C34         4.3251   52.0223   21.0484 C.ar      1 UNK         0.0000 
     35 S35         1.4927   49.2381   20.3466 S.3       1 UNK         0.0000 
     36 C36        -0.1504   49.1732   21.1149 C.3       1 UNK         0.0000 
     37 H37        -1.2785   51.3920   29.9150 H         1 UNK         0.0000 
     38 H38        -0.4631   50.8154   28.4671 H         1 UNK         0.0000 
     39 H39        -1.2943   52.3651   28.4411 H         1 UNK         0.0000 
     40 H40         0.3927   53.2624   30.1241 H         1 UNK         0.0000 
     41 H41         1.1990   51.6979   30.1133 H         1 UNK         0.0000 
     42 H42         5.2464   53.5705   27.8798 H         1 UNK         0.0000 
     43 H43         6.2819   53.9522   25.7821 H         1 UNK         0.0000 
     44 H44         2.4025   54.2381   23.9168 H         1 UNK         0.0000 
     45 H45         1.3758   53.6429   25.9970 H         1 UNK         0.0000 
     46 H46         5.6262   52.4971   17.9462 H         1 UNK         0.0000 
     47 H47         7.5968   51.5999   16.7825 H         1 UNK         0.0000 
     48 H48         9.6517   52.9668   16.5900 H         1 UNK         0.0000 
     49 H49         9.7246   55.2501   17.5372 H         1 UNK         0.0000 
     50 H50         7.7409   56.1692   18.6776 H         1 UNK         0.0000 
     51 H51         1.6330   53.8023   22.0831 H         1 UNK         0.0000 
     52 H52         0.4890   51.7509   21.5005 H         1 UNK         0.0000 
     53 H53         4.1775   50.1119   20.1024 H         1 UNK         0.0000 
     54 H54         5.3890   52.0913   20.8766 H         1 UNK         0.0000 
     55 H55        -0.5970   48.1924   20.9537 H         1 UNK         0.0000 
     56 H56        -0.0737   49.3433   22.1906 H         1 UNK         0.0000 
     57 H57        -0.8092   49.9247   20.6777 H         1 UNK         0.0000 
@<TRIPOS>BOND
     1    1    2 1    
     2    1   37 1    
     3    1   38 1    
     4    1   39 1    
     5    2    3 1    
     6    2   40 1    
     7    2   41 1    
     8    3    4 1    
     9    4    5 2    
    10    4    6 1    
    11    6   11 ar   
    12    6    7 ar   
    13    7    8 ar   
    14    7   42 1    
    15    8    9 ar   
    16    8   43 1    
    17    9   10 ar   
    18    9   12 1    
    19   10   11 ar   
    20   10   44 1    
    21   11   45 1    
    22   12   17 am   BACKBONE|DICT|INTERRES
    23   12   13 1    
    24   13   14 1    
    25   13   15 1    
    26   13   29 1    
    27   15   16 2    
    28   15   20 1    
    29   16   17 1    
    30   16   19 1    
    31   17   18 2    
    32   20   21 2    
    33   20   22 2    
    34   20   23 1    
    35   23   28 ar   
    36   23   24 ar   
    37   24   25 ar   
    38   24   46 1    
    39   25   26 ar   
    40   25   47 1    
    41   26   27 ar   
    42   26   48 1    
    43   27   28 ar   
    44   27   49 1    
    45   28   50 1    
    46   29   34 ar   
    47   29   30 ar   
    48   30   31 ar   
    49   30   51 1    
    50   31   32 ar   
    51   31   52 1    
    52   32   33 ar   
    53   32   35 1    
    54   33   34 ar   
    55   33   53 1    
    56   34   54 1    
    57   35   36 1    
    58   36   55 1    
    59   36   56 1    
    60   36   57 1    
@<TRIPOS>SUBSTRUCTURE
     1 UNK         1 GROUP             0       ****    0 ROOT    
