@<TRIPOS>MOLECULE
ZINC63681148_1349
50   53    1
SMALL
USER_CHARGES


@<TRIPOS>ATOM
      1 C1          4.6526   54.4772   24.4814 C.2       1 UNK         0.0000 
      2 C2          6.0583   54.3773   24.8515 C.2       1 UNK         0.0000 
      3 C3          6.4498   54.2085   26.1420 C.2       1 UNK         0.0000 
      4 C4          5.5003   54.1476   27.1680 C.2       1 UNK         0.0000 
      5 N5          5.6804   54.0272   28.4591 N.pl3     1 UNK         0.0000 
      6 C6          4.3800   54.0400   29.1483 C.3       1 UNK         0.0000 
      7 C7          3.4095   54.2149   27.9986 C.2       1 UNK         0.0000 
      8 C8          4.1377   54.2453   26.8666 C.2       1 UNK         0.0000 
      9 C9          3.7308   54.4081   25.4628 C.2       1 UNK         0.0000 
     10 C10         1.9179   54.4057   28.2281 C.3       1 UNK         0.0000 
     11 C11         1.1571   53.2411   28.9059 C.3       1 UNK         0.0000 
     12 N12         1.1786   51.9451   28.2189 N.am      1 UNK         0.0000 
     13 C13         0.7043   51.7148   26.9850 C.2       1 UNK         0.0000 
     14 O14         0.7563   52.5322   26.0684 O.2       1 UNK         0.0000 
     15 N15         0.1480   50.4967   26.8812 N.am      1 UNK         0.0000 
     16 C16        -0.4928   49.8967   25.7027 C.3       1 UNK         0.0000 
     17 H17        -0.8129   48.9026   26.0285 H         1 UNK         0.0000 
     18 C18        -1.7032   50.6190   25.1668 C.3       1 UNK         0.0000 
     19 C19        -1.2395   51.2710   23.8643 C.2       1 UNK         0.0000 
     20 O20        -1.8860   52.1563   23.3026 O.2       1 UNK         0.0000 
     21 N21        -0.0317   50.7166   23.5142 N.am      1 UNK         0.0000 
     22 C22         0.3707   49.6751   24.4813 C.3       1 UNK         0.0000 
     23 C23         0.7378   51.0304   22.3508 C.ar      1 UNK         0.0000 
     24 C24         2.0661   50.5749   22.2590 C.ar      1 UNK         0.0000 
     25 C25         2.8596   50.8978   21.1606 C.ar      1 UNK         0.0000 
     26 C26         2.3335   51.6662   20.1297 C.ar      1 UNK         0.0000 
     27 C27         1.0153   52.0966   20.1787 C.ar      1 UNK         0.0000 
     28 C28         0.2224   51.7822   21.2765 C.ar      1 UNK         0.0000 
     29 F29         3.1048   52.0040   19.0747 F         1 UNK         0.0000 
     30 H30         4.3556   54.5807   23.4470 H         1 UNK         0.0000 
     31 H31         6.8102   54.4199   24.0747 H         1 UNK         0.0000 
     32 H32         7.5024   54.1186   26.3617 H         1 UNK         0.0000 
     33 H33         4.2681   53.0948   29.6810 H         1 UNK         0.0000 
     34 H34         4.3835   54.8783   29.8432 H         1 UNK         0.0000 
     35 H35         2.6881   54.4581   25.1804 H         1 UNK         0.0000 
     36 H36         1.8041   55.2987   28.8438 H         1 UNK         0.0000 
     37 H37         1.4403   54.6578   27.2828 H         1 UNK         0.0000 
     38 H38         1.5804   53.0712   29.8967 H         1 UNK         0.0000 
     39 H39         0.1168   53.5294   29.0723 H         1 UNK         0.0000 
     40 H40         1.3839   51.1418   28.7929 H         1 UNK         0.0000 
     41 H41         0.0076   49.9643   27.7290 H         1 UNK         0.0000 
     42 H42        -2.5295   49.9365   24.9658 H         1 UNK         0.0000 
     43 H43        -2.0728   51.3825   25.8525 H         1 UNK         0.0000 
     44 H44         1.4264   49.6820   24.7480 H         1 UNK         0.0000 
     45 H45         0.1603   48.7052   24.0272 H         1 UNK         0.0000 
     46 H46         2.5197   49.9806   23.0360 H         1 UNK         0.0000 
     47 H47         3.8831   50.5592   21.1040 H         1 UNK         0.0000 
     48 H48         0.6179   52.6915   19.3699 H         1 UNK         0.0000 
     49 H49        -0.7938   52.1370   21.2534 H         1 UNK         0.0000 
     50 H50         6.5813   53.9628   28.9277 H         1 UNK         0.0000 
@<TRIPOS>BOND
     1    1    9 2    
     2    1    2 1    
     3    1   30 1    
     4    2    3 2    
     5    2   31 1    
     6    3    4 1    
     7    3   32 1    
     8    4    8 1    
     9    4    5 2    
    10    5    6 1    
    11    5   50 1    
    12    6    7 1    
    13    6   33 1    
    14    6   34 1    
    15    7    8 2    
    16    7   10 1    
    17    8    9 1    
    18    9   35 1    
    19   10   11 1    
    20   10   36 1    
    21   10   37 1    
    22   11   12 1    
    23   11   38 1    
    24   11   39 1    
    25   12   13 am   BACKBONE|DICT|INTERRES
    26   12   40 1    
    27   13   14 2    
    28   13   15 am   BACKBONE|DICT|INTERRES
    29   15   16 1    
    30   15   41 1    
    31   16   17 1    
    32   16   22 1    
    33   16   18 1    
    34   18   19 1    
    35   18   42 1    
    36   18   43 1    
    37   19   20 2    
    38   19   21 am   BACKBONE|DICT|INTERRES
    39   21   22 1    
    40   21   23 1    
    41   22   44 1    
    42   22   45 1    
    43   23   28 ar   
    44   23   24 ar   
    45   24   25 ar   
    46   24   46 1    
    47   25   26 ar   
    48   25   47 1    
    49   26   27 ar   
    50   26   29 1    
    51   27   28 ar   
    52   27   48 1    
    53   28   49 1    
@<TRIPOS>SUBSTRUCTURE
     1 UNK         1 GROUP             0       ****    0 ROOT    
