ZINC09407261_1425
                    3D
 Schrodinger Suite 2024-2.
 52 55  0  0  1  0            999 V2000
   -7.1393   42.2965   26.0914 C   0  0  0  0  0  0
   -6.2100   43.4867   25.9417 C   0  0  0  0  0  0
   -6.1652   44.2204   24.7531 C   0  0  0  0  0  0
   -5.2627   45.2801   24.6290 C   0  0  0  0  0  0
   -4.4184   45.5841   25.7114 C   0  0  0  0  0  0
   -4.4926   44.9031   26.8817 N   0  0  0  0  0  0
   -5.3560   43.8628   26.9806 C   0  0  0  0  0  0
   -3.3951   46.5489   25.6547 N   0  0  0  0  0  0
   -2.6958   46.9301   24.5607 C   0  0  0  0  0  0
   -2.8096   46.3643   23.4695 O   0  0  0  0  0  0
   -1.5786   47.9864   24.7620 C   0  0  0  0  0  0
   -0.8943   48.3871   23.4231 C   0  0  0  0  0  0
    0.2864   49.3421   23.7151 C   0  0  0  0  0  0
   -0.1748   50.5016   24.5175 N   0  0  0  0  0  0
   -0.8969   50.1880   25.7786 C   0  0  0  0  0  0
   -2.0952   49.2471   25.5090 C   0  0  0  0  0  0
   -0.1812   52.1474   23.8473 S   0  0  0  0  0  0
   -0.0685   52.0655   22.3857 O   0  0  0  0  0  0
   -1.2697   52.8969   24.4828 O   0  0  0  0  0  0
    1.3466   52.8926   24.4417 C   0  0  0  0  0  0
    1.5045   53.1314   25.8114 C   0  0  0  0  0  0
    2.6838   53.6966   26.3025 C   0  0  0  0  0  0
    3.7142   54.0197   25.4212 C   0  0  0  0  0  0
    3.5605   53.7893   24.0427 C   0  0  0  0  0  0
    2.3771   53.2290   23.5526 C   0  0  0  0  0  0
    4.7276   54.0966   23.1912 C   0  0  0  0  0  0
    5.8798   54.5429   23.7465 C   0  0  0  0  0  0
    6.0322   54.8215   25.1673 C   0  0  0  0  0  0
    7.0402   55.2963   25.6820 O   0  0  0  0  0  0
    4.9303   54.5417   25.9002 N   0  0  0  0  0  0
    5.0486   54.7220   26.8819 H   0  0  0  0  0  0
   -8.0818   42.6026   26.5469 H   0  0  0  0  0  0
   -6.6847   41.5246   26.7146 H   0  0  0  0  0  0
   -7.3450   41.8353   25.1245 H   0  0  0  0  0  0
   -6.8136   43.9679   23.9269 H   0  0  0  0  0  0
   -5.2210   45.8372   23.7053 H   0  0  0  0  0  0
   -5.3359   43.3156   27.9121 H   0  0  0  0  0  0
   -3.0838   46.9064   26.5486 H   0  0  0  0  0  0
   -0.8948   47.4721   25.4410 H   0  0  0  0  0  0
   -0.4957   47.5149   22.9106 H   0  0  0  0  0  0
   -1.5847   48.9256   22.7711 H   0  0  0  0  0  0
    1.0980   48.8507   24.2543 H   0  0  0  0  0  0
    0.7176   49.7056   22.7813 H   0  0  0  0  0  0
   -0.1919   49.7490   26.4851 H   0  0  0  0  0  0
   -1.2471   51.1148   26.2313 H   0  0  0  0  0  0
   -2.8034   49.8143   24.9023 H   0  0  0  0  0  0
   -2.5182   49.0072   26.4816 H   0  0  0  0  0  0
    0.7094   52.8741   26.4972 H   0  0  0  0  0  0
    2.7943   53.8675   27.3622 H   0  0  0  0  0  0
    2.2668   53.0424   22.4934 H   0  0  0  0  0  0
    4.6724   53.9345   22.1227 H   0  0  0  0  0  0
    6.7354   54.7463   23.1185 H   0  0  0  0  0  0
  1  2  1  0  0  0
  1 32  1  0  0  0
  1 33  1  0  0  0
  1 34  1  0  0  0
  2  7  2  0  0  0
  2  3  1  0  0  0
  3  4  2  0  0  0
  3 35  1  0  0  0
  4  5  1  0  0  0
  4 36  1  0  0  0
  5  6  2  0  0  0
  5  8  1  0  0  0
  6  7  1  0  0  0
  7 37  1  0  0  0
  8  9  1  0  0  0
  8 38  1  0  0  0
  9 10  2  0  0  0
  9 11  1  0  0  0
 11 16  1  0  0  0
 11 12  1  0  0  0
 11 39  1  0  0  0
 12 13  1  0  0  0
 12 40  1  0  0  0
 12 41  1  0  0  0
 13 14  1  0  0  0
 13 42  1  0  0  0
 13 43  1  0  0  0
 14 15  1  0  0  0
 14 17  1  0  0  0
 15 16  1  0  0  0
 15 44  1  0  0  0
 15 45  1  0  0  0
 16 46  1  0  0  0
 16 47  1  0  0  0
 17 18  2  0  0  0
 17 19  2  0  0  0
 17 20  1  0  0  0
 20 25  2  0  0  0
 20 21  1  0  0  0
 21 22  2  0  0  0
 21 48  1  0  0  0
 22 23  1  0  0  0
 22 49  1  0  0  0
 23 30  1  0  0  0
 23 24  2  0  0  0
 24 25  1  0  0  0
 24 26  1  0  0  0
 25 50  1  0  0  0
 26 27  2  0  0  0
 26 51  1  0  0  0
 27 28  1  0  0  0
 27 52  1  0  0  0
 28 29  2  0  0  0
 28 30  1  0  0  0
 30 31  1  0  0  0
M  END
> <i_i_glide_confnum>
48

> <i_i_glide_lignum>
1426

> <i_i_glide_posenum>
131

> <i_i_glide_rotatable_bonds>
5

> <i_m_Source_File_Index>
1434

> <b_m_subgroup_collapsed>
0

> <r_i_docking_score>
-5.90483

> <r_i_glide_ecoul>
-10.1268

> <r_i_glide_eff_state_penalty>
0

> <r_i_glide_einternal>
8.3357

> <r_i_glide_emodel>
-59.278

> <r_i_glide_energy>
-46.8197

> <r_i_glide_erotb>
0.545554

> <r_i_glide_esite>
-0.133066

> <r_i_glide_evdw>
-36.6929

> <r_i_glide_gscore>
-5.90483

> <r_i_glide_hbond>
-0.32

> <r_i_glide_ligand_efficiency>
-0.196828

> <r_i_glide_ligand_efficiency_ln>
-1.34164

> <r_i_glide_ligand_efficiency_sa>
-0.611589

> <r_i_glide_lipo>
-2.09776

> <r_i_glide_metal>
0

> <r_i_glide_rewards>
-0.545899

> <s_i_glide_gridfile>
wee1_glide-grid

> <s_m_Source_File>
wee1_decoys_glide_SP.sdf

> <s_m_Source_Path>
/Users/zhangxujun/Desktop

> <s_m_entry_id>
1709

> <s_m_entry_name>
wee1_decoys_glide_SP.1434

> <s_m_subgroup_title>
wee1_decoys_glide_SP

> <s_m_subgroupid>
wee1_decoys_glide_SP


$$$$
