@<TRIPOS>MOLECULE
ZINC35674681_842
68   70    1
SMALL
USER_CHARGES


@<TRIPOS>ATOM
      1 C1         -4.6366   54.1222   26.0823 C.3       1 UNK         0.0000 
      2 C2         -4.7173   53.6933   24.6095 C.3       1 UNK         0.0000 
      3 C3         -4.3103   52.2208   24.3505 C.3       1 UNK         0.0000 
      4 N4         -2.9876   51.8439   24.8669 N.am      1 UNK         0.0000 
      5 C5         -1.8166   52.4008   24.4996 C.2       1 UNK         0.0000 
      6 O6         -1.7663   53.2988   23.6577 O.2       1 UNK         0.0000 
      7 N7         -0.7061   51.9603   25.1489 N.am      1 UNK         0.0000 
      8 C8         -0.6418   50.6815   25.8742 C.3       1 UNK         0.0000 
      9 C9         -0.3668   51.0237   27.3403 C.3       1 UNK         0.0000 
     10 C10         0.7826   52.0056   27.5144 C.ar      1 UNK         0.0000 
     11 C11         1.3900   52.1334   28.7650 C.ar      1 UNK         0.0000 
     12 C12         2.4760   52.9788   28.9614 C.ar      1 UNK         0.0000 
     13 C13         2.9686   53.7350   27.8963 C.ar      1 UNK         0.0000 
     14 C14         2.3063   53.6684   26.6661 C.ar      1 UNK         0.0000 
     15 C15         1.2362   52.7941   26.4310 C.ar      1 UNK         0.0000 
     16 C16         0.5927   52.6793   25.0237 C.3       1 UNK         0.0000 
     17 H17         0.3686   53.7011   24.7225 H         1 UNK         0.0000 
     18 C18         1.5434   52.0780   23.9281 C.3       1 UNK         0.0000 
     19 H19         1.9041   51.1232   24.3170 H         1 UNK         0.0000 
     20 C20         2.7771   52.9575   23.5735 C.3       1 UNK         0.0000 
     21 C21         2.4559   54.3656   23.0456 C.3       1 UNK         0.0000 
     22 N22         0.8008   51.7824   22.7008 N.am      1 UNK         0.0000 
     23 C23         1.1744   50.9220   21.7364 C.2       1 UNK         0.0000 
     24 O24         2.2207   50.2722   21.7858 O.2       1 UNK         0.0000 
     25 C25         0.2428   50.8191   20.5566 C.ar      1 UNK         0.0000 
     26 C26         0.7530   50.4507   19.3050 C.ar      1 UNK         0.0000 
     27 C27        -0.0907   50.3444   18.2043 C.ar      1 UNK         0.0000 
     28 C28        -1.4544   50.6047   18.3416 C.ar      1 UNK         0.0000 
     29 C29        -1.9757   50.9666   19.5856 C.ar      1 UNK         0.0000 
     30 C30        -1.1335   51.0761   20.6869 C.ar      1 UNK         0.0000 
     31 C31        -2.3786   50.4692   17.1461 C.3       1 UNK         0.0000 
     32 O32         4.1011   54.4996   28.1145 O.3       1 UNK         0.0000 
     33 C33         4.9171   54.8315   26.9939 C.3       1 UNK         0.0000 
     34 O34         3.0694   53.0188   30.2006 O.3       1 UNK         0.0000 
     35 C35         4.1798   52.1421   30.3056 C.3       1 UNK         0.0000 
     36 H36        -4.9091   55.1701   26.2037 H         1 UNK         0.0000 
     37 H37        -5.3103   53.5287   26.7047 H         1 UNK         0.0000 
     38 H38        -3.6264   54.0079   26.4808 H         1 UNK         0.0000 
     39 H39        -4.0972   54.3622   24.0103 H         1 UNK         0.0000 
     40 H40        -5.7378   53.8444   24.2532 H         1 UNK         0.0000 
     41 H41        -4.3648   51.9869   23.2862 H         1 UNK         0.0000 
     42 H42        -5.0200   51.5642   24.8582 H         1 UNK         0.0000 
     43 H43        -2.9736   51.1525   25.6004 H         1 UNK         0.0000 
     44 H44        -1.5116   50.0374   25.7417 H         1 UNK         0.0000 
     45 H45         0.1685   50.0740   25.4740 H         1 UNK         0.0000 
     46 H46        -1.2732   51.4086   27.8124 H         1 UNK         0.0000 
     47 H47        -0.1320   50.0967   27.8558 H         1 UNK         0.0000 
     48 H48         1.0263   51.5435   29.5951 H         1 UNK         0.0000 
     49 H49         2.6390   54.3074   25.8667 H         1 UNK         0.0000 
     50 H50         3.4696   53.0077   24.4109 H         1 UNK         0.0000 
     51 H51         3.3625   52.4673   22.7977 H         1 UNK         0.0000 
     52 H52         3.3723   54.8954   22.7779 H         1 UNK         0.0000 
     53 H53         1.8401   54.3079   22.1476 H         1 UNK         0.0000 
     54 H54         1.9254   54.9677   23.7819 H         1 UNK         0.0000 
     55 H55        -0.0834   52.2577   22.6034 H         1 UNK         0.0000 
     56 H56         1.8085   50.2468   19.1738 H         1 UNK         0.0000 
     57 H57         0.3202   50.0588   17.2458 H         1 UNK         0.0000 
     58 H58        -3.0341   51.1544   19.6983 H         1 UNK         0.0000 
     59 H59        -1.5651   51.3462   21.6397 H         1 UNK         0.0000 
     60 H60        -2.5022   51.4313   16.6503 H         1 UNK         0.0000 
     61 H61        -1.9890   49.7478   16.4280 H         1 UNK         0.0000 
     62 H62        -3.3589   50.1055   17.4535 H         1 UNK         0.0000 
     63 H63         5.8375   55.3030   27.3412 H         1 UNK         0.0000 
     64 H64         5.1976   53.9384   26.4310 H         1 UNK         0.0000 
     65 H65         4.4276   55.5318   26.3163 H         1 UNK         0.0000 
     66 H66         4.5199   52.0957   31.3408 H         1 UNK         0.0000 
     67 H67         3.9044   51.1353   29.9970 H         1 UNK         0.0000 
     68 H68         5.0108   52.4769   29.6803 H         1 UNK         0.0000 
@<TRIPOS>BOND
     1    1    2 1    
     2    1   36 1    
     3    1   37 1    
     4    1   38 1    
     5    2    3 1    
     6    2   39 1    
     7    2   40 1    
     8    3    4 1    
     9    3   41 1    
    10    3   42 1    
    11    4    5 am   BACKBONE|DICT|INTERRES
    12    4   43 1    
    13    5    6 2    
    14    5    7 am   BACKBONE|DICT|INTERRES
    15    7   16 1    
    16    7    8 1    
    17    8    9 1    
    18    8   44 1    
    19    8   45 1    
    20    9   10 1    
    21    9   46 1    
    22    9   47 1    
    23   10   15 ar   
    24   10   11 ar   
    25   11   12 ar   
    26   11   48 1    
    27   12   13 ar   
    28   12   34 1    
    29   13   14 ar   
    30   13   32 1    
    31   14   15 ar   
    32   14   49 1    
    33   15   16 1    
    34   16   17 1    
    35   16   18 1    
    36   18   19 1    
    37   18   20 1    
    38   18   22 1    
    39   20   21 1    
    40   20   50 1    
    41   20   51 1    
    42   21   52 1    
    43   21   53 1    
    44   21   54 1    
    45   22   23 am   BACKBONE|DICT|INTERRES
    46   22   55 1    
    47   23   24 2    
    48   23   25 1    
    49   25   30 ar   
    50   25   26 ar   
    51   26   27 ar   
    52   26   56 1    
    53   27   28 ar   
    54   27   57 1    
    55   28   29 ar   
    56   28   31 1    
    57   29   30 ar   
    58   29   58 1    
    59   30   59 1    
    60   31   60 1    
    61   31   61 1    
    62   31   62 1    
    63   32   33 1    
    64   33   63 1    
    65   33   64 1    
    66   33   65 1    
    67   34   35 1    
    68   35   66 1    
    69   35   67 1    
    70   35   68 1    
@<TRIPOS>SUBSTRUCTURE
     1 UNK         1 GROUP             0       ****    0 ROOT    
