@<TRIPOS>MOLECULE
ZINC44882327_1199
67   70    1
SMALL
USER_CHARGES


@<TRIPOS>ATOM
      1 C1          2.8562   51.1312   21.4666 C.3       1 UNK         0.0000 
      2 O2          3.5850   52.1904   22.0814 O.3       1 UNK         0.0000 
      3 C3          4.3736   53.0249   21.3060 C.ar      1 UNK         0.0000 
      4 C4          4.4836   52.8921   19.9156 C.ar      1 UNK         0.0000 
      5 C5          5.2444   53.7815   19.1707 C.ar      1 UNK         0.0000 
      6 C6          5.8899   54.8490   19.7935 C.ar      1 UNK         0.0000 
      7 C7          5.8375   54.9666   21.1875 C.ar      1 UNK         0.0000 
      8 C8          5.0942   54.0473   21.9516 C.ar      1 UNK         0.0000 
      9 N9          4.9813   54.0964   23.3576 N.am      1 UNK         0.0000 
     10 C10         5.7327   54.7352   24.2830 C.2       1 UNK         0.0000 
     11 O11         6.7228   55.4056   24.0117 O.2       1 UNK         0.0000 
     12 C12         5.2858   54.6644   25.7649 C.3       1 UNK         0.0000 
     13 H13         5.2050   55.7200   26.0232 H         1 UNK         0.0000 
     14 C14         6.3614   53.9731   26.6401 C.3       1 UNK         0.0000 
     15 C15         5.9117   53.9977   28.1191 C.3       1 UNK         0.0000 
     16 C16         4.5168   53.3704   28.3283 C.3       1 UNK         0.0000 
     17 N17         3.4968   54.1087   27.4260 N.4       1 UNK         0.0000 
     18 C18         3.8970   54.0074   25.9357 C.3       1 UNK         0.0000 
     19 C19         2.0676   53.5436   27.5765 C.3       1 UNK         0.0000 
     20 C20         1.4670   53.6615   28.9656 C.ar      1 UNK         0.0000 
     21 C21         1.2757   54.9159   29.5506 C.ar      1 UNK         0.0000 
     22 C22         0.7043   55.0135   30.8183 C.ar      1 UNK         0.0000 
     23 C23         0.3040   53.8624   31.4990 C.ar      1 UNK         0.0000 
     24 C24         0.4781   52.6124   30.9100 C.ar      1 UNK         0.0000 
     25 C25         1.0685   52.5112   29.6521 C.ar      1 UNK         0.0000 
     26 F26         1.2471   51.2967   29.0931 F         1 UNK         0.0000 
     27 S27         6.7835   56.0459   18.7945 S.o2      1 UNK         0.0000 
     28 O28         7.8439   55.2972   18.1116 O.2       1 UNK         0.0000 
     29 O29         7.1045   57.1710   19.6817 O.2       1 UNK         0.0000 
     30 N30         5.6177   56.6163   17.5715 N.pl3     1 UNK         0.0000 
     31 C31         5.4644   55.8408   16.3119 C.3       1 UNK         0.0000 
     32 C32         6.3941   56.3766   15.2082 C.3       1 UNK         0.0000 
     33 C33         6.1674   57.8828   14.9834 C.3       1 UNK         0.0000 
     34 C34         6.2355   58.6919   16.2976 C.3       1 UNK         0.0000 
     35 C35         5.3749   58.0781   17.4300 C.3       1 UNK         0.0000 
     36 H36         2.3082   50.5792   22.2305 H         1 UNK         0.0000 
     37 H37         2.1280   51.5122   20.7498 H         1 UNK         0.0000 
     38 H38         3.5178   50.4251   20.9636 H         1 UNK         0.0000 
     39 H39         3.9872   52.0948   19.3817 H         1 UNK         0.0000 
     40 H40         5.3105   53.6225   18.1084 H         1 UNK         0.0000 
     41 H41         6.3603   55.7848   21.6596 H         1 UNK         0.0000 
     42 H42         4.2391   53.5060   23.7049 H         1 UNK         0.0000 
     43 H43         6.4748   52.9208   26.3776 H         1 UNK         0.0000 
     44 H44         7.3182   54.4965   26.5980 H         1 UNK         0.0000 
     45 H45         6.6445   53.4688   28.7305 H         1 UNK         0.0000 
     46 H46         5.9069   55.0242   28.4889 H         1 UNK         0.0000 
     47 H47         4.4840   52.3091   28.0790 H         1 UNK         0.0000 
     48 H48         4.1907   53.5097   29.3596 H         1 UNK         0.0000 
     49 H49         3.1294   54.5497   25.3746 H         1 UNK         0.0000 
     50 H50         3.8912   52.9441   25.6894 H         1 UNK         0.0000 
     51 H51         1.4632   54.1081   26.8670 H         1 UNK         0.0000 
     52 H52         2.1163   52.5089   27.2276 H         1 UNK         0.0000 
     53 H53         1.5732   55.8171   29.0327 H         1 UNK         0.0000 
     54 H54         0.6081   55.9840   31.2812 H         1 UNK         0.0000 
     55 H55        -0.1377   53.9281   32.4840 H         1 UNK         0.0000 
     56 H56         0.1463   51.7264   31.4362 H         1 UNK         0.0000 
     57 H57         4.4275   55.9274   15.9861 H         1 UNK         0.0000 
     58 H58         5.6617   54.7888   16.4907 H         1 UNK         0.0000 
     59 H59         6.2230   55.8309   14.2797 H         1 UNK         0.0000 
     60 H60         7.4356   56.1913   15.4828 H         1 UNK         0.0000 
     61 H61         6.8937   58.2711   14.2665 H         1 UNK         0.0000 
     62 H62         5.1837   58.0337   14.5292 H         1 UNK         0.0000 
     63 H63         7.2711   58.7611   16.6354 H         1 UNK         0.0000 
     64 H64         5.9168   59.7146   16.0894 H         1 UNK         0.0000 
     65 H65         4.3099   58.2296   17.2458 H         1 UNK         0.0000 
     66 H66         5.5843   58.5781   18.3747 H         1 UNK         0.0000 
     67 H67         3.4805   55.0853   27.6905 H         1 UNK         0.0000 
@<TRIPOS>BOND
     1    1    2 1    
     2    1   36 1    
     3    1   37 1    
     4    1   38 1    
     5    2    3 1    
     6    3    8 ar   
     7    3    4 ar   
     8    4    5 ar   
     9    4   39 1    
    10    5    6 ar   
    11    5   40 1    
    12    6    7 ar   
    13    6   27 1    
    14    7    8 ar   
    15    7   41 1    
    16    8    9 1    
    17    9   10 am   BACKBONE|DICT|INTERRES
    18    9   42 1    
    19   10   11 2    
    20   10   12 1    
    21   12   13 1    
    22   12   18 1    
    23   12   14 1    
    24   14   15 1    
    25   14   43 1    
    26   14   44 1    
    27   15   16 1    
    28   15   45 1    
    29   15   46 1    
    30   16   17 1    
    31   16   47 1    
    32   16   48 1    
    33   17   18 1    
    34   17   19 1    
    35   17   67 1    
    36   18   49 1    
    37   18   50 1    
    38   19   20 1    
    39   19   51 1    
    40   19   52 1    
    41   20   25 ar   
    42   20   21 ar   
    43   21   22 ar   
    44   21   53 1    
    45   22   23 ar   
    46   22   54 1    
    47   23   24 ar   
    48   23   55 1    
    49   24   25 ar   
    50   24   56 1    
    51   25   26 1    
    52   27   28 2    
    53   27   29 2    
    54   27   30 1    
    55   30   35 1    
    56   30   31 1    
    57   31   32 1    
    58   31   57 1    
    59   31   58 1    
    60   32   33 1    
    61   32   59 1    
    62   32   60 1    
    63   33   34 1    
    64   33   61 1    
    65   33   62 1    
    66   34   35 1    
    67   34   63 1    
    68   34   64 1    
    69   35   65 1    
    70   35   66 1    
@<TRIPOS>SUBSTRUCTURE
     1 UNK         1 GROUP             0       ****    0 ROOT    
