@<TRIPOS>MOLECULE
ZINC37560100_1674
35   36    1
SMALL
USER_CHARGES


@<TRIPOS>ATOM
      1 C1          1.7228   53.4920   26.0113 C.3       1 UNK         0.0000 
      2 C2          3.1002   53.7928   25.4411 C.ar      1 UNK         0.0000 
      3 C3          3.1938   53.8231   24.0499 C.ar      1 UNK         0.0000 
      4 C4          4.3991   54.0972   23.4253 C.ar      1 UNK         0.0000 
      5 C5          5.5325   54.3751   24.1798 C.ar      1 UNK         0.0000 
      6 C6          5.4686   54.3677   25.5906 C.ar      1 UNK         0.0000 
      7 C7          4.2388   54.0599   26.2394 C.ar      1 UNK         0.0000 
      8 S8          4.1393   53.9093   28.0653 S.o2      1 UNK         0.0000 
      9 O9          5.4596   53.5444   28.5843 O.2       1 UNK         0.0000 
     10 O10         3.4284   55.0956   28.5539 O.2       1 UNK         0.0000 
     11 N11         3.1393   52.4978   28.4600 N.pl3     1 UNK         0.0000 
     12 C12         2.0005   52.5205   29.2209 C.ar      1 UNK         0.0000 
     13 C13         0.8374   51.7598   29.0379 C.ar      1 UNK         0.0000 
     14 C14        -0.0056   52.0977   30.0815 C.ar      1 UNK         0.0000 
     15 N15         0.6937   53.0185   30.8135 N.pl3     1 UNK         0.0000 
     16 N16         1.9102   53.2571   30.3078 N.2       1 UNK         0.0000 
     17 C17         0.3029   53.6663   32.0526 C.3       1 UNK         0.0000 
     18 C18         6.7275   54.7288   26.3871 C.3       1 UNK         0.0000 
     19 N19         6.7039   54.6510   23.4662 N.pl3     1 UNK         0.0000 
     20 H20         1.6415   52.4406   26.2856 H         1 UNK         0.0000 
     21 H21         1.5097   54.1125   26.8824 H         1 UNK         0.0000 
     22 H22         0.9367   53.6987   25.2847 H         1 UNK         0.0000 
     23 H23         2.3263   53.6225   23.4368 H         1 UNK         0.0000 
     24 H24         4.4403   54.1036   22.3449 H         1 UNK         0.0000 
     25 H25         3.5539   51.6275   28.1644 H         1 UNK         0.0000 
     26 H26         0.6401   51.0424   28.2546 H         1 UNK         0.0000 
     27 H27        -0.9849   51.7539   30.3864 H         1 UNK         0.0000 
     28 H28        -0.7806   53.6971   32.1375 H         1 UNK         0.0000 
     29 H29         0.7024   53.0948   32.8907 H         1 UNK         0.0000 
     30 H30         0.6867   54.6873   32.0798 H         1 UNK         0.0000 
     31 H31         7.1803   53.8313   26.8110 H         1 UNK         0.0000 
     32 H32         6.4850   55.4136   27.2010 H         1 UNK         0.0000 
     33 H33         7.4870   55.2351   25.7926 H         1 UNK         0.0000 
     34 H34         6.6754   54.6310   22.4577 H         1 UNK         0.0000 
     35 H35         7.5899   54.7693   23.9424 H         1 UNK         0.0000 
@<TRIPOS>BOND
     1    1    2 1    
     2    1   20 1    
     3    1   21 1    
     4    1   22 1    
     5    2    7 ar   
     6    2    3 ar   
     7    3    4 ar   
     8    3   23 1    
     9    4    5 ar   
    10    4   24 1    
    11    5    6 ar   
    12    5   19 1    
    13    6    7 ar   
    14    6   18 1    
    15    7    8 1    
    16    8    9 2    
    17    8   10 2    
    18    8   11 1    
    19   11   12 1    
    20   11   25 1    
    21   12   16 ar   
    22   12   13 ar   
    23   13   14 ar   
    24   13   26 1    
    25   14   15 ar   
    26   14   27 1    
    27   15   16 ar   
    28   15   17 1    
    29   17   28 1    
    30   17   29 1    
    31   17   30 1    
    32   18   31 1    
    33   18   32 1    
    34   18   33 1    
    35   19   34 1    
    36   19   35 1    
@<TRIPOS>SUBSTRUCTURE
     1 UNK         1 GROUP             0       ****    0 ROOT    
