@<TRIPOS>MOLECULE
ZINC11486634_1427
53   57    1
SMALL
USER_CHARGES


@<TRIPOS>ATOM
      1 C1         -0.9441   51.3219   22.3570 C.3       1 UNK         0.0000 
      2 C2          0.3100   51.7211   21.5871 C.ar      1 UNK         0.0000 
      3 C3          1.3245   52.3737   22.2984 C.ar      1 UNK         0.0000 
      4 C4          2.5516   52.6823   21.6938 C.ar      1 UNK         0.0000 
      5 C5          2.7629   52.3190   20.3634 C.ar      1 UNK         0.0000 
      6 C6          1.7561   51.6855   19.6392 C.ar      1 UNK         0.0000 
      7 C7          0.5179   51.3918   20.2267 C.ar      1 UNK         0.0000 
      8 N8         -0.4322   50.7208   19.4235 N.am      1 UNK         0.0000 
      9 C9         -0.1140   49.4727   18.7181 C.3       1 UNK         0.0000 
     10 C10        -1.2637   49.2504   17.7618 C.3       1 UNK         0.0000 
     11 C11        -2.3905   50.0658   18.3507 C.3       1 UNK         0.0000 
     12 C12        -1.7290   51.1055   19.2515 C.2       1 UNK         0.0000 
     13 O13        -2.3105   52.0975   19.6997 O.2       1 UNK         0.0000 
     14 N14         3.6295   53.2731   22.3710 N.am      1 UNK         0.0000 
     15 C15         3.6007   54.0174   23.4976 C.2       1 UNK         0.0000 
     16 O16         2.5837   54.4981   23.9965 O.2       1 UNK         0.0000 
     17 C17         4.9065   54.2228   24.0817 C.ar      1 UNK         0.0000 
     18 C18         6.0697   54.4951   23.3652 C.ar      1 UNK         0.0000 
     19 N19         7.0405   54.6996   24.2955 N.pl3     1 UNK         0.0000 
     20 H20         8.0098   54.9280   24.0793 H         1 UNK         0.0000 
     21 N21         6.5874   54.5975   25.5426 N.2       1 UNK         0.0000 
     22 C22         5.2998   54.2981   25.4569 C.ar      1 UNK         0.0000 
     23 C23         4.5163   54.0862   26.7418 C.ar      1 UNK         0.0000 
     24 C24         5.0491   54.4973   27.9790 C.ar      1 UNK         0.0000 
     25 C25         4.3395   54.3405   29.1712 C.ar      1 UNK         0.0000 
     26 C26         3.0891   53.7340   29.1546 C.ar      1 UNK         0.0000 
     27 C27         2.5431   53.2965   27.9418 C.ar      1 UNK         0.0000 
     28 C28         3.2615   53.4528   26.7583 C.ar      1 UNK         0.0000 
     29 O29         1.3306   52.6386   27.8784 O.3       1 UNK         0.0000 
     30 C30         0.4917   52.8482   29.0215 C.3       1 UNK         0.0000 
     31 C31         1.3128   52.7102   30.3263 C.3       1 UNK         0.0000 
     32 O32         2.3983   53.6447   30.3455 O.3       1 UNK         0.0000 
     33 H33        -0.7267   51.1657   23.4144 H         1 UNK         0.0000 
     34 H34        -1.7133   52.0907   22.2725 H         1 UNK         0.0000 
     35 H35        -1.3477   50.3756   21.9960 H         1 UNK         0.0000 
     36 H36         1.1614   52.6002   23.3418 H         1 UNK         0.0000 
     37 H37         3.7062   52.5240   19.8721 H         1 UNK         0.0000 
     38 H38         1.9501   51.4270   18.6067 H         1 UNK         0.0000 
     39 H39         0.8350   49.5392   18.1786 H         1 UNK         0.0000 
     40 H40        -0.0350   48.6588   19.4404 H         1 UNK         0.0000 
     41 H41        -1.5015   48.1970   17.6323 H         1 UNK         0.0000 
     42 H42        -1.0018   49.6505   16.7801 H         1 UNK         0.0000 
     43 H43        -3.0321   49.4460   18.9785 H         1 UNK         0.0000 
     44 H44        -3.0164   50.5324   17.5861 H         1 UNK         0.0000 
     45 H45         4.5380   53.0444   22.0038 H         1 UNK         0.0000 
     46 H46         6.2794   54.5763   22.3071 H         1 UNK         0.0000 
     47 H47         6.0144   54.9760   28.0309 H         1 UNK         0.0000 
     48 H48         4.7598   54.6959   30.0965 H         1 UNK         0.0000 
     49 H49         2.8284   53.0409   25.8628 H         1 UNK         0.0000 
     50 H50        -0.3272   52.1304   29.0008 H         1 UNK         0.0000 
     51 H51         0.0599   53.8482   28.9759 H         1 UNK         0.0000 
     52 H52         1.7115   51.6971   30.3869 H         1 UNK         0.0000 
     53 H53         0.6766   52.8667   31.1984 H         1 UNK         0.0000 
@<TRIPOS>BOND
     1    1    2 1    
     2    1   33 1    
     3    1   34 1    
     4    1   35 1    
     5    2    7 ar   
     6    2    3 ar   
     7    3    4 ar   
     8    3   36 1    
     9    4    5 ar   
    10    4   14 1    
    11    5    6 ar   
    12    5   37 1    
    13    6    7 ar   
    14    6   38 1    
    15    7    8 1    
    16    8   12 am   BACKBONE|DICT|INTERRES
    17    8    9 1    
    18    9   10 1    
    19    9   39 1    
    20    9   40 1    
    21   10   11 1    
    22   10   41 1    
    23   10   42 1    
    24   11   12 1    
    25   11   43 1    
    26   11   44 1    
    27   12   13 2    
    28   14   15 am   BACKBONE|DICT|INTERRES
    29   14   45 1    
    30   15   16 2    
    31   15   17 1    
    32   17   22 ar   
    33   17   18 ar   
    34   18   19 ar   
    35   18   46 1    
    36   19   20 1    
    37   19   21 ar   
    38   21   22 ar   
    39   22   23 1    
    40   23   28 ar   
    41   23   24 ar   
    42   24   25 ar   
    43   24   47 1    
    44   25   26 ar   
    45   25   48 1    
    46   26   32 1    
    47   26   27 ar   
    48   27   28 ar   
    49   27   29 1    
    50   28   49 1    
    51   29   30 1    
    52   30   31 1    
    53   30   50 1    
    54   30   51 1    
    55   31   32 1    
    56   31   52 1    
    57   31   53 1    
@<TRIPOS>SUBSTRUCTURE
     1 UNK         1 GROUP             0       ****    0 ROOT    
