ZINC13679774_931
                    3D
 Schrodinger Suite 2024-2.
 65 68  0  0  1  0            999 V2000
    3.1355   52.4653   29.0772 C   0  0  0  0  0  0
    1.7988   51.9493   28.5118 C   0  0  0  0  0  0
    0.5436   52.3651   29.3242 C   0  0  1  0  0  0
    0.6968   52.0082   30.3445 H   0  0  0  0  0  0
    0.3454   53.8938   29.4180 C   0  0  0  0  0  0
   -0.6874   51.6965   28.8860 N   0  0  0  0  0  0
   -1.3059   51.8007   27.6919 C   0  0  0  0  0  0
   -0.7739   52.3793   26.7420 O   0  0  0  0  0  0
   -2.7551   51.2967   27.6167 C   0  0  0  0  0  0
   -3.3929   50.8319   28.7849 C   0  0  0  0  0  0
   -4.7133   50.3947   28.7780 C   0  0  0  0  0  0
   -5.4476   50.4240   27.5998 C   0  0  0  0  0  0
   -4.8546   50.8743   26.4251 C   0  0  0  0  0  0
   -3.5157   51.3038   26.4111 C   0  0  0  0  0  0
   -2.9052   51.7512   25.2225 N   0  0  0  0  0  0
   -3.1955   51.5237   23.9237 C   0  0  0  0  0  0
   -4.1900   50.9163   23.5221 O   0  0  0  0  0  0
   -2.1331   52.0546   22.9308 C   0  0  1  0  0  0
   -2.1077   53.1393   23.0438 H   0  0  0  0  0  0
   -0.7664   51.4331   23.2946 C   0  0  0  0  0  0
    0.2588   51.9473   22.3899 N   0  0  0  0  0  0
   -0.1093   51.8957   21.0171 C   0  0  0  0  0  0
    0.8355   51.9367   19.9819 C   0  0  0  0  0  0
    0.4333   51.8754   18.6488 C   0  0  0  0  0  0
   -0.9177   51.7553   18.3250 C   0  0  0  0  0  0
   -1.8719   51.6871   19.3368 C   0  0  0  0  0  0
   -1.4755   51.7545   20.6731 C   0  0  0  0  0  0
   -2.4952   51.6593   21.6027 O   0  0  0  0  0  0
    1.9336   52.0593   23.0052 S   0  0  0  0  0  0
    1.8464   52.0953   24.4711 O   0  0  0  0  0  0
    2.7044   51.0037   22.3376 O   0  0  0  0  0  0
    2.5633   53.7500   22.4510 C   0  0  0  0  0  0
    3.8943   54.0967   23.1026 C   0  0  0  0  0  0
    5.0693   54.0975   22.3433 C   0  0  0  0  0  0
    6.2808   54.4497   22.9392 C   0  0  0  0  0  0
    6.3208   54.7538   24.2978 C   0  0  0  0  0  0
    5.1593   54.7298   25.0650 C   0  0  0  0  0  0
    3.9442   54.4131   24.4643 C   0  0  0  0  0  0
    3.9731   52.0963   28.4862 H   0  0  0  0  0  0
    3.2854   52.1401   30.1081 H   0  0  0  0  0  0
    3.1909   53.5553   29.0525 H   0  0  0  0  0  0
    1.7078   52.2796   27.4750 H   0  0  0  0  0  0
    1.8485   50.8604   28.4687 H   0  0  0  0  0  0
    1.2243   54.3901   29.8221 H   0  0  0  0  0  0
    0.1679   54.3348   28.4385 H   0  0  0  0  0  0
   -0.4906   54.1457   30.0732 H   0  0  0  0  0  0
   -1.1006   51.0591   29.5538 H   0  0  0  0  0  0
   -2.8728   50.7700   29.7295 H   0  0  0  0  0  0
   -5.1629   50.0296   29.6892 H   0  0  0  0  0  0
   -6.4747   50.0908   27.5941 H   0  0  0  0  0  0
   -5.4626   50.8910   25.5344 H   0  0  0  0  0  0
   -2.0147   52.1931   25.4140 H   0  0  0  0  0  0
   -0.4819   51.6519   24.3223 H   0  0  0  0  0  0
   -0.7822   50.3437   23.2290 H   0  0  0  0  0  0
    1.8935   52.0028   20.1835 H   0  0  0  0  0  0
    1.1772   51.9065   17.8643 H   0  0  0  0  0  0
   -1.2204   51.7000   17.2902 H   0  0  0  0  0  0
   -2.9158   51.5704   19.0877 H   0  0  0  0  0  0
    2.6493   53.7212   21.3651 H   0  0  0  0  0  0
    1.8041   54.4840   22.7151 H   0  0  0  0  0  0
    5.0442   53.8541   21.2899 H   0  0  0  0  0  0
    7.1888   54.4944   22.3559 H   0  0  0  0  0  0
    7.2639   55.0134   24.7540 H   0  0  0  0  0  0
    5.1971   54.9658   26.1192 H   0  0  0  0  0  0
    3.0421   54.4053   25.0578 H   0  0  0  0  0  0
  1  2  1  0  0  0
  1 39  1  0  0  0
  1 40  1  0  0  0
  1 41  1  0  0  0
  2  3  1  0  0  0
  2 42  1  0  0  0
  2 43  1  0  0  0
  3  4  1  0  0  0
  3  5  1  0  0  0
  3  6  1  0  0  0
  5 44  1  0  0  0
  5 45  1  0  0  0
  5 46  1  0  0  0
  6  7  1  0  0  0
  6 47  1  0  0  0
  7  8  2  0  0  0
  7  9  1  0  0  0
  9 14  2  0  0  0
  9 10  1  0  0  0
 10 11  2  0  0  0
 10 48  1  0  0  0
 11 12  1  0  0  0
 11 49  1  0  0  0
 12 13  2  0  0  0
 12 50  1  0  0  0
 13 14  1  0  0  0
 13 51  1  0  0  0
 14 15  1  0  0  0
 15 16  1  0  0  0
 15 52  1  0  0  0
 16 17  2  0  0  0
 16 18  1  0  0  0
 18 19  1  0  0  0
 18 28  1  0  0  0
 18 20  1  0  0  0
 20 21  1  0  0  0
 20 53  1  0  0  0
 20 54  1  0  0  0
 21 22  1  0  0  0
 21 29  1  0  0  0
 22 27  2  0  0  0
 22 23  1  0  0  0
 23 24  2  0  0  0
 23 55  1  0  0  0
 24 25  1  0  0  0
 24 56  1  0  0  0
 25 26  2  0  0  0
 25 57  1  0  0  0
 26 27  1  0  0  0
 26 58  1  0  0  0
 27 28  1  0  0  0
 29 30  2  0  0  0
 29 31  2  0  0  0
 29 32  1  0  0  0
 32 33  1  0  0  0
 32 59  1  0  0  0
 32 60  1  0  0  0
 33 38  2  0  0  0
 33 34  1  0  0  0
 34 35  2  0  0  0
 34 61  1  0  0  0
 35 36  1  0  0  0
 35 62  1  0  0  0
 36 37  2  0  0  0
 36 63  1  0  0  0
 37 38  1  0  0  0
 37 64  1  0  0  0
 38 65  1  0  0  0
M  END
> <i_i_glide_confnum>
353

> <i_i_glide_lignum>
932

> <i_i_glide_posenum>
302

> <i_i_glide_rotatable_bonds>
10

> <i_m_Source_File_Index>
103

> <b_m_subgroup_collapsed>
0

> <r_i_docking_score>
-4.40906

> <r_i_glide_ecoul>
-2.31835

> <r_i_glide_eff_state_penalty>
0

> <r_i_glide_einternal>
4.4365

> <r_i_glide_emodel>
-54.3602

> <r_i_glide_energy>
-44.3078

> <r_i_glide_erotb>
0.714934

> <r_i_glide_esite>
-0.119221

> <r_i_glide_evdw>
-41.9894

> <r_i_glide_gscore>
-4.40906

> <r_i_glide_hbond>
0

> <r_i_glide_ligand_efficiency>
-0.122474

> <r_i_glide_ligand_efficiency_ln>
-0.961938

> <r_i_glide_ligand_efficiency_sa>
-0.4044

> <r_i_glide_lipo>
-2.30053

> <r_i_glide_metal>
0

> <r_i_glide_rewards>
-0.257017

> <s_i_glide_gridfile>
wee1_glide-grid

> <s_m_Source_File>
wee1_decoys_glide_SP.sdf

> <s_m_Source_Path>
/Users/zhangxujun/Desktop

> <s_m_entry_id>
378

> <s_m_entry_name>
wee1_decoys_glide_SP.103

> <s_m_subgroup_title>
wee1_decoys_glide_SP

> <s_m_subgroupid>
wee1_decoys_glide_SP


$$$$
