@<TRIPOS>MOLECULE
ZINC09382677_4819
62   65    1
SMALL
USER_CHARGES


@<TRIPOS>ATOM
      1 C1          2.2828   51.4707   17.8410 C.3       1 UNK         0.0000 
      2 C2          2.4441   50.5557   19.0709 C.3       1 UNK         0.0000 
      3 H3          3.5043   50.5871   19.2924 H         1 UNK         0.0000 
      4 C4          1.7279   51.0157   20.3917 C.3       1 UNK         0.0000 
      5 H5          2.0182   50.3181   21.1819 H         1 UNK         0.0000 
      6 C6          0.2050   51.1438   20.3090 C.2       1 UNK         0.0000 
      7 C7         -0.6012   51.8181   19.3878 C.2       1 UNK         0.0000 
      8 C8         -1.9740   51.6937   19.6116 C.2       1 UNK         0.0000 
      9 C9         -2.2585   50.9522   20.7424 C.2       1 UNK         0.0000 
     10 S10        -0.8147   50.3958   21.5152 S.3       1 UNK         0.0000 
     11 C11         1.7513   52.7353   22.3259 C.3       1 UNK         0.0000 
     12 C12         2.2930   54.1057   22.7794 C.3       1 UNK         0.0000 
     13 N13         3.7612   54.1801   22.7796 N.pl3     1 UNK         0.0000 
     14 C14         4.2792   53.8579   21.4393 C.3       1 UNK         0.0000 
     15 C15         3.8255   52.4835   20.9183 C.3       1 UNK         0.0000 
     16 C16         4.5560   54.2671   23.9220 C.ar      1 UNK         0.0000 
     17 C17         4.0342   54.0260   25.2019 C.ar      1 UNK         0.0000 
     18 C18         4.8440   54.0986   26.3323 C.ar      1 UNK         0.0000 
     19 C19         6.1957   54.4394   26.2078 C.ar      1 UNK         0.0000 
     20 C20         6.7045   54.7390   24.9534 C.ar      1 UNK         0.0000 
     21 C21         5.9040   54.6434   23.8233 C.ar      1 UNK         0.0000 
     22 O22         7.0831   54.4973   27.2600 O.3       1 UNK         0.0000 
     23 C23         6.7998   53.6968   28.3951 C.3       1 UNK         0.0000 
     24 N24         2.3032   49.1230   18.7075 N.pl3     1 UNK         0.0000 
     25 S25         0.7318   48.3591   18.4821 S.o2      1 UNK         0.0000 
     26 O26        -0.0834   49.2127   17.6105 O.2       1 UNK         0.0000 
     27 O27         0.2433   47.9487   19.8037 O.2       1 UNK         0.0000 
     28 C28         1.0582   46.8724   17.5475 C.ar      1 UNK         0.0000 
     29 C29         0.4694   45.6651   17.9304 C.ar      1 UNK         0.0000 
     30 C30         0.7148   44.5137   17.1881 C.ar      1 UNK         0.0000 
     31 C31         1.5633   44.5707   16.0815 C.ar      1 UNK         0.0000 
     32 C32         2.1434   45.7786   15.6949 C.ar      1 UNK         0.0000 
     33 C33         1.8807   46.9351   16.4220 C.ar      1 UNK         0.0000 
     34 Cl34        1.8966   43.1367   15.1880 Cl        1 UNK         0.0000 
     35 H35         2.3284   52.5247   18.1112 H         1 UNK         0.0000 
     36 H36         3.0893   51.2969   17.1255 H         1 UNK         0.0000 
     37 H37         1.3456   51.2990   17.3148 H         1 UNK         0.0000 
     38 H38        -0.2058   52.3808   18.5562 H         1 UNK         0.0000 
     39 H39        -2.7240   52.1204   18.9641 H         1 UNK         0.0000 
     40 H40        -3.2251   50.6912   21.1488 H         1 UNK         0.0000 
     41 H41         0.6656   52.8159   22.2479 H         1 UNK         0.0000 
     42 H42         2.0202   51.9217   23.0064 H         1 UNK         0.0000 
     43 H43         1.9678   54.8930   22.0961 H         1 UNK         0.0000 
     44 H44         1.8619   54.3754   23.7429 H         1 UNK         0.0000 
     45 H45         5.3652   53.8889   21.3872 H         1 UNK         0.0000 
     46 H46         3.9188   54.6479   20.7767 H         1 UNK         0.0000 
     47 H47         4.2187   51.6500   21.5012 H         1 UNK         0.0000 
     48 H48         4.1591   52.4279   19.8827 H         1 UNK         0.0000 
     49 H49         3.0073   53.7352   25.3439 H         1 UNK         0.0000 
     50 H50         4.4088   53.8731   27.2939 H         1 UNK         0.0000 
     51 H51         7.7388   55.0205   24.8517 H         1 UNK         0.0000 
     52 H52         6.3556   54.8927   22.8761 H         1 UNK         0.0000 
     53 H53         7.6570   53.6978   29.0724 H         1 UNK         0.0000 
     54 H54         5.9389   54.0783   28.9528 H         1 UNK         0.0000 
     55 H55         6.6096   52.6627   28.0852 H         1 UNK         0.0000 
     56 H56         2.9500   48.9175   17.9270 H         1 UNK         0.0000 
     57 H57        -0.1798   45.6248   18.7925 H         1 UNK         0.0000 
     58 H58         0.2596   43.5802   17.4783 H         1 UNK         0.0000 
     59 H59         2.7939   45.8240   14.8351 H         1 UNK         0.0000 
     60 H60         2.3078   47.8766   16.1093 H         1 UNK         0.0000 
     61 N61         2.2785   52.3890   20.9104 N.4       1 UNK         0.0000 
     62 H62         1.9415   53.1195   20.2939 H         1 UNK         0.0000 
@<TRIPOS>BOND
     1    1    2 1    
     2    1   35 1    
     3    1   36 1    
     4    1   37 1    
     5    2    3 1    
     6    2    4 1    
     7    2   24 1    
     8    4    5 1    
     9    4    6 1    
    10    4   61 1    
    11    6   10 1    
    12    6    7 2    
    13    7    8 1    
    14    7   38 1    
    15    8    9 2    
    16    8   39 1    
    17    9   10 1    
    18    9   40 1    
    19   11   12 1    
    20   11   41 1    
    21   11   42 1    
    22   11   61 1    
    23   12   13 1    
    24   12   43 1    
    25   12   44 1    
    26   13   14 1    
    27   13   16 1    
    28   14   15 1    
    29   14   45 1    
    30   14   46 1    
    31   15   47 1    
    32   15   48 1    
    33   15   61 1    
    34   16   21 ar   
    35   16   17 ar   
    36   17   18 ar   
    37   17   49 1    
    38   18   19 ar   
    39   18   50 1    
    40   19   20 ar   
    41   19   22 1    
    42   20   21 ar   
    43   20   51 1    
    44   21   52 1    
    45   22   23 1    
    46   23   53 1    
    47   23   54 1    
    48   23   55 1    
    49   24   25 1    
    50   24   56 1    
    51   25   26 2    
    52   25   27 2    
    53   25   28 1    
    54   28   33 ar   
    55   28   29 ar   
    56   29   30 ar   
    57   29   57 1    
    58   30   31 ar   
    59   30   58 1    
    60   31   32 ar   
    61   31   34 1    
    62   32   33 ar   
    63   32   59 1    
    64   33   60 1    
    65   61   62 1    
@<TRIPOS>SUBSTRUCTURE
     1 UNK         1 GROUP             0       ****    0 ROOT    
