@<TRIPOS>MOLECULE
ZINC39638958_375
65   68    1
SMALL
USER_CHARGES


@<TRIPOS>ATOM
      1 C1          5.1310   53.2961   27.5901 C.3       1 UNK         0.0000 
      2 C2          3.8051   53.6268   26.8803 C.3       1 UNK         0.0000 
      3 N3          2.7975   54.0758   27.8388 N.pl3     1 UNK         0.0000 
      4 C4          1.7410   53.4009   28.4062 C.ar      1 UNK         0.0000 
      5 C5          1.2622   54.2566   29.3895 C.ar      1 UNK         0.0000 
      6 C6          1.9838   55.4344   29.2512 C.ar      1 UNK         0.0000 
      7 N7          2.9378   55.2966   28.3642 N.2       1 UNK         0.0000 
      8 C8          1.7839   56.7362   29.9774 C.3       1 UNK         0.0000 
      9 Br9        -0.0955   53.9177   30.6760 Br        1 UNK         0.0000 
     10 C10         1.2439   52.0921   28.1182 C.2       1 UNK         0.0000 
     11 O11         1.2005   51.2967   29.0495 O.2       1 UNK         0.0000 
     12 N12         0.6964   51.8395   26.9006 N.am      1 UNK         0.0000 
     13 C13         0.8404   52.6091   25.6606 C.3       1 UNK         0.0000 
     14 C14        -0.4652   52.2693   24.9038 C.3       1 UNK         0.0000 
     15 H15        -1.1996   53.0035   25.2384 H         1 UNK         0.0000 
     16 C16        -0.8443   50.8304   25.3367 C.3       1 UNK         0.0000 
     17 C17        -0.3977   50.8680   26.8150 C.3       1 UNK         0.0000 
     18 C18        -2.3439   50.5261   25.1035 C.3       1 UNK         0.0000 
     19 C19        -2.7592   49.2291   25.8091 C.3       1 UNK         0.0000 
     20 N20        -1.8918   48.0587   25.2818 N.4       1 UNK         0.0000 
     21 C21        -0.3657   48.3126   25.2089 C.3       1 UNK         0.0000 
     22 C22        -0.0931   49.6949   24.5747 C.3       1 UNK         0.0000 
     23 C23        -0.3550   52.4396   23.3688 C.2       1 UNK         0.0000 
     24 O24        -1.4036   52.4967   22.7258 O.2       1 UNK         0.0000 
     25 N25         0.8510   52.4982   22.7736 N.am      1 UNK         0.0000 
     26 C26         1.0464   52.5894   21.3248 C.3       1 UNK         0.0000 
     27 C27         0.8676   51.2506   20.5845 C.3       1 UNK         0.0000 
     28 C28         0.7974   51.4312   19.0745 C.ar      1 UNK         0.0000 
     29 C29         1.9043   51.1164   18.2785 C.ar      1 UNK         0.0000 
     30 C30         1.8483   51.2963   16.8967 C.ar      1 UNK         0.0000 
     31 C31         0.6881   51.7892   16.3001 C.ar      1 UNK         0.0000 
     32 C32        -0.4191   52.1024   17.0881 C.ar      1 UNK         0.0000 
     33 C33        -0.3688   51.9220   18.4702 C.ar      1 UNK         0.0000 
     34 F34        -1.4562   52.2270   19.2175 F         1 UNK         0.0000 
     35 H35         5.8778   52.9502   26.8748 H         1 UNK         0.0000 
     36 H36         5.5464   54.1657   28.1022 H         1 UNK         0.0000 
     37 H37         4.9988   52.5033   28.3277 H         1 UNK         0.0000 
     38 H38         3.4332   52.7543   26.3534 H         1 UNK         0.0000 
     39 H39         3.9455   54.4083   26.1309 H         1 UNK         0.0000 
     40 H40         1.3572   56.6023   30.9721 H         1 UNK         0.0000 
     41 H41         2.7043   57.2942   30.0962 H         1 UNK         0.0000 
     42 H42         1.1046   57.3699   29.4159 H         1 UNK         0.0000 
     43 H43         1.6742   52.1517   25.1292 H         1 UNK         0.0000 
     44 H44         0.9515   53.6864   25.7882 H         1 UNK         0.0000 
     45 H45        -1.2211   51.3024   27.3855 H         1 UNK         0.0000 
     46 H46        -0.2173   49.9091   27.2908 H         1 UNK         0.0000 
     47 H47        -2.9401   51.3238   25.5491 H         1 UNK         0.0000 
     48 H48        -2.6090   50.5222   24.0450 H         1 UNK         0.0000 
     49 H49        -2.6047   49.2950   26.8818 H         1 UNK         0.0000 
     50 H50        -3.7993   48.9573   25.6225 H         1 UNK         0.0000 
     51 H51        -2.0466   47.2638   25.8887 H         1 UNK         0.0000 
     52 H52        -0.0061   48.2165   26.2306 H         1 UNK         0.0000 
     53 H53         0.0655   47.4958   24.6294 H         1 UNK         0.0000 
     54 H54        -0.3267   49.6868   23.5088 H         1 UNK         0.0000 
     55 H55         0.9836   49.8636   24.6330 H         1 UNK         0.0000 
     56 H56         1.6849   52.4656   23.3383 H         1 UNK         0.0000 
     57 H57         2.0052   53.0430   21.0695 H         1 UNK         0.0000 
     58 H58         0.3236   53.2966   20.9135 H         1 UNK         0.0000 
     59 H59        -0.0490   50.7540   20.9064 H         1 UNK         0.0000 
     60 H60         1.6764   50.5685   20.8518 H         1 UNK         0.0000 
     61 H61         2.8162   50.7333   18.7164 H         1 UNK         0.0000 
     62 H62         2.7059   51.0387   16.2913 H         1 UNK         0.0000 
     63 H63         0.6482   51.9242   15.2288 H         1 UNK         0.0000 
     64 H64        -1.3201   52.4818   16.6298 H         1 UNK         0.0000 
     65 H65        -2.2204   47.8080   24.3601 H         1 UNK         0.0000 
@<TRIPOS>BOND
     1    1    2 1    
     2    1   35 1    
     3    1   36 1    
     4    1   37 1    
     5    2    3 1    
     6    2   38 1    
     7    2   39 1    
     8    3    7 ar   
     9    3    4 ar   
    10    4    5 ar   
    11    4   10 1    
    12    5    6 ar   
    13    5    9 1    
    14    6    7 ar   
    15    6    8 1    
    16    8   40 1    
    17    8   41 1    
    18    8   42 1    
    19   10   11 2    
    20   10   12 am   BACKBONE|DICT|INTERRES
    21   12   17 1    
    22   12   13 1    
    23   13   14 1    
    24   13   43 1    
    25   13   44 1    
    26   14   15 1    
    27   14   16 1    
    28   14   23 1    
    29   16   22 1    
    30   16   17 1    
    31   16   18 1    
    32   17   45 1    
    33   17   46 1    
    34   18   19 1    
    35   18   47 1    
    36   18   48 1    
    37   19   20 1    
    38   19   49 1    
    39   19   50 1    
    40   20   21 1    
    41   20   51 1    
    42   20   65 1    
    43   21   22 1    
    44   21   52 1    
    45   21   53 1    
    46   22   54 1    
    47   22   55 1    
    48   23   24 2    
    49   23   25 am   BACKBONE|DICT|INTERRES
    50   25   26 1    
    51   25   56 1    
    52   26   27 1    
    53   26   57 1    
    54   26   58 1    
    55   27   28 1    
    56   27   59 1    
    57   27   60 1    
    58   28   33 ar   
    59   28   29 ar   
    60   29   30 ar   
    61   29   61 1    
    62   30   31 ar   
    63   30   62 1    
    64   31   32 ar   
    65   31   63 1    
    66   32   33 ar   
    67   32   64 1    
    68   33   34 1    
@<TRIPOS>SUBSTRUCTURE
     1 UNK         1 GROUP             0       ****    0 ROOT    
