@<TRIPOS>MOLECULE
ZINC10505479_2342
50   52    1
SMALL
USER_CHARGES


@<TRIPOS>ATOM
      1 C1          3.6135   54.4967   27.1318 C.3       1 UNK         0.0000 
      2 C2          2.2862   53.8161   27.5187 C.3       1 UNK         0.0000 
      3 H3          1.5408   54.6151   27.5508 H         1 UNK         0.0000 
      4 C4          2.3143   53.1662   28.9130 C.ar      1 UNK         0.0000 
      5 C5          1.1507   53.1747   29.6930 C.ar      1 UNK         0.0000 
      6 C6          1.1526   52.6254   30.9707 C.ar      1 UNK         0.0000 
      7 C7          2.3324   52.0967   31.4849 C.ar      1 UNK         0.0000 
      8 C8          3.5045   52.0979   30.7335 C.ar      1 UNK         0.0000 
      9 C9          3.4941   52.6272   29.4468 C.ar      1 UNK         0.0000 
     10 N10         1.9039   52.8954   26.4467 N.am      1 UNK         0.0000 
     11 C11         0.7092   52.2959   26.2704 C.2       1 UNK         0.0000 
     12 O12        -0.2375   52.4967   27.0293 O.2       1 UNK         0.0000 
     13 C13         0.6090   51.3290   25.0969 C.ar      1 UNK         0.0000 
     14 C14         1.5044   51.4469   24.0150 C.ar      1 UNK         0.0000 
     15 C15         1.4827   50.5493   22.9497 C.ar      1 UNK         0.0000 
     16 C16         0.5566   49.5129   22.9316 C.ar      1 UNK         0.0000 
     17 C17        -0.3634   49.3870   23.9677 C.ar      1 UNK         0.0000 
     18 C18        -0.3662   50.2984   25.0297 C.ar      1 UNK         0.0000 
     19 N19        -1.3897   50.1469   25.9847 N.pl3     1 UNK         0.0000 
     20 C20        -2.6333   50.7203   25.9714 C.2       1 UNK         0.0000 
     21 S21        -3.2177   51.6109   24.6547 S.2       1 UNK         0.0000 
     22 N22        -3.2843   50.4979   27.1596 N.am      1 UNK         0.0000 
     23 C23        -4.3958   51.0678   27.6989 C.2       1 UNK         0.0000 
     24 O24        -4.9819   52.0550   27.2438 O.2       1 UNK         0.0000 
     25 C25        -4.8916   50.4605   28.9886 C.ar      1 UNK         0.0000 
     26 C26        -4.6791   49.1077   29.2977 C.ar      1 UNK         0.0000 
     27 C27        -5.1777   48.5671   30.4820 C.ar      1 UNK         0.0000 
     28 C28        -5.8663   49.3729   31.3878 C.ar      1 UNK         0.0000 
     29 C29        -6.0785   50.7187   31.0976 C.ar      1 UNK         0.0000 
     30 C30        -5.6105   51.2522   29.8977 C.ar      1 UNK         0.0000 
     31 Cl31       -6.9187   51.7279   32.2175 Cl        1 UNK         0.0000 
     32 Cl32       -4.9386   46.8967   30.8282 Cl        1 UNK         0.0000 
     33 H33         3.9435   55.1877   27.9084 H         1 UNK         0.0000 
     34 H34         4.4141   53.7758   26.9624 H         1 UNK         0.0000 
     35 H35         3.5047   55.0724   26.2118 H         1 UNK         0.0000 
     36 H36         0.2347   53.5969   29.3059 H         1 UNK         0.0000 
     37 H37         0.2481   52.6139   31.5643 H         1 UNK         0.0000 
     38 H38         2.3345   51.6813   32.4816 H         1 UNK         0.0000 
     39 H39         4.4180   51.6961   31.1471 H         1 UNK         0.0000 
     40 H40         4.4097   52.6118   28.8749 H         1 UNK         0.0000 
     41 H41         2.6445   52.6388   25.8143 H         1 UNK         0.0000 
     42 H42         2.2439   52.2338   23.9822 H         1 UNK         0.0000 
     43 H43         2.1873   50.6558   22.1376 H         1 UNK         0.0000 
     44 H44         0.5412   48.8195   22.1047 H         1 UNK         0.0000 
     45 H45        -1.0975   48.5952   23.9305 H         1 UNK         0.0000 
     46 H46        -1.1562   49.5717   26.7875 H         1 UNK         0.0000 
     47 H47        -2.8751   49.7609   27.7217 H         1 UNK         0.0000 
     48 H48        -4.1309   48.4577   28.6289 H         1 UNK         0.0000 
     49 H49        -6.2332   48.9551   32.3138 H         1 UNK         0.0000 
     50 H50        -5.8037   52.2926   29.6798 H         1 UNK         0.0000 
@<TRIPOS>BOND
     1    1    2 1    
     2    1   33 1    
     3    1   34 1    
     4    1   35 1    
     5    2    3 1    
     6    2    4 1    
     7    2   10 1    
     8    4    9 ar   
     9    4    5 ar   
    10    5    6 ar   
    11    5   36 1    
    12    6    7 ar   
    13    6   37 1    
    14    7    8 ar   
    15    7   38 1    
    16    8    9 ar   
    17    8   39 1    
    18    9   40 1    
    19   10   11 am   BACKBONE|DICT|INTERRES
    20   10   41 1    
    21   11   12 2    
    22   11   13 1    
    23   13   18 ar   
    24   13   14 ar   
    25   14   15 ar   
    26   14   42 1    
    27   15   16 ar   
    28   15   43 1    
    29   16   17 ar   
    30   16   44 1    
    31   17   18 ar   
    32   17   45 1    
    33   18   19 1    
    34   19   20 1    
    35   19   46 1    
    36   20   21 2    
    37   20   22 am   BACKBONE|DICT|INTERRES
    38   22   23 am   BACKBONE|DICT|INTERRES
    39   22   47 1    
    40   23   24 2    
    41   23   25 1    
    42   25   30 ar   
    43   25   26 ar   
    44   26   27 ar   
    45   26   48 1    
    46   27   28 ar   
    47   27   32 1    
    48   28   29 ar   
    49   28   49 1    
    50   29   30 ar   
    51   29   31 1    
    52   30   50 1    
@<TRIPOS>SUBSTRUCTURE
     1 UNK         1 GROUP             0       ****    0 ROOT    
