@<TRIPOS>MOLECULE
ZINC38556198_2509
47   50    1
SMALL
USER_CHARGES


@<TRIPOS>ATOM
      1 C1          0.7038   54.6366   30.8819 C.ar      1 UNK         0.0000 
      2 C2          1.1589   55.1961   29.6942 C.ar      1 UNK         0.0000 
      3 C3          1.1042   54.4473   28.5233 C.ar      1 UNK         0.0000 
      4 C4          0.5888   53.1413   28.5284 C.ar      1 UNK         0.0000 
      5 C5          0.1551   52.5902   29.7413 C.ar      1 UNK         0.0000 
      6 C6          0.2302   53.3292   30.9175 C.ar      1 UNK         0.0000 
      7 C7          0.4937   52.3562   27.2726 C.2       1 UNK         0.0000 
      8 C8         -0.2343   51.2558   27.0436 C.2       1 UNK         0.0000 
      9 C9          0.1686   50.8470   25.6592 C.3       1 UNK         0.0000 
     10 H10         0.7046   49.8988   25.7219 H         1 UNK         0.0000 
     11 N11         1.1044   51.8717   25.2765 N.2       1 UNK         0.0000 
     12 N12         1.2633   52.7002   26.2161 N.2       1 UNK         0.0000 
     13 C13        -0.9929   50.6932   24.6240 C.3       1 UNK         0.0000 
     14 H14        -1.6959   49.9540   25.0116 H         1 UNK         0.0000 
     15 N15        -1.7038   51.9483   24.3763 N.3       1 UNK         0.0000 
     16 N16        -1.7065   52.1373   22.9312 N.3       1 UNK         0.0000 
     17 C17        -0.5060   51.4582   22.5087 C.3       1 UNK         0.0000 
     18 H18         0.3613   52.0448   22.8179 H         1 UNK         0.0000 
     19 N19        -0.5820   50.2494   23.2948 N.3       1 UNK         0.0000 
     20 N20         0.4983   49.2970   23.1757 N.3       1 UNK         0.0000 
     21 S21        -0.3450   51.2183   20.7139 S.3       1 UNK         0.0000 
     22 C22         1.0225   52.3726   20.3463 C.3       1 UNK         0.0000 
     23 C23         2.4015   51.8536   20.7949 C.2       1 UNK         0.0000 
     24 O24         2.5474   50.7753   21.3738 O.2       1 UNK         0.0000 
     25 C25         3.5242   52.7983   20.5614 C.ar      1 UNK         0.0000 
     26 C26         4.1120   52.8393   19.2910 C.ar      1 UNK         0.0000 
     27 C27         5.1766   53.6999   19.0287 C.ar      1 UNK         0.0000 
     28 C28         5.6659   54.5290   20.0346 C.ar      1 UNK         0.0000 
     29 C29         5.0888   54.4959   21.3026 C.ar      1 UNK         0.0000 
     30 C30         4.0120   53.6477   21.5711 C.ar      1 UNK         0.0000 
     31 Br31        3.2442   53.7033   23.3178 Br        1 UNK         0.0000 
     32 H32         0.7114   55.2204   31.7909 H         1 UNK         0.0000 
     33 H33         1.5359   56.2088   29.6771 H         1 UNK         0.0000 
     34 H34         1.4513   54.8970   27.6053 H         1 UNK         0.0000 
     35 H35        -0.2382   51.5840   29.7834 H         1 UNK         0.0000 
     36 H36        -0.0983   52.8963   31.8523 H         1 UNK         0.0000 
     37 H37        -0.9190   50.7132   27.6817 H         1 UNK         0.0000 
     38 H38        -2.6724   51.9092   24.6591 H         1 UNK         0.0000 
     39 H39        -2.4222   51.5027   22.6057 H         1 UNK         0.0000 
     40 H40         0.4444   48.9042   22.2464 H         1 UNK         0.0000 
     41 H41         1.3669   49.8113   23.2570 H         1 UNK         0.0000 
     42 H42         0.8266   53.2972   20.8775 H         1 UNK         0.0000 
     43 H43         1.0458   52.6017   19.2813 H         1 UNK         0.0000 
     44 H44         3.7704   52.1855   18.4983 H         1 UNK         0.0000 
     45 H45         5.6277   53.7122   18.0470 H         1 UNK         0.0000 
     46 H46         6.4951   55.1908   19.8329 H         1 UNK         0.0000 
     47 H47         5.4734   55.1394   22.0792 H         1 UNK         0.0000 
@<TRIPOS>BOND
     1    1    6 ar   
     2    1    2 ar   
     3    1   32 1    
     4    2    3 ar   
     5    2   33 1    
     6    3    4 ar   
     7    3   34 1    
     8    4    5 ar   
     9    4    7 1    
    10    5    6 ar   
    11    5   35 1    
    12    6   36 1    
    13    7   12 1    
    14    7    8 2    
    15    8    9 1    
    16    8   37 1    
    17    9   10 1    
    18    9   11 1    
    19    9   13 1    
    20   11   12 2    
    21   13   14 1    
    22   13   19 1    
    23   13   15 1    
    24   15   16 1    
    25   15   38 1    
    26   16   17 1    
    27   16   39 1    
    28   17   18 1    
    29   17   19 1    
    30   17   21 1    
    31   19   20 1    
    32   20   40 1    
    33   20   41 1    
    34   21   22 1    
    35   22   23 1    
    36   22   42 1    
    37   22   43 1    
    38   23   24 2    
    39   23   25 1    
    40   25   30 ar   
    41   25   26 ar   
    42   26   27 ar   
    43   26   44 1    
    44   27   28 ar   
    45   27   45 1    
    46   28   29 ar   
    47   28   46 1    
    48   29   30 ar   
    49   29   47 1    
    50   30   31 1    
@<TRIPOS>SUBSTRUCTURE
     1 UNK         1 GROUP             0       ****    0 ROOT    
