@<TRIPOS>MOLECULE
ZINC08897694_5378
67   70    1
SMALL
USER_CHARGES


@<TRIPOS>ATOM
      1 C1         -4.5473   47.0648   28.3536 C.3       1 UNK         0.0000 
      2 C2         -4.0965   47.3383   26.9321 C.ar      1 UNK         0.0000 
      3 C3         -4.1534   48.6342   26.4190 C.ar      1 UNK         0.0000 
      4 C4         -3.7023   48.8922   25.1278 C.ar      1 UNK         0.0000 
      5 C5         -3.1793   47.8536   24.3422 C.ar      1 UNK         0.0000 
      6 C6         -3.1650   46.5484   24.8506 C.ar      1 UNK         0.0000 
      7 C7         -3.6136   46.2921   26.1433 C.ar      1 UNK         0.0000 
      8 C8         -2.6705   48.1130   22.9410 C.2       1 UNK         0.0000 
      9 O9         -3.0266   47.3451   22.0420 O.2       1 UNK         0.0000 
     10 N10        -1.8562   49.1843   22.7117 N.am      1 UNK         0.0000 
     11 C11        -1.0560   49.8251   23.7749 C.3       1 UNK         0.0000 
     12 C12         0.4339   49.4778   23.5485 C.3       1 UNK         0.0000 
     13 N13         0.9259   49.7192   22.1860 N.pl3     1 UNK         0.0000 
     14 C14         0.0527   49.1511   21.1541 C.3       1 UNK         0.0000 
     15 C15        -1.4396   49.5071   21.3340 C.3       1 UNK         0.0000 
     16 C16         1.8166   50.7364   21.8893 C.ar      1 UNK         0.0000 
     17 C17         2.8521   50.4998   20.9799 C.ar      1 UNK         0.0000 
     18 C18         3.8055   51.4804   20.7295 C.ar      1 UNK         0.0000 
     19 C19         3.7032   52.7231   21.3504 C.ar      1 UNK         0.0000 
     20 C20         2.6174   53.0015   22.1905 C.ar      1 UNK         0.0000 
     21 C21         1.6905   52.0026   22.4732 C.ar      1 UNK         0.0000 
     22 N22         4.7355   53.6521   21.1320 N.pl3     1 UNK         0.0000 
     23 C23         5.4794   54.3231   22.0621 C.2       1 UNK         0.0000 
     24 S24         6.7044   55.3001   21.4998 S.2       1 UNK         0.0000 
     25 N25         5.1197   54.0964   23.3625 N.am      1 UNK         0.0000 
     26 C26         5.5056   54.5888   24.5601 C.2       1 UNK         0.0000 
     27 O27         6.4261   55.3774   24.7835 O.2       1 UNK         0.0000 
     28 C28         4.6336   54.0628   25.5803 C.2       1 UNK         0.0000 
     29 C29         4.6791   54.4159   26.8792 C.2       1 UNK         0.0000 
     30 C30         3.7392   53.8760   27.8783 C.ar      1 UNK         0.0000 
     31 C31         4.1821   53.6760   29.1842 C.ar      1 UNK         0.0000 
     32 C32         3.3493   53.0709   30.1213 C.ar      1 UNK         0.0000 
     33 C33         2.0445   52.6922   29.7702 C.ar      1 UNK         0.0000 
     34 C34         1.5998   52.9087   28.4689 C.ar      1 UNK         0.0000 
     35 C35         2.4373   53.4965   27.5266 C.ar      1 UNK         0.0000 
     36 O36         1.1407   52.0978   30.6263 O.3       1 UNK         0.0000 
     37 C37         1.4703   51.9323   32.0009 C.3       1 UNK         0.0000 
     38 H38        -5.0632   46.1071   28.4155 H         1 UNK         0.0000 
     39 H39        -3.6882   47.0407   29.0270 H         1 UNK         0.0000 
     40 H40        -5.2463   47.8255   28.7043 H         1 UNK         0.0000 
     41 H41        -4.5286   49.4448   27.0269 H         1 UNK         0.0000 
     42 H42        -3.7518   49.9038   24.7469 H         1 UNK         0.0000 
     43 H43        -2.7830   45.7403   24.2449 H         1 UNK         0.0000 
     44 H44        -3.5676   45.2921   26.5477 H         1 UNK         0.0000 
     45 H45        -1.3212   49.5206   24.7859 H         1 UNK         0.0000 
     46 H46        -1.1855   50.9059   23.7085 H         1 UNK         0.0000 
     47 H47         0.5930   48.4162   23.7367 H         1 UNK         0.0000 
     48 H48         1.0444   50.0177   24.2728 H         1 UNK         0.0000 
     49 H49         0.3777   49.4739   20.1630 H         1 UNK         0.0000 
     50 H50         0.1765   48.0709   21.1939 H         1 UNK         0.0000 
     51 H51        -1.5604   50.5795   21.1781 H         1 UNK         0.0000 
     52 H52        -2.0487   49.0144   20.5736 H         1 UNK         0.0000 
     53 H53         2.9466   49.5315   20.5087 H         1 UNK         0.0000 
     54 H54         4.6404   51.2625   20.0808 H         1 UNK         0.0000 
     55 H55         2.5031   53.9774   22.6439 H         1 UNK         0.0000 
     56 H56         0.8731   52.2134   23.1467 H         1 UNK         0.0000 
     57 H57         5.0265   53.7583   20.1722 H         1 UNK         0.0000 
     58 H58         4.3888   53.4053   23.4475 H         1 UNK         0.0000 
     59 H59         3.8967   53.3362   25.2641 H         1 UNK         0.0000 
     60 H60         5.4094   55.1337   27.2312 H         1 UNK         0.0000 
     61 H61         5.1832   53.9671   29.4624 H         1 UNK         0.0000 
     62 H62         3.7368   52.8970   31.1137 H         1 UNK         0.0000 
     63 H63         0.6000   52.6117   28.1909 H         1 UNK         0.0000 
     64 H64         2.0614   53.6438   26.5229 H         1 UNK         0.0000 
     65 H65         0.6959   51.3486   32.4947 H         1 UNK         0.0000 
     66 H66         1.5046   52.8971   32.4901 H         1 UNK         0.0000 
     67 H67         2.4158   51.4100   32.1519 H         1 UNK         0.0000 
@<TRIPOS>BOND
     1    1    2 1    
     2    1   38 1    
     3    1   39 1    
     4    1   40 1    
     5    2    7 ar   
     6    2    3 ar   
     7    3    4 ar   
     8    3   41 1    
     9    4    5 ar   
    10    4   42 1    
    11    5    6 ar   
    12    5    8 1    
    13    6    7 ar   
    14    6   43 1    
    15    7   44 1    
    16    8    9 2    
    17    8   10 am   BACKBONE|DICT|INTERRES
    18   10   15 1    
    19   10   11 1    
    20   11   12 1    
    21   11   45 1    
    22   11   46 1    
    23   12   13 1    
    24   12   47 1    
    25   12   48 1    
    26   13   14 1    
    27   13   16 1    
    28   14   15 1    
    29   14   49 1    
    30   14   50 1    
    31   15   51 1    
    32   15   52 1    
    33   16   21 ar   
    34   16   17 ar   
    35   17   18 ar   
    36   17   53 1    
    37   18   19 ar   
    38   18   54 1    
    39   19   20 ar   
    40   19   22 1    
    41   20   21 ar   
    42   20   55 1    
    43   21   56 1    
    44   22   23 1    
    45   22   57 1    
    46   23   24 2    
    47   23   25 am   BACKBONE|DICT|INTERRES
    48   25   26 am   BACKBONE|DICT|INTERRES
    49   25   58 1    
    50   26   27 2    
    51   26   28 1    
    52   28   29 2    
    53   28   59 1    
    54   29   30 1    
    55   29   60 1    
    56   30   35 ar   
    57   30   31 ar   
    58   31   32 ar   
    59   31   61 1    
    60   32   33 ar   
    61   32   62 1    
    62   33   34 ar   
    63   33   36 1    
    64   34   35 ar   
    65   34   63 1    
    66   35   64 1    
    67   36   37 1    
    68   37   65 1    
    69   37   66 1    
    70   37   67 1    
@<TRIPOS>SUBSTRUCTURE
     1 UNK         1 GROUP             0       ****    0 ROOT    
