ZINC33019106_4544
                    3D
 Schrodinger Suite 2024-2.
 57 60  0  0  1  0            999 V2000
   -0.1522   52.3591   30.8899 C   0  0  0  0  0  0
    0.3904   52.6023   29.5009 C   0  0  0  0  0  0
    0.1127   51.6950   28.4796 C   0  0  0  0  0  0
    0.6326   51.9013   27.2059 C   0  0  0  0  0  0
    1.4226   53.0243   26.9479 C   0  0  0  0  0  0
    1.6639   53.9556   27.9704 C   0  0  0  0  0  0
    1.1522   53.7398   29.2449 C   0  0  0  0  0  0
    1.9132   53.1471   25.6368 N   0  0  0  0  0  0
    2.9831   53.8476   25.2173 C   0  0  0  0  0  0
    3.6812   54.5554   25.9446 O   0  0  0  0  0  0
    3.2098   53.6424   23.9018 N   0  0  0  0  0  0
    4.3218   54.0627   23.1460 C   0  0  0  0  0  0
    5.5525   54.4042   23.7305 C   0  0  0  0  0  0
    6.5997   54.9196   22.9765 C   0  0  0  0  0  0
    6.4185   55.0801   21.6010 C   0  0  0  0  0  0
    5.2177   54.6409   20.9923 C   0  0  0  0  0  0
    4.1644   54.1159   21.7550 C   0  0  0  0  0  0
    5.3422   54.9181   19.2632 S   0  0  0  0  0  0
    6.9086   55.6694   19.5358 C   0  0  0  0  0  0
    7.3230   55.6516   20.7686 N   0  0  0  0  0  0
    7.8795   56.4263   18.2698 S   0  0  0  0  0  0
    6.8812   56.1844   16.7494 C   0  0  0  0  0  0
    7.1586   54.9109   15.9368 C   0  0  0  0  0  0
    6.5129   54.7415   14.9027 O   0  0  0  0  0  0
    8.0872   54.0545   16.4097 N   0  0  0  0  0  0
    8.5961   52.8702   15.8488 C   0  0  0  0  0  0
    9.4175   52.1010   16.6742 C   0  0  0  0  0  0
   10.0006   50.9269   16.2032 C   0  0  0  0  0  0
    9.7848   50.5089   14.8859 C   0  0  0  0  0  0
    8.9640   51.2749   14.0429 C   0  0  0  0  0  0
    8.3716   52.4468   14.5284 C   0  0  0  0  0  0
    8.7138   50.8636   12.5992 C   0  0  0  0  0  0
   10.4666   49.2445   14.3894 C   0  0  0  0  0  0
   -1.0025   51.6760   30.8798 H   0  0  0  0  0  0
    0.6228   51.9481   31.5391 H   0  0  0  0  0  0
   -0.4969   53.2914   31.3404 H   0  0  0  0  0  0
   -0.4958   50.8214   28.6684 H   0  0  0  0  0  0
    0.4294   51.1727   26.4315 H   0  0  0  0  0  0
    2.2333   54.8568   27.7990 H   0  0  0  0  0  0
    1.3503   54.4547   30.0325 H   0  0  0  0  0  0
    1.4658   52.5488   24.9593 H   0  0  0  0  0  0
    2.4843   53.1759   23.3806 H   0  0  0  0  0  0
    5.7147   54.3038   24.7934 H   0  0  0  0  0  0
    7.5048   55.2378   23.4593 H   0  0  0  0  0  0
    3.2335   53.8294   21.2846 H   0  0  0  0  0  0
    7.1240   57.0170   16.0884 H   0  0  0  0  0  0
    5.8158   56.2812   16.9467 H   0  0  0  0  0  0
    8.4822   54.2975   17.3074 H   0  0  0  0  0  0
    9.6183   52.4099   17.6889 H   0  0  0  0  0  0
   10.6322   50.3555   16.8649 H   0  0  0  0  0  0
    7.7594   53.0244   13.8579 H   0  0  0  0  0  0
    8.0730   51.5749   12.0722 H   0  0  0  0  0  0
    8.2385   49.8825   12.5638 H   0  0  0  0  0  0
    9.6575   50.7949   12.0566 H   0  0  0  0  0  0
   11.1443   48.8214   15.1321 H   0  0  0  0  0  0
    9.7210   48.4957   14.1190 H   0  0  0  0  0  0
   11.0540   49.4579   13.4958 H   0  0  0  0  0  0
  1  2  1  0  0  0
  1 34  1  0  0  0
  1 35  1  0  0  0
  1 36  1  0  0  0
  2  7  2  0  0  0
  2  3  1  0  0  0
  3  4  2  0  0  0
  3 37  1  0  0  0
  4  5  1  0  0  0
  4 38  1  0  0  0
  5  6  2  0  0  0
  5  8  1  0  0  0
  6  7  1  0  0  0
  6 39  1  0  0  0
  7 40  1  0  0  0
  8  9  1  0  0  0
  8 41  1  0  0  0
  9 10  2  0  0  0
  9 11  1  0  0  0
 11 12  1  0  0  0
 11 42  1  0  0  0
 12 17  2  0  0  0
 12 13  1  0  0  0
 13 14  2  0  0  0
 13 43  1  0  0  0
 14 15  1  0  0  0
 14 44  1  0  0  0
 15 20  1  0  0  0
 15 16  2  0  0  0
 16 17  1  0  0  0
 16 18  1  0  0  0
 17 45  1  0  0  0
 18 19  1  0  0  0
 19 20  2  0  0  0
 19 21  1  0  0  0
 21 22  1  0  0  0
 22 23  1  0  0  0
 22 46  1  0  0  0
 22 47  1  0  0  0
 23 24  2  0  0  0
 23 25  1  0  0  0
 25 26  1  0  0  0
 25 48  1  0  0  0
 26 31  2  0  0  0
 26 27  1  0  0  0
 27 28  2  0  0  0
 27 49  1  0  0  0
 28 29  1  0  0  0
 28 50  1  0  0  0
 29 30  2  0  0  0
 29 33  1  0  0  0
 30 31  1  0  0  0
 30 32  1  0  0  0
 31 51  1  0  0  0
 32 52  1  0  0  0
 32 53  1  0  0  0
 32 54  1  0  0  0
 33 55  1  0  0  0
 33 56  1  0  0  0
 33 57  1  0  0  0
M  END
> <i_i_glide_confnum>
254

> <i_i_glide_lignum>
4545

> <i_i_glide_posenum>
333

> <i_i_glide_rotatable_bonds>
9

> <i_m_Source_File_Index>
965

> <b_m_subgroup_collapsed>
0

> <r_i_docking_score>
-4.91238

> <r_i_glide_ecoul>
-4.30329

> <r_i_glide_eff_state_penalty>
0

> <r_i_glide_einternal>
8.15897

> <r_i_glide_emodel>
-63.7668

> <r_i_glide_energy>
-49.1742

> <r_i_glide_erotb>
0.802332

> <r_i_glide_esite>
0

> <r_i_glide_evdw>
-44.8709

> <r_i_glide_gscore>
-4.91238

> <r_i_glide_hbond>
0

> <r_i_glide_ligand_efficiency>
-0.14886

> <r_i_glide_ligand_efficiency_ln>
-1.09249

> <r_i_glide_ligand_efficiency_sa>
-0.477473

> <r_i_glide_lipo>
-2.35028

> <r_i_glide_metal>
0

> <r_i_glide_rewards>
-0.475388

> <s_i_glide_gridfile>
wee1_glide-grid

> <s_m_Source_File>
wee1_decoys_glide_SP.sdf

> <s_m_Source_Path>
/Users/zhangxujun/Desktop

> <s_m_entry_id>
1240

> <s_m_entry_name>
wee1_decoys_glide_SP.965

> <s_m_subgroup_title>
wee1_decoys_glide_SP

> <s_m_subgroupid>
wee1_decoys_glide_SP


$$$$
