@<TRIPOS>MOLECULE
ZINC38556197_2508
47   50    1
SMALL
USER_CHARGES


@<TRIPOS>ATOM
      1 C1          4.0507   52.7287   20.7986 C.ar      1 UNK         0.0000 
      2 C2          3.2143   51.8500   20.1167 C.ar      1 UNK         0.0000 
      3 C3          1.9660   51.5372   20.6439 C.ar      1 UNK         0.0000 
      4 C4          1.5349   52.0970   21.8565 C.ar      1 UNK         0.0000 
      5 C5          2.3918   52.9839   22.5262 C.ar      1 UNK         0.0000 
      6 C6          3.6436   53.2990   22.0017 C.ar      1 UNK         0.0000 
      7 C7          0.2046   51.7505   22.4287 C.2       1 UNK         0.0000 
      8 C8         -0.3491   52.2278   23.5489 C.2       1 UNK         0.0000 
      9 C9         -1.6401   51.4689   23.6663 C.3       1 UNK         0.0000 
     10 H10        -2.4918   52.1446   23.5887 H         1 UNK         0.0000 
     11 N11        -1.6484   50.6537   22.4820 N.2       1 UNK         0.0000 
     12 N12        -0.5851   50.8378   21.8154 N.2       1 UNK         0.0000 
     13 C13        -1.7797   50.5770   24.9485 C.3       1 UNK         0.0000 
     14 H14        -2.6357   49.9153   24.8067 H         1 UNK         0.0000 
     15 N15        -0.5962   49.7495   25.1706 N.3       1 UNK         0.0000 
     16 N16        -0.0968   50.0709   26.4886 N.3       1 UNK         0.0000 
     17 C17        -0.6960   51.3413   26.8232 C.3       1 UNK         0.0000 
     18 H18        -0.1144   52.1377   26.3567 H         1 UNK         0.0000 
     19 N19        -2.0056   51.2788   26.2096 N.3       1 UNK         0.0000 
     20 N20        -2.7555   52.5106   26.1626 N.3       1 UNK         0.0000 
     21 S21        -0.6932   51.6969   28.6051 S.3       1 UNK         0.0000 
     22 C22         1.0888   51.9494   28.9023 C.3       1 UNK         0.0000 
     23 C23         1.5167   53.3705   28.4938 C.2       1 UNK         0.0000 
     24 O24         0.7080   54.3008   28.4811 O.2       1 UNK         0.0000 
     25 C25         2.9150   53.5288   28.0032 C.ar      1 UNK         0.0000 
     26 C26         3.1020   54.0948   26.7338 C.ar      1 UNK         0.0000 
     27 C27         4.3820   54.3423   26.2415 C.ar      1 UNK         0.0000 
     28 C28         5.4943   54.0414   27.0215 C.ar      1 UNK         0.0000 
     29 C29         5.3235   53.4894   28.2893 C.ar      1 UNK         0.0000 
     30 C30         4.0443   53.2310   28.7910 C.ar      1 UNK         0.0000 
     31 Br31        3.9042   52.4978   30.5513 Br        1 UNK         0.0000 
     32 H32         5.0184   52.9710   20.3841 H         1 UNK         0.0000 
     33 H33         3.5250   51.4093   19.1794 H         1 UNK         0.0000 
     34 H34         1.3382   50.8499   20.0961 H         1 UNK         0.0000 
     35 H35         2.0986   53.4345   23.4619 H         1 UNK         0.0000 
     36 H36         4.2941   53.9842   22.5250 H         1 UNK         0.0000 
     37 H37         0.0155   52.9509   24.2610 H         1 UNK         0.0000 
     38 H38        -0.8418   48.7698   25.2235 H         1 UNK         0.0000 
     39 H39        -0.6041   49.4300   27.1057 H         1 UNK         0.0000 
     40 H40        -3.7165   52.2288   26.0275 H         1 UNK         0.0000 
     41 H41        -2.7498   52.8459   27.1158 H         1 UNK         0.0000 
     42 H42         1.6504   51.2081   28.3332 H         1 UNK         0.0000 
     43 H43         1.2940   51.7917   29.9591 H         1 UNK         0.0000 
     44 H44         2.2527   54.3428   26.1133 H         1 UNK         0.0000 
     45 H45         4.5105   54.7697   25.2578 H         1 UNK         0.0000 
     46 H46         6.4884   54.2313   26.6454 H         1 UNK         0.0000 
     47 H47         6.1971   53.2680   28.8817 H         1 UNK         0.0000 
@<TRIPOS>BOND
     1    1    6 ar   
     2    1    2 ar   
     3    1   32 1    
     4    2    3 ar   
     5    2   33 1    
     6    3    4 ar   
     7    3   34 1    
     8    4    5 ar   
     9    4    7 1    
    10    5    6 ar   
    11    5   35 1    
    12    6   36 1    
    13    7   12 1    
    14    7    8 2    
    15    8    9 1    
    16    8   37 1    
    17    9   10 1    
    18    9   11 1    
    19    9   13 1    
    20   11   12 2    
    21   13   14 1    
    22   13   19 1    
    23   13   15 1    
    24   15   16 1    
    25   15   38 1    
    26   16   17 1    
    27   16   39 1    
    28   17   18 1    
    29   17   19 1    
    30   17   21 1    
    31   19   20 1    
    32   20   40 1    
    33   20   41 1    
    34   21   22 1    
    35   22   23 1    
    36   22   42 1    
    37   22   43 1    
    38   23   24 2    
    39   23   25 1    
    40   25   30 ar   
    41   25   26 ar   
    42   26   27 ar   
    43   26   44 1    
    44   27   28 ar   
    45   27   45 1    
    46   28   29 ar   
    47   28   46 1    
    48   29   30 ar   
    49   29   47 1    
    50   30   31 1    
@<TRIPOS>SUBSTRUCTURE
     1 UNK         1 GROUP             0       ****    0 ROOT    
