@<TRIPOS>MOLECULE
ZINC06239275_3276
50   53    1
SMALL
USER_CHARGES


@<TRIPOS>ATOM
      1 C1          5.0046   54.3389   28.6696 C.3       1 UNK         0.0000 
      2 O2          3.7752   53.6253   28.7565 O.3       1 UNK         0.0000 
      3 C3          3.0495   53.3629   27.6064 C.ar      1 UNK         0.0000 
      4 C4          3.4756   53.7204   26.3136 C.ar      1 UNK         0.0000 
      5 C5          2.7082   53.4278   25.1723 C.ar      1 UNK         0.0000 
      6 C6          1.4685   52.8164   25.3600 C.ar      1 UNK         0.0000 
      7 C7          1.0625   52.3791   26.6206 C.ar      1 UNK         0.0000 
      8 C8          1.8389   52.6653   27.7496 C.ar      1 UNK         0.0000 
      9 O9          1.4311   52.1997   28.9807 O.3       1 UNK         0.0000 
     10 C10         0.8743   53.1848   29.8426 C.3       1 UNK         0.0000 
     11 O11        -0.0492   51.5801   26.7170 O.3       1 UNK         0.0000 
     12 C12        -1.2791   52.2731   26.7990 C.3       1 UNK         0.0000 
     13 C13         3.2480   53.6968   23.8150 C.2       1 UNK         0.0000 
     14 N14         4.3244   54.3463   23.6009 N.2       1 UNK         0.0000 
     15 N15         4.6154   54.4289   22.3684 N.2       1 UNK         0.0000 
     16 C16         3.7460   53.8239   21.6974 C.2       1 UNK         0.0000 
     17 C17         2.6022   53.2578   22.4953 C.3       1 UNK         0.0000 
     18 H18         1.7106   53.8508   22.2899 H         1 UNK         0.0000 
     19 C19         2.3924   51.7490   22.0571 C.3       1 UNK         0.0000 
     20 H20         3.1891   51.1425   22.4812 H         1 UNK         0.0000 
     21 C21         2.5773   51.5737   20.5366 C.2       1 UNK         0.0000 
     22 C22         3.2554   52.5069   19.8287 C.2       1 UNK         0.0000 
     23 O23         3.8561   53.6123   20.3466 O.3       1 UNK         0.0000 
     24 N24         3.5044   52.4969   18.4842 N.pl3     1 UNK         0.0000 
     25 C25         2.0522   50.4089   19.8944 C.1       1 UNK         0.0000 
     26 N26         1.5916   49.4640   19.4108 N.1       1 UNK         0.0000 
     27 C27         1.0852   51.1407   22.5727 C.ar      1 UNK         0.0000 
     28 C28         1.1137   50.0943   23.5021 C.ar      1 UNK         0.0000 
     29 C29        -0.0744   49.5776   24.0094 C.ar      1 UNK         0.0000 
     30 C30        -1.2923   50.1026   23.5823 C.ar      1 UNK         0.0000 
     31 C31        -1.3317   51.1311   22.6423 C.ar      1 UNK         0.0000 
     32 C32        -0.1437   51.6488   22.1352 C.ar      1 UNK         0.0000 
     33 Br33       -2.9171   49.4168   24.2954 Br        1 UNK         0.0000 
     34 H34         5.3596   54.5684   29.6741 H         1 UNK         0.0000 
     35 H35         5.7709   53.7441   28.1720 H         1 UNK         0.0000 
     36 H36         4.8893   55.2865   28.1453 H         1 UNK         0.0000 
     37 H37         4.4341   54.2009   26.1854 H         1 UNK         0.0000 
     38 H38         0.8147   52.6131   24.5320 H         1 UNK         0.0000 
     39 H39         1.6456   53.8490   30.2311 H         1 UNK         0.0000 
     40 H40         0.1153   53.7910   29.3488 H         1 UNK         0.0000 
     41 H41         0.4017   52.6905   30.6924 H         1 UNK         0.0000 
     42 H42        -2.0949   51.5546   26.8792 H         1 UNK         0.0000 
     43 H43        -1.2958   52.8980   27.6867 H         1 UNK         0.0000 
     44 H44        -1.4582   52.8904   25.9178 H         1 UNK         0.0000 
     45 H45         3.4038   51.6158   17.9971 H         1 UNK         0.0000 
     46 H46         4.2414   53.0834   18.1278 H         1 UNK         0.0000 
     47 H47         2.0535   49.6951   23.8569 H         1 UNK         0.0000 
     48 H48        -0.0486   48.7876   24.7470 H         1 UNK         0.0000 
     49 H49        -2.2804   51.5270   22.3112 H         1 UNK         0.0000 
     50 H50        -0.1708   52.4475   21.4089 H         1 UNK         0.0000 
@<TRIPOS>BOND
     1    1    2 1    
     2    1   34 1    
     3    1   35 1    
     4    1   36 1    
     5    2    3 1    
     6    3    8 ar   
     7    3    4 ar   
     8    4    5 ar   
     9    4   37 1    
    10    5    6 ar   
    11    5   13 1    
    12    6    7 ar   
    13    6   38 1    
    14    7    8 ar   
    15    7   11 1    
    16    8    9 1    
    17    9   10 1    
    18   10   39 1    
    19   10   40 1    
    20   10   41 1    
    21   11   12 1    
    22   12   42 1    
    23   12   43 1    
    24   12   44 1    
    25   13   17 1    
    26   13   14 2    
    27   14   15 1    
    28   15   16 2    
    29   16   23 1    
    30   16   17 1    
    31   17   18 1    
    32   17   19 1    
    33   19   20 1    
    34   19   21 1    
    35   19   27 1    
    36   21   22 2    
    37   21   25 1    
    38   22   23 1    
    39   22   24 1    
    40   24   45 1    
    41   24   46 1    
    42   25   26 3    
    43   27   32 ar   
    44   27   28 ar   
    45   28   29 ar   
    46   28   47 1    
    47   29   30 ar   
    48   29   48 1    
    49   30   31 ar   
    50   30   33 1    
    51   31   32 ar   
    52   31   49 1    
    53   32   50 1    
@<TRIPOS>SUBSTRUCTURE
     1 UNK         1 GROUP             0       ****    0 ROOT    
