@<TRIPOS>MOLECULE
ZINC03012106_2326
59   62    1
SMALL
USER_CHARGES


@<TRIPOS>ATOM
      1 C1          5.7571   54.4648   14.7818 C.3       1 UNK         0.0000 
      2 C2          6.4870   54.5994   16.1049 C.ar      1 UNK         0.0000 
      3 C3          7.8748   54.7670   16.1311 C.ar      1 UNK         0.0000 
      4 C4          8.5504   54.8735   17.3507 C.ar      1 UNK         0.0000 
      5 C5          7.8325   54.8148   18.5457 C.ar      1 UNK         0.0000 
      6 C6          6.4383   54.6484   18.5312 C.ar      1 UNK         0.0000 
      7 C7          5.7757   54.5280   17.3054 C.ar      1 UNK         0.0000 
      8 N8          5.6514   54.5348   19.6876 N.am      1 UNK         0.0000 
      9 C9          5.9381   54.9328   20.9461 C.2       1 UNK         0.0000 
     10 O10         6.9280   55.5905   21.2777 O.2       1 UNK         0.0000 
     11 C11         4.9795   54.4958   21.9338 C.ar      1 UNK         0.0000 
     12 C12         5.2340   54.3975   23.3111 C.ar      1 UNK         0.0000 
     13 C13         4.0508   53.9967   23.8966 C.ar      1 UNK         0.0000 
     14 N14         3.1398   53.9049   22.8674 N.pl3     1 UNK         0.0000 
     15 N15         3.7216   54.1707   21.6857 N.2       1 UNK         0.0000 
     16 C16         1.7407   53.4862   22.9686 C.3       1 UNK         0.0000 
     17 H17         1.1599   54.1541   22.3344 H         1 UNK         0.0000 
     18 C18         1.3147   53.6991   24.4453 C.3       1 UNK         0.0000 
     19 C19         2.3574   53.2068   25.4806 C.3       1 UNK         0.0000 
     20 H20         2.4522   52.1282   25.3699 H         1 UNK         0.0000 
     21 N21         3.6864   53.7717   25.2041 N.pl3     1 UNK         0.0000 
     22 C22         1.8972   53.4002   26.9289 C.ar      1 UNK         0.0000 
     23 C23         1.0416   52.4692   27.5303 C.ar      1 UNK         0.0000 
     24 C24         0.6456   52.6274   28.8607 C.ar      1 UNK         0.0000 
     25 C25         1.0871   53.7306   29.6110 C.ar      1 UNK         0.0000 
     26 C26         1.9197   54.6783   28.9987 C.ar      1 UNK         0.0000 
     27 C27         2.3303   54.4988   27.6815 C.ar      1 UNK         0.0000 
     28 O28         2.4104   55.7621   29.6823 O.3       1 UNK         0.0000 
     29 C29         1.4604   56.7796   29.9731 C.3       1 UNK         0.0000 
     30 O30         0.7661   53.9518   30.9350 O.3       1 UNK         0.0000 
     31 C31         0.0986   52.9466   31.6789 C.3       1 UNK         0.0000 
     32 C32         1.4744   52.0565   22.4363 C.3       1 UNK         0.0000 
     33 F33         0.1861   51.7433   22.5611 F         1 UNK         0.0000 
     34 F34         1.7807   51.9468   21.1433 F         1 UNK         0.0000 
     35 F35         2.1683   51.1295   23.0920 F         1 UNK         0.0000 
     36 C36        10.0600   55.0153   17.3824 C.3       1 UNK         0.0000 
     37 H37         4.9385   53.7470   14.8653 H         1 UNK         0.0000 
     38 H38         6.4190   54.0973   13.9948 H         1 UNK         0.0000 
     39 H39         5.3406   55.4262   14.4771 H         1 UNK         0.0000 
     40 H40         8.4293   54.8095   15.2053 H         1 UNK         0.0000 
     41 H41         8.3723   54.8730   19.4774 H         1 UNK         0.0000 
     42 H42         4.7036   54.3834   17.2774 H         1 UNK         0.0000 
     43 H43         4.7621   54.0706   19.5636 H         1 UNK         0.0000 
     44 H44         6.1675   54.6034   23.8144 H         1 UNK         0.0000 
     45 H45         1.1051   54.7582   24.5897 H         1 UNK         0.0000 
     46 H46         0.3563   53.2131   24.6311 H         1 UNK         0.0000 
     47 H47         4.3787   53.3800   25.8285 H         1 UNK         0.0000 
     48 H48         0.6918   51.6121   26.9734 H         1 UNK         0.0000 
     49 H49        -0.0072   51.8845   29.2922 H         1 UNK         0.0000 
     50 H50         2.9913   55.2325   27.2449 H         1 UNK         0.0000 
     51 H51         1.9044   57.5198   30.6356 H         1 UNK         0.0000 
     52 H52         1.1468   57.2855   29.0582 H         1 UNK         0.0000 
     53 H53         0.5712   56.4020   30.4800 H         1 UNK         0.0000 
     54 H54        -0.0316   53.2979   32.7037 H         1 UNK         0.0000 
     55 H55        -0.8938   52.7436   31.2760 H         1 UNK         0.0000 
     56 H56         0.6739   52.0216   31.7161 H         1 UNK         0.0000 
     57 H57        10.4834   54.4283   18.1984 H         1 UNK         0.0000 
     58 H58        10.5167   54.6505   16.4626 H         1 UNK         0.0000 
     59 H59        10.3440   56.0562   17.5353 H         1 UNK         0.0000 
@<TRIPOS>BOND
     1    1    2 1    
     2    1   37 1    
     3    1   38 1    
     4    1   39 1    
     5    2    7 ar   
     6    2    3 ar   
     7    3    4 ar   
     8    3   40 1    
     9    4    5 ar   
    10    4   36 1    
    11    5    6 ar   
    12    5   41 1    
    13    6    7 ar   
    14    6    8 1    
    15    7   42 1    
    16    8    9 am   BACKBONE|DICT|INTERRES
    17    8   43 1    
    18    9   10 2    
    19    9   11 1    
    20   11   15 ar   
    21   11   12 ar   
    22   12   13 ar   
    23   12   44 1    
    24   13   21 1    
    25   13   14 ar   
    26   14   15 ar   
    27   14   16 1    
    28   16   17 1    
    29   16   18 1    
    30   16   32 1    
    31   18   19 1    
    32   18   45 1    
    33   18   46 1    
    34   19   20 1    
    35   19   21 1    
    36   19   22 1    
    37   21   47 1    
    38   22   27 ar   
    39   22   23 ar   
    40   23   24 ar   
    41   23   48 1    
    42   24   25 ar   
    43   24   49 1    
    44   25   26 ar   
    45   25   30 1    
    46   26   27 ar   
    47   26   28 1    
    48   27   50 1    
    49   28   29 1    
    50   29   51 1    
    51   29   52 1    
    52   29   53 1    
    53   30   31 1    
    54   31   54 1    
    55   31   55 1    
    56   31   56 1    
    57   32   33 1    
    58   32   34 1    
    59   32   35 1    
    60   36   57 1    
    61   36   58 1    
    62   36   59 1    
@<TRIPOS>SUBSTRUCTURE
     1 UNK         1 GROUP             0       ****    0 ROOT    
