ZINC13071551_2189
                    3D
 Schrodinger Suite 2024-2.
 55 58  0  0  1  0            999 V2000
   -1.6432   53.1733   23.6817 C   0  0  0  0  0  0
   -1.1088   51.8825   24.2845 C   0  0  0  0  0  0
   -1.9561   51.1220   25.0978 C   0  0  0  0  0  0
   -1.5072   49.9385   25.6816 C   0  0  0  0  0  0
   -0.2078   49.4955   25.4537 C   0  0  0  0  0  0
    0.6476   50.2397   24.6450 C   0  0  0  0  0  0
    0.2147   51.4434   24.0663 C   0  0  0  0  0  0
    1.1385   52.1752   23.2806 N   0  0  0  0  0  0
    2.1882   52.9357   23.7153 C   0  0  0  0  0  0
    2.9731   53.1704   22.7563 N   0  0  0  0  0  0
    2.4607   52.6123   21.6724 N   0  0  0  0  0  0
    1.2413   52.0533   21.9154 C   0  0  0  0  0  0
    0.2122   51.2961   20.8238 S   0  0  0  0  0  0
    3.3088   52.4445   20.4743 C   0  0  0  0  0  0
    5.0109   54.3121   20.7936 C   0  0  0  0  0  0
    5.9632   55.3368   20.1322 C   0  0  0  0  0  0
    6.4859   54.8976   18.7628 C   0  0  0  0  0  0
    5.3048   54.5790   17.8446 C   0  0  0  0  0  0
    4.4483   53.4208   18.4093 C   0  0  2  0  0  0
    5.0205   52.4969   18.4744 H   0  0  0  0  0  0
    3.2022   53.2298   17.5118 C   0  0  0  0  0  0
    2.3292   54.0902   17.4499 O   0  0  0  0  0  0
    3.1052   52.0969   16.8175 N   0  0  0  0  0  0
    2.4524   53.4186   25.1113 C   0  0  0  0  0  0
    1.5529   53.2607   26.1797 C   0  0  0  0  0  0
    1.8770   53.6958   27.4636 C   0  0  0  0  0  0
    3.1024   54.3112   27.7004 C   0  0  0  0  0  0
    4.0040   54.4968   26.6598 C   0  0  0  0  0  0
    3.6776   54.0625   25.3783 C   0  0  0  0  0  0
    3.5031   54.8565   29.2888 Cl  0  0  0  0  0  0
   -2.5290   53.5332   24.2059 H   0  0  0  0  0  0
   -0.8950   53.9626   23.7433 H   0  0  0  0  0  0
   -1.8969   53.0124   22.6345 H   0  0  0  0  0  0
   -2.9689   51.4474   25.2868 H   0  0  0  0  0  0
   -2.1575   49.3615   26.3256 H   0  0  0  0  0  0
    0.1332   48.5762   25.9114 H   0  0  0  0  0  0
    1.6487   49.8722   24.4756 H   0  0  0  0  0  0
    2.7385   51.9569   19.6871 H   0  0  0  0  0  0
    4.1541   51.7913   20.6909 H   0  0  0  0  0  0
    5.5720   53.4527   21.1647 H   0  0  0  0  0  0
    4.4992   54.7998   21.6237 H   0  0  0  0  0  0
    6.8150   55.4909   20.7957 H   0  0  0  0  0  0
    5.4984   56.3173   20.0456 H   0  0  0  0  0  0
    7.1358   54.0254   18.8597 H   0  0  0  0  0  0
    7.1001   55.6883   18.3246 H   0  0  0  0  0  0
    5.6739   54.3253   16.8489 H   0  0  0  0  0  0
    4.7041   55.4833   17.7198 H   0  0  0  0  0  0
    3.7758   51.3417   16.9371 H   0  0  0  0  0  0
    2.3048   51.9495   16.2227 H   0  0  0  0  0  0
    0.5863   52.8044   26.0673 H   0  0  0  0  0  0
    1.1747   53.5605   28.2734 H   0  0  0  0  0  0
    4.9562   54.9747   26.8414 H   0  0  0  0  0  0
    4.4086   54.2169   24.5977 H   0  0  0  0  0  0
    3.9043   53.7493   19.8416 N   0  3  1  0  0  0
    3.1802   54.4508   19.6984 H   0  0  0  0  0  0
  1  2  1  0  0  0
  1 31  1  0  0  0
  1 32  1  0  0  0
  1 33  1  0  0  0
  2  7  2  0  0  0
  2  3  1  0  0  0
  3  4  2  0  0  0
  3 34  1  0  0  0
  4  5  1  0  0  0
  4 35  1  0  0  0
  5  6  2  0  0  0
  5 36  1  0  0  0
  6  7  1  0  0  0
  6 37  1  0  0  0
  7  8  1  0  0  0
  8 12  1  0  0  0
  8  9  1  0  0  0
  9 10  2  0  0  0
  9 24  1  0  0  0
 10 11  1  0  0  0
 11 12  1  0  0  0
 11 14  1  0  0  0
 12 13  2  0  0  0
 14 38  1  0  0  0
 14 39  1  0  0  0
 14 54  1  0  0  0
 15 16  1  0  0  0
 15 40  1  0  0  0
 15 41  1  0  0  0
 15 54  1  0  0  0
 16 17  1  0  0  0
 16 42  1  0  0  0
 16 43  1  0  0  0
 17 18  1  0  0  0
 17 44  1  0  0  0
 17 45  1  0  0  0
 18 19  1  0  0  0
 18 46  1  0  0  0
 18 47  1  0  0  0
 19 20  1  0  0  0
 19 21  1  0  0  0
 19 54  1  0  0  0
 21 22  2  0  0  0
 21 23  1  0  0  0
 23 48  1  0  0  0
 23 49  1  0  0  0
 24 29  2  0  0  0
 24 25  1  0  0  0
 25 26  2  0  0  0
 25 50  1  0  0  0
 26 27  1  0  0  0
 26 51  1  0  0  0
 27 28  2  0  0  0
 27 30  1  0  0  0
 28 29  1  0  0  0
 28 52  1  0  0  0
 29 53  1  0  0  0
 54 55  1  0  0  0
M  CHG  1  54   1
M  END
> <i_i_glide_confnum>
54

> <i_i_glide_lignum>
2190

> <i_i_glide_posenum>
286

> <i_i_glide_rotatable_bonds>
5

> <i_m_Source_File_Index>
4055

> <b_m_subgroup_collapsed>
0

> <r_i_docking_score>
-5.15822

> <r_i_glide_ecoul>
-5.28276

> <r_i_glide_eff_state_penalty>
0

> <r_i_glide_einternal>
6.62125

> <r_i_glide_emodel>
-55.6348

> <r_i_glide_energy>
-41.6022

> <r_i_glide_erotb>
0.407426

> <r_i_glide_esite>
-0.147131

> <r_i_glide_evdw>
-36.3195

> <r_i_glide_gscore>
-5.15822

> <r_i_glide_hbond>
-0.187482

> <r_i_glide_ligand_efficiency>
-0.171941

> <r_i_glide_ligand_efficiency_ln>
-1.172

> <r_i_glide_ligand_efficiency_sa>
-0.534259

> <r_i_glide_lipo>
-1.72518

> <r_i_glide_metal>
0

> <r_i_glide_rewards>
-0.897464

> <s_i_glide_gridfile>
wee1_glide-grid

> <s_m_Source_File>
wee1_decoys_glide_SP.sdf

> <s_m_Source_Path>
/Users/zhangxujun/Desktop

> <s_m_entry_id>
4330

> <s_m_entry_name>
wee1_decoys_glide_SP.4055

> <s_m_subgroup_title>
wee1_decoys_glide_SP

> <s_m_subgroupid>
wee1_decoys_glide_SP


$$$$
