ZINC19353459_2099
                    3D
 Schrodinger Suite 2024-2.
 54 57  0  0  1  0            999 V2000
    1.2676   52.8819   25.1634 C   0  0  0  0  0  0
    0.6171   52.4966   26.4883 C   0  0  0  0  0  0
   -0.7017   52.0436   26.4659 C   0  0  0  0  0  0
   -1.3741   51.6859   27.6377 C   0  0  0  0  0  0
   -0.6834   51.7849   28.8528 C   0  0  0  0  0  0
    0.6347   52.2397   28.8962 C   0  0  0  0  0  0
    1.2964   52.6097   27.7148 C   0  0  0  0  0  0
    2.6030   53.1306   27.6787 N   0  0  0  0  0  0
    3.5644   53.2337   28.6211 C   0  0  0  0  0  0
    3.4521   52.8614   29.7903 O   0  0  0  0  0  0
    4.8819   53.8994   28.1711 C   0  0  0  0  0  0
    4.9260   53.9939   26.7402 O   0  0  0  0  0  0
    5.9256   54.6240   26.0910 C   0  0  0  0  0  0
    6.8745   55.2001   26.6230 O   0  0  0  0  0  0
    5.7383   54.5126   24.6501 C   0  0  0  0  0  0
    4.7372   54.0360   23.8246 C   0  0  0  0  0  0
    5.2313   54.1426   22.5120 C   0  0  0  0  0  0
    6.4252   54.7057   22.5104 N   0  0  0  0  0  0
    6.7207   54.9240   23.7951 N   0  0  0  0  0  0
    7.6197   55.2956   24.0774 H   0  0  0  0  0  0
    4.5639   53.7068   21.2448 C   0  0  0  0  0  0
    3.5429   52.7494   21.2923 C   0  0  0  0  0  0
    2.9067   52.3415   20.1230 C   0  0  0  0  0  0
    3.2805   52.8967   18.9031 C   0  0  0  0  0  0
    4.3049   53.8371   18.8397 C   0  0  0  0  0  0
    4.9468   54.2393   20.0072 C   0  0  0  0  0  0
    2.3716   52.3793   17.3136 Br  0  0  0  0  0  0
   -2.7229   51.2959   27.5879 N   0  0  0  0  0  0
   -3.5031   51.0441   26.3720 C   0  0  0  0  0  0
   -4.9064   50.6317   26.8005 C   0  0  0  0  0  0
   -4.6324   49.9268   28.1111 C   0  0  0  0  0  0
   -3.5068   50.7689   28.7067 C   0  0  0  0  0  0
    2.1204   52.2338   24.9663 H   0  0  0  0  0  0
    0.5796   52.8025   24.3210 H   0  0  0  0  0  0
    1.6221   53.9127   25.2026 H   0  0  0  0  0  0
   -1.2118   51.9782   25.5174 H   0  0  0  0  0  0
   -1.1686   51.5198   29.7811 H   0  0  0  0  0  0
    1.1106   52.3137   29.8608 H   0  0  0  0  0  0
    2.8880   53.4541   26.7666 H   0  0  0  0  0  0
    4.9326   54.8973   28.6106 H   0  0  0  0  0  0
    5.7261   53.3179   28.5446 H   0  0  0  0  0  0
    3.7887   53.6244   24.1302 H   0  0  0  0  0  0
    3.2347   52.3134   22.2306 H   0  0  0  0  0  0
    2.1168   51.6058   20.1610 H   0  0  0  0  0  0
    4.5943   54.2558   17.8874 H   0  0  0  0  0  0
    5.7350   54.9750   19.9453 H   0  0  0  0  0  0
   -3.0338   50.2600   25.7749 H   0  0  0  0  0  0
   -3.5383   51.9532   25.7715 H   0  0  0  0  0  0
   -5.3852   49.9789   26.0697 H   0  0  0  0  0  0
   -5.5474   51.5055   26.9272 H   0  0  0  0  0  0
   -5.5075   49.8918   28.7618 H   0  0  0  0  0  0
   -4.2974   48.8969   27.9645 H   0  0  0  0  0  0
   -3.9341   51.5777   29.2967 H   0  0  0  0  0  0
   -2.8957   50.0978   29.3129 H   0  0  0  0  0  0
  1  2  1  0  0  0
  1 33  1  0  0  0
  1 34  1  0  0  0
  1 35  1  0  0  0
  2  7  2  0  0  0
  2  3  1  0  0  0
  3  4  2  0  0  0
  3 36  1  0  0  0
  4  5  1  0  0  0
  4 28  1  0  0  0
  5  6  2  0  0  0
  5 37  1  0  0  0
  6  7  1  0  0  0
  6 38  1  0  0  0
  7  8  1  0  0  0
  8  9  1  0  0  0
  8 39  1  0  0  0
  9 10  2  0  0  0
  9 11  1  0  0  0
 11 12  1  0  0  0
 11 40  1  0  0  0
 11 41  1  0  0  0
 12 13  1  0  0  0
 13 14  2  0  0  0
 13 15  1  0  0  0
 15 19  1  0  0  0
 15 16  2  0  0  0
 16 17  1  0  0  0
 16 42  1  0  0  0
 17 18  2  0  0  0
 17 21  1  0  0  0
 18 19  1  0  0  0
 19 20  1  0  0  0
 21 26  2  0  0  0
 21 22  1  0  0  0
 22 23  2  0  0  0
 22 43  1  0  0  0
 23 24  1  0  0  0
 23 44  1  0  0  0
 24 25  2  0  0  0
 24 27  1  0  0  0
 25 26  1  0  0  0
 25 45  1  0  0  0
 26 46  1  0  0  0
 28 32  1  0  0  0
 28 29  1  0  0  0
 29 30  1  0  0  0
 29 47  1  0  0  0
 29 48  1  0  0  0
 30 31  1  0  0  0
 30 49  1  0  0  0
 30 50  1  0  0  0
 31 32  1  0  0  0
 31 51  1  0  0  0
 31 52  1  0  0  0
 32 53  1  0  0  0
 32 54  1  0  0  0
M  END
> <i_i_glide_confnum>
66

> <i_i_glide_lignum>
2100

> <i_i_glide_posenum>
13

> <i_i_glide_rotatable_bonds>
8

> <i_m_Source_File_Index>
1351

> <b_m_subgroup_collapsed>
0

> <r_i_docking_score>
-6.07094

> <r_i_glide_ecoul>
-4.5131

> <r_i_glide_eff_state_penalty>
0

> <r_i_glide_einternal>
5.41701

> <r_i_glide_emodel>
-67.9335

> <r_i_glide_energy>
-50.6599

> <r_i_glide_erotb>
0.695108

> <r_i_glide_esite>
-0.0746563

> <r_i_glide_evdw>
-46.1468

> <r_i_glide_gscore>
-6.07094

> <r_i_glide_hbond>
-0.544627

> <r_i_glide_ligand_efficiency>
-0.195837

> <r_i_glide_ligand_efficiency_ln>
-1.36918

> <r_i_glide_ligand_efficiency_sa>
-0.615198

> <r_i_glide_lipo>
-1.81486

> <r_i_glide_metal>
0

> <r_i_glide_rewards>
-1.34761

> <s_i_glide_gridfile>
wee1_glide-grid

> <s_m_Source_File>
wee1_decoys_glide_SP.sdf

> <s_m_Source_Path>
/Users/zhangxujun/Desktop

> <s_m_entry_id>
1626

> <s_m_entry_name>
wee1_decoys_glide_SP.1351

> <s_m_subgroup_title>
wee1_decoys_glide_SP

> <s_m_subgroupid>
wee1_decoys_glide_SP


$$$$
