@<TRIPOS>MOLECULE
ZINC36218191_945
65   69    1
SMALL
USER_CHARGES


@<TRIPOS>ATOM
      1 C1          1.6007   52.7235   30.1770 C.3       1 UNK         0.0000 
      2 C2          2.5682   53.1616   29.0910 C.ar      1 UNK         0.0000 
      3 C3          2.0875   53.4590   27.8178 C.ar      1 UNK         0.0000 
      4 C4          2.9673   53.8613   26.8168 C.ar      1 UNK         0.0000 
      5 C5          4.3451   53.9702   27.0740 C.ar      1 UNK         0.0000 
      6 C6          4.8124   53.6883   28.3645 C.ar      1 UNK         0.0000 
      7 C7          3.9298   53.2824   29.3650 C.ar      1 UNK         0.0000 
      8 C8          5.3169   54.3969   25.9921 C.2       1 UNK         0.0000 
      9 O9          6.3876   54.9315   26.2939 O.2       1 UNK         0.0000 
     10 N10         4.9151   54.1272   24.7282 N.am      1 UNK         0.0000 
     11 C11         5.4832   54.4966   23.4955 C.ar      1 UNK         0.0000 
     12 C12         6.7045   55.1667   23.3471 C.ar      1 UNK         0.0000 
     13 C13         7.1532   55.5529   22.0834 C.ar      1 UNK         0.0000 
     14 C14         6.3847   55.2952   20.9553 C.ar      1 UNK         0.0000 
     15 C15         5.1637   54.6315   21.0862 C.ar      1 UNK         0.0000 
     16 C16         4.7314   54.2127   22.3506 C.ar      1 UNK         0.0000 
     17 C17         4.2709   54.4129   19.8745 C.3       1 UNK         0.0000 
     18 H18         3.2531   54.4945   20.2532 H         1 UNK         0.0000 
     19 C19         4.4597   53.1141   19.1128 C.3       1 UNK         0.0000 
     20 H20         5.4479   52.6881   19.2795 H         1 UNK         0.0000 
     21 N21         4.2883   53.5495   17.7238 N.am      1 UNK         0.0000 
     22 C22         4.2456   54.9401   17.6364 C.2       1 UNK         0.0000 
     23 O23         4.1507   55.6770   16.6567 O.2       1 UNK         0.0000 
     24 O24         4.3824   55.4110   18.8816 O.3       1 UNK         0.0000 
     25 C25         4.5776   52.7390   16.5352 C.3       1 UNK         0.0000 
     26 C26         6.0214   52.8351   16.0254 C.ar      1 UNK         0.0000 
     27 C27         7.1035   52.4970   16.8496 C.ar      1 UNK         0.0000 
     28 C28         8.4059   52.5839   16.3678 C.ar      1 UNK         0.0000 
     29 C29         8.6301   53.0091   15.0599 C.ar      1 UNK         0.0000 
     30 C30         7.5610   53.3440   14.2312 C.ar      1 UNK         0.0000 
     31 C31         6.2571   53.2570   14.7132 C.ar      1 UNK         0.0000 
     32 F32         9.8949   53.0965   14.5885 F         1 UNK         0.0000 
     33 C33         3.4199   52.0898   19.6327 C.2       1 UNK         0.0000 
     34 O34         3.5894   51.5843   20.7440 O.2       1 UNK         0.0000 
     35 N35         2.3614   51.7975   18.8559 N.am      1 UNK         0.0000 
     36 C36         1.2666   50.8913   19.1942 C.3       1 UNK         0.0000 
     37 C37         1.6609   49.4071   19.3164 C.3       1 UNK         0.0000 
     38 C38         1.9132   48.7860   20.6700 C.3       1 UNK         0.0000 
     39 C39         0.6636   48.4279   19.8869 C.3       1 UNK         0.0000 
     40 H40         1.2727   51.6972   30.0015 H         1 UNK         0.0000 
     41 H41         2.0383   52.7949   31.1756 H         1 UNK         0.0000 
     42 H42         0.7138   53.3590   30.1736 H         1 UNK         0.0000 
     43 H43         1.0324   53.3791   27.6020 H         1 UNK         0.0000 
     44 H44         2.5541   54.0950   25.8453 H         1 UNK         0.0000 
     45 H45         5.8651   53.7718   28.6004 H         1 UNK         0.0000 
     46 H46         4.3043   53.0556   30.3513 H         1 UNK         0.0000 
     47 H47         4.0450   53.6247   24.6530 H         1 UNK         0.0000 
     48 H48         7.3363   55.4067   24.1869 H         1 UNK         0.0000 
     49 H49         8.1013   56.0633   21.9885 H         1 UNK         0.0000 
     50 H50         6.7338   55.6179   19.9853 H         1 UNK         0.0000 
     51 H51         3.7792   53.7075   22.4401 H         1 UNK         0.0000 
     52 H52         3.9092   53.0652   15.7367 H         1 UNK         0.0000 
     53 H53         4.3079   51.6968   16.7250 H         1 UNK         0.0000 
     54 H54         6.9331   52.1398   17.8547 H         1 UNK         0.0000 
     55 H55         9.2387   52.3151   17.0018 H         1 UNK         0.0000 
     56 H56         7.7489   53.6706   13.2190 H         1 UNK         0.0000 
     57 H57         5.4321   53.5234   14.0675 H         1 UNK         0.0000 
     58 H58         2.3381   52.2104   17.9362 H         1 UNK         0.0000 
     59 H59         0.7733   51.2241   20.1103 H         1 UNK         0.0000 
     60 H60         0.4693   50.9800   18.4553 H         1 UNK         0.0000 
     61 H61         2.2534   49.0646   18.4639 H         1 UNK         0.0000 
     62 H62         2.7043   48.0441   20.7621 H         1 UNK         0.0000 
     63 H63         1.8342   49.4153   21.5570 H         1 UNK         0.0000 
     64 H64        -0.3015   48.7983   20.2336 H         1 UNK         0.0000 
     65 H65         0.5896   47.4425   19.4266 H         1 UNK         0.0000 
@<TRIPOS>BOND
     1    1    2 1    
     2    1   40 1    
     3    1   41 1    
     4    1   42 1    
     5    2    7 ar   
     6    2    3 ar   
     7    3    4 ar   
     8    3   43 1    
     9    4    5 ar   
    10    4   44 1    
    11    5    6 ar   
    12    5    8 1    
    13    6    7 ar   
    14    6   45 1    
    15    7   46 1    
    16    8    9 2    
    17    8   10 am   BACKBONE|DICT|INTERRES
    18   10   11 1    
    19   10   47 1    
    20   11   16 ar   
    21   11   12 ar   
    22   12   13 ar   
    23   12   48 1    
    24   13   14 ar   
    25   13   49 1    
    26   14   15 ar   
    27   14   50 1    
    28   15   16 ar   
    29   15   17 1    
    30   16   51 1    
    31   17   18 1    
    32   17   24 1    
    33   17   19 1    
    34   19   20 1    
    35   19   21 1    
    36   19   33 1    
    37   21   22 am   BACKBONE|DICT|INTERRES
    38   21   25 1    
    39   22   23 2    
    40   22   24 1    
    41   25   26 1    
    42   25   52 1    
    43   25   53 1    
    44   26   31 ar   
    45   26   27 ar   
    46   27   28 ar   
    47   27   54 1    
    48   28   29 ar   
    49   28   55 1    
    50   29   30 ar   
    51   29   32 1    
    52   30   31 ar   
    53   30   56 1    
    54   31   57 1    
    55   33   34 2    
    56   33   35 am   BACKBONE|DICT|INTERRES
    57   35   36 1    
    58   35   58 1    
    59   36   37 1    
    60   36   59 1    
    61   36   60 1    
    62   37   39 1    
    63   37   38 1    
    64   37   61 1    
    65   38   39 1    
    66   38   62 1    
    67   38   63 1    
    68   39   64 1    
    69   39   65 1    
@<TRIPOS>SUBSTRUCTURE
     1 UNK         1 GROUP             0       ****    0 ROOT    
