@<TRIPOS>MOLECULE
ZINC20744943_6180
28   30    1
SMALL
USER_CHARGES


@<TRIPOS>ATOM
      1 C1          5.7383   54.2513   27.4828 C.ar      1 UNK         0.0000 
      2 C2          4.4815   53.8789   27.9541 C.ar      1 UNK         0.0000 
      3 C3          3.3737   53.8355   27.0930 C.ar      1 UNK         0.0000 
      4 C4          3.5618   54.1315   25.7276 C.ar      1 UNK         0.0000 
      5 C5          4.8245   54.4969   25.2636 C.ar      1 UNK         0.0000 
      6 C6          5.9025   54.5705   26.1385 C.ar      1 UNK         0.0000 
      7 F7          7.1045   54.9693   25.6801 F         1 UNK         0.0000 
      8 Cl8         2.2707   54.0865   24.5740 Cl        1 UNK         0.0000 
      9 C9          1.9919   53.5061   27.6758 C.3       1 UNK         0.0000 
     10 H10         1.2581   53.6775   26.8926 H         1 UNK         0.0000 
     11 C11         1.5863   54.4166   28.8250 C.ar      1 UNK         0.0000 
     12 C12         2.0291   55.7152   29.0438 C.ar      1 UNK         0.0000 
     13 N13         1.4857   56.1337   30.2161 N.pl3     1 UNK         0.0000 
     14 H14         1.6464   57.0320   30.6537 H         1 UNK         0.0000 
     15 N15         0.7043   55.2070   30.7590 N.2       1 UNK         0.0000 
     16 C16         0.7086   54.1838   29.9266 C.ar      1 UNK         0.0000 
     17 N17        -0.0954   53.1394   30.2792 N.2       1 UNK         0.0000 
     18 C18        -0.3793   52.1102   29.5774 C.2       1 UNK         0.0000 
     19 C19         0.1030   51.6967   28.2035 C.3       1 UNK         0.0000 
     20 S20         1.9041   51.7420   28.0817 S.3       1 UNK         0.0000 
     21 O21        -1.2955   51.2967   30.1806 O.3       1 UNK         0.0000 
     22 H22         6.5790   54.3071   28.1598 H         1 UNK         0.0000 
     23 H23         4.3616   53.6420   29.0013 H         1 UNK         0.0000 
     24 H24         4.9698   54.7396   24.2212 H         1 UNK         0.0000 
     25 H25         2.7029   56.3459   28.4856 H         1 UNK         0.0000 
     26 H26        -0.1914   50.6635   28.0133 H         1 UNK         0.0000 
     27 H27        -0.3801   52.2889   27.4277 H         1 UNK         0.0000 
     28 H28        -1.3462   50.4318   29.7606 H         1 UNK         0.0000 
@<TRIPOS>BOND
     1    1    6 ar   
     2    1    2 ar   
     3    1   22 1    
     4    2    3 ar   
     5    2   23 1    
     6    3    4 ar   
     7    3    9 1    
     8    4    5 ar   
     9    4    8 1    
    10    5    6 ar   
    11    5   24 1    
    12    6    7 1    
    13    9   10 1    
    14    9   20 1    
    15    9   11 1    
    16   11   16 ar   
    17   11   12 ar   
    18   12   13 ar   
    19   12   25 1    
    20   13   14 1    
    21   13   15 ar   
    22   15   16 ar   
    23   16   17 1    
    24   17   18 2    
    25   18   19 1    
    26   18   21 1    
    27   19   20 1    
    28   19   26 1    
    29   19   27 1    
    30   21   28 1    
@<TRIPOS>SUBSTRUCTURE
     1 UNK         1 GROUP             0       ****    0 ROOT    
