@<TRIPOS>MOLECULE
ZINC10240361_821
56   58    1
SMALL
USER_CHARGES


@<TRIPOS>ATOM
      1 C1         -4.7958   43.4375   26.4473 C.3       1 UNK         0.0000 
      2 C2         -5.4548   44.3508   27.4969 C.3       1 UNK         0.0000 
      3 H3         -5.1157   44.0256   28.4793 H         1 UNK         0.0000 
      4 C4         -6.9909   44.1836   27.4779 C.3       1 UNK         0.0000 
      5 C5         -7.6584   44.9560   28.6334 C.3       1 UNK         0.0000 
      6 C6         -7.2582   46.4454   28.6330 C.3       1 UNK         0.0000 
      7 C7         -5.7331   46.6744   28.5085 C.3       1 UNK         0.0000 
      8 C8         -5.1097   45.8639   27.3466 C.3       1 UNK         0.0000 
      9 H9         -5.6276   46.2223   26.4516 H         1 UNK         0.0000 
     10 N10        -3.6938   46.2010   27.1415 N.am      1 UNK         0.0000 
     11 C11        -3.1125   46.4420   25.9540 C.2       1 UNK         0.0000 
     12 O12        -3.5110   45.9398   24.8980 O.2       1 UNK         0.0000 
     13 N13        -2.0963   47.3171   26.0815 N.am      1 UNK         0.0000 
     14 C14        -1.3810   47.9097   25.0999 C.2       1 UNK         0.0000 
     15 O15        -1.4219   47.6100   23.9048 O.2       1 UNK         0.0000 
     16 C16        -0.4342   49.0250   25.5556 C.3       1 UNK         0.0000 
     17 S17        -1.2999   50.6226   25.7437 S.3       1 UNK         0.0000 
     18 C18        -0.0669   51.4950   26.6591 C.ar      1 UNK         0.0000 
     19 N19        -0.1230   51.6989   27.9517 N.2       1 UNK         0.0000 
     20 N20         1.0241   52.3947   28.3217 N.2       1 UNK         0.0000 
     21 C21         1.7133   52.6296   27.2306 C.ar      1 UNK         0.0000 
     22 N22         1.0692   52.0773   26.1328 N.pl3     1 UNK         0.0000 
     23 C23         1.5033   52.0389   24.7341 C.3       1 UNK         0.0000 
     24 C24         0.8802   53.1162   23.8700 C.2       1 UNK         0.0000 
     25 C25         1.5866   53.9380   23.0784 C.2       1 UNK         0.0000 
     26 C26         3.0341   53.3377   27.2104 C.ar      1 UNK         0.0000 
     27 C27         3.3384   54.2118   26.1631 C.ar      1 UNK         0.0000 
     28 C28         4.5920   54.7960   26.0671 C.ar      1 UNK         0.0000 
     29 C29         5.5488   54.5284   27.0368 C.ar      1 UNK         0.0000 
     30 C30         5.2493   53.7062   28.1222 C.ar      1 UNK         0.0000 
     31 C31         3.9873   53.1177   28.2140 C.ar      1 UNK         0.0000 
     32 Cl32        7.1043   55.2521   26.8830 Cl        1 UNK         0.0000 
     33 H33        -5.1187   43.6953   25.4385 H         1 UNK         0.0000 
     34 H34        -3.7093   43.5103   26.4826 H         1 UNK         0.0000 
     35 H35        -5.0477   42.3902   26.6219 H         1 UNK         0.0000 
     36 H36        -7.3955   44.4876   26.5102 H         1 UNK         0.0000 
     37 H37        -7.2460   43.1251   27.5648 H         1 UNK         0.0000 
     38 H38        -7.3898   44.5047   29.5868 H         1 UNK         0.0000 
     39 H39        -8.7428   44.8655   28.5600 H         1 UNK         0.0000 
     40 H40        -7.6355   46.9329   29.5332 H         1 UNK         0.0000 
     41 H41        -7.7548   46.9401   27.7971 H         1 UNK         0.0000 
     42 H42        -5.2433   46.4147   29.4480 H         1 UNK         0.0000 
     43 H43        -5.5456   47.7396   28.3606 H         1 UNK         0.0000 
     44 H44        -3.1517   46.3615   27.9810 H         1 UNK         0.0000 
     45 H45        -1.8929   47.6595   27.0256 H         1 UNK         0.0000 
     46 H46         0.3683   49.1196   24.8250 H         1 UNK         0.0000 
     47 H47         0.0396   48.7429   26.4941 H         1 UNK         0.0000 
     48 H48         2.5904   52.1027   24.6985 H         1 UNK         0.0000 
     49 H49         1.2604   51.0648   24.3150 H         1 UNK         0.0000 
     50 H50        -0.1965   53.2056   23.9091 H         1 UNK         0.0000 
     51 H51         1.1049   54.6963   22.4829 H         1 UNK         0.0000 
     52 H52         2.6634   53.8684   23.0099 H         1 UNK         0.0000 
     53 H53         2.6028   54.4498   25.4149 H         1 UNK         0.0000 
     54 H54         4.8223   55.4520   25.2403 H         1 UNK         0.0000 
     55 H55         5.9958   53.5162   28.8788 H         1 UNK         0.0000 
     56 H56         3.7657   52.4549   29.0383 H         1 UNK         0.0000 
@<TRIPOS>BOND
     1    1    2 1    
     2    1   33 1    
     3    1   34 1    
     4    1   35 1    
     5    2    3 1    
     6    2    8 1    
     7    2    4 1    
     8    4    5 1    
     9    4   36 1    
    10    4   37 1    
    11    5    6 1    
    12    5   38 1    
    13    5   39 1    
    14    6    7 1    
    15    6   40 1    
    16    6   41 1    
    17    7    8 1    
    18    7   42 1    
    19    7   43 1    
    20    8    9 1    
    21    8   10 1    
    22   10   11 am   BACKBONE|DICT|INTERRES
    23   10   44 1    
    24   11   12 2    
    25   11   13 am   BACKBONE|DICT|INTERRES
    26   13   14 am   BACKBONE|DICT|INTERRES
    27   13   45 1    
    28   14   15 2    
    29   14   16 1    
    30   16   17 1    
    31   16   46 1    
    32   16   47 1    
    33   17   18 1    
    34   18   22 ar   
    35   18   19 ar   
    36   19   20 ar   
    37   20   21 ar   
    38   21   22 ar   
    39   21   26 1    
    40   22   23 1    
    41   23   24 1    
    42   23   48 1    
    43   23   49 1    
    44   24   25 2    
    45   24   50 1    
    46   25   51 1    
    47   25   52 1    
    48   26   31 ar   
    49   26   27 ar   
    50   27   28 ar   
    51   27   53 1    
    52   28   29 ar   
    53   28   54 1    
    54   29   30 ar   
    55   29   32 1    
    56   30   31 ar   
    57   30   55 1    
    58   31   56 1    
@<TRIPOS>SUBSTRUCTURE
     1 UNK         1 GROUP             0       ****    0 ROOT    
