@<TRIPOS>MOLECULE
ZINC33310230_2505
57   59    1
SMALL
USER_CHARGES


@<TRIPOS>ATOM
      1 C1         -0.8235   57.1405   17.1647 C.3       1 UNK         0.0000 
      2 C2          0.2241   57.4212   16.0744 C.3       1 UNK         0.0000 
      3 N3          1.5797   57.0580   16.4817 N.am      1 UNK         0.0000 
      4 C4          2.0545   55.8023   16.5647 C.2       1 UNK         0.0000 
      5 O5          1.3865   54.8165   16.2483 O.2       1 UNK         0.0000 
      6 C6          3.4879   55.6470   17.1160 C.3       1 UNK         0.0000 
      7 H7          3.5775   56.3752   17.9247 H         1 UNK         0.0000 
      8 C8          4.5198   56.0075   16.0133 C.3       1 UNK         0.0000 
      9 C9          5.9566   55.6961   16.4843 C.3       1 UNK         0.0000 
     10 C10         6.0833   54.2690   17.0685 C.3       1 UNK         0.0000 
     11 N11         5.1229   54.1503   18.1830 N.am      1 UNK         0.0000 
     12 C12         3.7198   54.2269   17.7141 C.3       1 UNK         0.0000 
     13 C13         5.5045   54.5244   19.4390 C.2       1 UNK         0.0000 
     14 O14         6.6208   54.9941   19.6788 O.2       1 UNK         0.0000 
     15 N15         4.5971   54.2384   20.4006 N.am      1 UNK         0.0000 
     16 C16         4.7191   54.2921   21.8033 C.ar      1 UNK         0.0000 
     17 C17         5.9233   54.4951   22.4960 C.ar      1 UNK         0.0000 
     18 C18         5.9435   54.4908   23.8888 C.ar      1 UNK         0.0000 
     19 C19         4.7570   54.2811   24.6071 C.ar      1 UNK         0.0000 
     20 C20         3.5588   54.0928   23.9163 C.ar      1 UNK         0.0000 
     21 C21         3.5397   54.0958   22.5238 C.ar      1 UNK         0.0000 
     22 N22         4.6743   54.1982   26.0099 N.am      1 UNK         0.0000 
     23 C23         5.6082   54.4416   26.9568 C.2       1 UNK         0.0000 
     24 O24         6.7429   54.8526   26.7264 O.2       1 UNK         0.0000 
     25 N25         5.2410   54.1768   28.2309 N.am      1 UNK         0.0000 
     26 C26         3.9731   53.8321   28.7423 C.ar      1 UNK         0.0000 
     27 C27         2.8092   54.5136   28.3610 C.ar      1 UNK         0.0000 
     28 C28         1.5854   54.1788   28.9338 C.ar      1 UNK         0.0000 
     29 C29         1.5262   53.1720   29.8942 C.ar      1 UNK         0.0000 
     30 C30         2.6799   52.4973   30.2869 C.ar      1 UNK         0.0000 
     31 C31         3.9042   52.8262   29.7093 C.ar      1 UNK         0.0000 
     32 H32        -1.8163   57.4438   16.8335 H         1 UNK         0.0000 
     33 H33        -0.6009   57.6907   18.0784 H         1 UNK         0.0000 
     34 H34        -0.8702   56.0788   17.4094 H         1 UNK         0.0000 
     35 H35        -0.0425   56.9041   15.1499 H         1 UNK         0.0000 
     36 H36         0.2225   58.4876   15.8389 H         1 UNK         0.0000 
     37 H37         2.1832   57.8231   16.7488 H         1 UNK         0.0000 
     38 H38         4.3678   55.3842   15.1300 H         1 UNK         0.0000 
     39 H39         4.4858   57.0676   15.7564 H         1 UNK         0.0000 
     40 H40         6.6474   55.8083   15.6480 H         1 UNK         0.0000 
     41 H41         6.2788   56.4287   17.2272 H         1 UNK         0.0000 
     42 H42         5.8040   53.5235   16.3228 H         1 UNK         0.0000 
     43 H43         7.0932   53.9808   17.3641 H         1 UNK         0.0000 
     44 H44         3.0031   53.9362   18.4836 H         1 UNK         0.0000 
     45 H45         3.6030   53.4619   16.9439 H         1 UNK         0.0000 
     46 H46         3.6998   53.9125   20.0720 H         1 UNK         0.0000 
     47 H47         6.8638   54.6417   21.9896 H         1 UNK         0.0000 
     48 H48         6.8950   54.6295   24.3760 H         1 UNK         0.0000 
     49 H49         2.6336   53.9274   24.4506 H         1 UNK         0.0000 
     50 H50         2.6020   53.9402   22.0083 H         1 UNK         0.0000 
     51 H51         3.7816   53.8911   26.3608 H         1 UNK         0.0000 
     52 H52         5.9972   54.1808   28.9001 H         1 UNK         0.0000 
     53 H53         2.8476   55.3127   27.6362 H         1 UNK         0.0000 
     54 H54         0.6891   54.7045   28.6400 H         1 UNK         0.0000 
     55 H55         0.5781   52.9144   30.3448 H         1 UNK         0.0000 
     56 H56         2.6185   51.7304   31.0450 H         1 UNK         0.0000 
     57 H57         4.7932   52.2929   30.0111 H         1 UNK         0.0000 
@<TRIPOS>BOND
     1    1    2 1    
     2    1   32 1    
     3    1   33 1    
     4    1   34 1    
     5    2    3 1    
     6    2   35 1    
     7    2   36 1    
     8    3    4 am   BACKBONE|DICT|INTERRES
     9    3   37 1    
    10    4    5 2    
    11    4    6 1    
    12    6    7 1    
    13    6   12 1    
    14    6    8 1    
    15    8    9 1    
    16    8   38 1    
    17    8   39 1    
    18    9   10 1    
    19    9   40 1    
    20    9   41 1    
    21   10   11 1    
    22   10   42 1    
    23   10   43 1    
    24   11   12 1    
    25   11   13 am   BACKBONE|DICT|INTERRES
    26   12   44 1    
    27   12   45 1    
    28   13   14 2    
    29   13   15 am   BACKBONE|DICT|INTERRES
    30   15   16 1    
    31   15   46 1    
    32   16   21 ar   
    33   16   17 ar   
    34   17   18 ar   
    35   17   47 1    
    36   18   19 ar   
    37   18   48 1    
    38   19   20 ar   
    39   19   22 1    
    40   20   21 ar   
    41   20   49 1    
    42   21   50 1    
    43   22   23 am   BACKBONE|DICT|INTERRES
    44   22   51 1    
    45   23   24 2    
    46   23   25 am   BACKBONE|DICT|INTERRES
    47   25   26 1    
    48   25   52 1    
    49   26   31 ar   
    50   26   27 ar   
    51   27   28 ar   
    52   27   53 1    
    53   28   29 ar   
    54   28   54 1    
    55   29   30 ar   
    56   29   55 1    
    57   30   31 ar   
    58   30   56 1    
    59   31   57 1    
@<TRIPOS>SUBSTRUCTURE
     1 UNK         1 GROUP             0       ****    0 ROOT    
