@<TRIPOS>MOLECULE
ZINC65074822_811
61   64    1
SMALL
USER_CHARGES


@<TRIPOS>ATOM
      1 C1          4.7034   54.4772   28.4522 C.3       1 UNK         0.0000 
      2 C2          4.5755   54.3374   26.9423 C.ar      1 UNK         0.0000 
      3 C3          3.3067   54.2562   26.3638 C.ar      1 UNK         0.0000 
      4 C4          3.1675   54.0967   24.9854 C.ar      1 UNK         0.0000 
      5 C5          4.2948   53.9687   24.1729 C.ar      1 UNK         0.0000 
      6 C6          5.5625   54.0975   24.7406 C.ar      1 UNK         0.0000 
      7 C7          5.7098   54.2813   26.1189 C.ar      1 UNK         0.0000 
      8 C8          7.1045   54.4039   26.6968 C.3       1 UNK         0.0000 
      9 S9          4.1522   53.6069   22.4201 S.o2      1 UNK         0.0000 
     10 O10         5.3376   52.8112   22.0806 O.2       1 UNK         0.0000 
     11 O11         3.9024   54.8966   21.7796 O.2       1 UNK         0.0000 
     12 N12         2.7063   52.5828   22.2333 N.pl3     1 UNK         0.0000 
     13 C13         1.3619   53.1444   22.0259 C.3       1 UNK         0.0000 
     14 C14         0.3692   52.4763   23.0059 C.3       1 UNK         0.0000 
     15 C15         0.4279   50.9032   23.0279 C.3       1 UNK         0.0000 
     16 C16         1.9061   50.3984   22.9734 C.3       1 UNK         0.0000 
     17 C17         2.8130   51.1386   21.9771 C.3       1 UNK         0.0000 
     18 C18        -0.1914   50.3001   24.3005 C.2       1 UNK         0.0000 
     19 N19        -0.8897   49.1559   24.3029 N.pl3     1 UNK         0.0000 
     20 C20        -1.3269   48.4379   23.1084 C.3       1 UNK         0.0000 
     21 C21        -0.6050   48.9821   21.8660 C.3       1 UNK         0.0000 
     22 N22        -0.4304   50.4273   21.9306 N.3       1 UNK         0.0000 
     23 N23         0.0814   50.9312   25.4486 N.pl3     1 UNK         0.0000 
     24 C24        -0.2087   50.4716   26.8008 C.3       1 UNK         0.0000 
     25 C25         0.3267   51.4325   27.8480 C.ar      1 UNK         0.0000 
     26 C26        -0.4956   52.4313   28.3556 C.ar      1 UNK         0.0000 
     27 C27        -0.0302   53.2905   29.3533 C.ar      1 UNK         0.0000 
     28 C28         1.2461   53.1131   29.8880 C.ar      1 UNK         0.0000 
     29 C29         2.0650   52.0903   29.4054 C.ar      1 UNK         0.0000 
     30 C30         1.6172   51.2957   28.3565 C.ar      1 UNK         0.0000 
     31 Cl31        3.5798   51.7001   30.1444 Cl        1 UNK         0.0000 
     32 F32         1.6704   53.9225   30.8815 F         1 UNK         0.0000 
     33 H33         5.1511   53.5758   28.8681 H         1 UNK         0.0000 
     34 H34         5.3680   55.2965   28.7163 H         1 UNK         0.0000 
     35 H35         3.7438   54.6628   28.9365 H         1 UNK         0.0000 
     36 H36         2.4217   54.3191   26.9806 H         1 UNK         0.0000 
     37 H37         2.1833   54.0641   24.5580 H         1 UNK         0.0000 
     38 H38         6.4370   54.0234   24.1090 H         1 UNK         0.0000 
     39 H39         7.1845   55.2923   27.3222 H         1 UNK         0.0000 
     40 H40         7.3447   53.5346   27.3097 H         1 UNK         0.0000 
     41 H41         7.8380   54.4969   25.9012 H         1 UNK         0.0000 
     42 H42         1.0698   52.9532   20.9921 H         1 UNK         0.0000 
     43 H43         1.4029   54.2262   22.1454 H         1 UNK         0.0000 
     44 H44        -0.6436   52.8228   22.7969 H         1 UNK         0.0000 
     45 H45         0.5747   52.8763   23.9916 H         1 UNK         0.0000 
     46 H46         2.3137   50.5338   23.9716 H         1 UNK         0.0000 
     47 H47         1.9704   49.3241   22.8078 H         1 UNK         0.0000 
     48 H48         2.5152   50.9397   20.9455 H         1 UNK         0.0000 
     49 H49         3.8523   50.8288   22.0737 H         1 UNK         0.0000 
     50 H50        -1.1381   47.3731   23.2457 H         1 UNK         0.0000 
     51 H51        -2.4049   48.5843   23.0290 H         1 UNK         0.0000 
     52 H52         0.3606   48.4972   21.7353 H         1 UNK         0.0000 
     53 H53        -1.1913   48.7323   20.9797 H         1 UNK         0.0000 
     54 H54        -1.3246   50.8964   21.9034 H         1 UNK         0.0000 
     55 H55         0.6340   51.7728   25.3804 H         1 UNK         0.0000 
     56 H56         0.2413   49.4813   26.8885 H         1 UNK         0.0000 
     57 H57        -1.2884   50.3411   26.8924 H         1 UNK         0.0000 
     58 H58        -1.5064   52.4968   27.9850 H         1 UNK         0.0000 
     59 H59        -0.6678   54.0689   29.7430 H         1 UNK         0.0000 
     60 H60         2.2481   50.4962   28.0042 H         1 UNK         0.0000 
     61 H61        -1.2171   48.8321   25.2042 H         1 UNK         0.0000 
@<TRIPOS>BOND
     1    1    2 1    
     2    1   33 1    
     3    1   34 1    
     4    1   35 1    
     5    2    7 ar   
     6    2    3 ar   
     7    3    4 ar   
     8    3   36 1    
     9    4    5 ar   
    10    4   37 1    
    11    5    6 ar   
    12    5    9 1    
    13    6    7 ar   
    14    6   38 1    
    15    7    8 1    
    16    8   39 1    
    17    8   40 1    
    18    8   41 1    
    19    9   10 2    
    20    9   11 2    
    21    9   12 1    
    22   12   17 1    
    23   12   13 1    
    24   13   14 1    
    25   13   42 1    
    26   13   43 1    
    27   14   15 1    
    28   14   44 1    
    29   14   45 1    
    30   15   22 1    
    31   15   16 1    
    32   15   18 1    
    33   16   17 1    
    34   16   46 1    
    35   16   47 1    
    36   17   48 1    
    37   17   49 1    
    38   18   19 2    
    39   18   23 1    
    40   19   20 1    
    41   19   61 1    
    42   20   21 1    
    43   20   50 1    
    44   20   51 1    
    45   21   22 1    
    46   21   52 1    
    47   21   53 1    
    48   22   54 1    
    49   23   24 1    
    50   23   55 1    
    51   24   25 1    
    52   24   56 1    
    53   24   57 1    
    54   25   30 ar   
    55   25   26 ar   
    56   26   27 ar   
    57   26   58 1    
    58   27   28 ar   
    59   27   59 1    
    60   28   29 ar   
    61   28   32 1    
    62   29   30 ar   
    63   29   31 1    
    64   30   60 1    
@<TRIPOS>SUBSTRUCTURE
     1 UNK         1 GROUP             0       ****    0 ROOT    
