ZINC63567106_1500
                    3D
 Schrodinger Suite 2024-2.
 49 52  0  0  1  0            999 V2000
    4.5790   53.8479   28.6484 C   0  0  0  0  0  0
    3.8542   53.4864   29.7936 C   0  0  0  0  0  0
    2.5284   53.1075   29.6334 C   0  0  0  0  0  0
    1.9340   53.0788   28.4063 C   0  0  0  0  0  0
    2.6268   53.4188   27.2499 C   0  0  0  0  0  0
    3.9737   53.8087   27.3687 C   0  0  0  0  0  0
    4.6273   54.1058   26.1604 N   0  0  0  0  0  0
    5.9010   54.4965   25.9016 C   0  0  0  0  0  0
    6.7375   54.7375   26.7680 O   0  0  0  0  0  0
    6.2658   54.6239   24.5995 N   0  0  0  0  0  0
    5.5346   54.4756   23.4640 C   0  0  0  0  0  0
    4.3320   54.1846   23.4466 O   0  0  0  0  0  0
    6.3172   54.7387   22.1526 C   0  0  0  0  0  0
    5.4992   54.6379   20.9211 N   0  0  0  0  0  0
    5.0500   53.2624   20.6107 C   0  0  0  0  0  0
    4.0854   53.2155   19.4028 C   0  0  0  0  0  0
    4.6680   53.8644   18.2782 O   0  0  0  0  0  0
    5.0506   55.2062   18.5552 C   0  0  1  0  0  0
    6.1022   55.2375   19.7075 C   0  0  1  0  0  0
    6.6800   56.6669   19.8815 C   0  0  0  0  0  0
    7.1596   57.3038   18.5604 C   0  0  0  0  0  0
    6.1005   57.2281   17.4456 C   0  0  0  0  0  0
    5.6154   55.7817   17.2429 C   0  0  0  0  0  0
    0.6544   52.6423   28.5404 O   0  0  0  0  0  0
    0.4089   52.6072   29.9224 C   0  0  0  0  0  0
    1.6493   52.6805   30.5754 O   0  0  0  0  0  0
    5.6099   54.1414   28.7767 H   0  0  0  0  0  0
    4.3044   53.4978   30.7731 H   0  0  0  0  0  0
    2.1436   53.3673   26.2847 H   0  0  0  0  0  0
    4.0600   53.9782   25.3329 H   0  0  0  0  0  0
    7.2314   54.8812   24.4607 H   0  0  0  0  0  0
    6.6871   55.7538   22.2781 H   0  0  0  0  0  0
    7.1919   54.1009   22.0869 H   0  0  0  0  0  0
    5.9029   52.6115   20.4220 H   0  0  0  0  0  0
    4.5358   52.8180   21.4613 H   0  0  0  0  0  0
    3.8603   52.1825   19.1378 H   0  0  0  0  0  0
    3.1424   53.6964   19.6664 H   0  0  0  0  0  0
    4.1704   55.7912   18.8340 H   0  0  0  0  0  0
    6.9179   54.5911   19.3750 H   0  0  0  0  0  0
    5.9045   57.2977   20.3081 H   0  0  0  0  0  0
    7.5291   56.6544   20.5623 H   0  0  0  0  0  0
    8.0670   56.7987   18.2259 H   0  0  0  0  0  0
    7.4396   58.3453   18.7290 H   0  0  0  0  0  0
    6.5131   57.6173   16.5132 H   0  0  0  0  0  0
    5.2546   57.8733   17.6935 H   0  0  0  0  0  0
    6.4614   55.1807   16.9043 H   0  0  0  0  0  0
    4.8502   55.7672   16.4654 H   0  0  0  0  0  0
   -0.1939   53.4720   30.2059 H   0  0  0  0  0  0
   -0.1262   51.6976   30.2025 H   0  0  0  0  0  0
  1  6  2  0  0  0
  1  2  1  0  0  0
  1 27  1  0  0  0
  2  3  2  0  0  0
  2 28  1  0  0  0
  3 26  1  0  0  0
  3  4  1  0  0  0
  4  5  2  0  0  0
  4 24  1  0  0  0
  5  6  1  0  0  0
  5 29  1  0  0  0
  6  7  1  0  0  0
  7  8  1  0  0  0
  7 30  1  0  0  0
  8  9  2  0  0  0
  8 10  1  0  0  0
 10 11  1  0  0  0
 10 31  1  0  0  0
 11 12  2  0  0  0
 11 13  1  0  0  0
 13 14  1  0  0  0
 13 32  1  0  0  0
 13 33  1  0  0  0
 14 19  1  0  0  0
 14 15  1  0  0  0
 15 16  1  0  0  0
 15 34  1  0  0  0
 15 35  1  0  0  0
 16 17  1  0  0  0
 16 36  1  0  0  0
 16 37  1  0  0  0
 17 18  1  0  0  0
 18 23  1  0  0  0
 18 19  1  0  0  0
 18 38  1  0  0  0
 19 20  1  0  0  0
 19 39  1  0  0  0
 20 21  1  0  0  0
 20 40  1  0  0  0
 20 41  1  0  0  0
 21 22  1  0  0  0
 21 42  1  0  0  0
 21 43  1  0  0  0
 22 23  1  0  0  0
 22 44  1  0  0  0
 22 45  1  0  0  0
 23 46  1  0  0  0
 23 47  1  0  0  0
 24 25  1  0  0  0
 25 26  1  0  0  0
 25 48  1  0  0  0
 25 49  1  0  0  0
M  END
> <i_i_glide_confnum>
3

> <i_i_glide_lignum>
1501

> <i_i_glide_posenum>
229

> <i_i_glide_rotatable_bonds>
6

> <i_m_Source_File_Index>
2575

> <b_m_subgroup_collapsed>
0

> <r_i_docking_score>
-4.08012

> <r_i_glide_ecoul>
-0.874855

> <r_i_glide_eff_state_penalty>
0

> <r_i_glide_einternal>
6.8529

> <r_i_glide_emodel>
-44.4797

> <r_i_glide_energy>
-39.3259

> <r_i_glide_erotb>
0.587729

> <r_i_glide_esite>
0

> <r_i_glide_evdw>
-38.4511

> <r_i_glide_gscore>
-4.08012

> <r_i_glide_hbond>
-0.154375

> <r_i_glide_ligand_efficiency>
-0.156928

> <r_i_glide_ligand_efficiency_ln>
-0.958204

> <r_i_glide_ligand_efficiency_sa>
-0.464898

> <r_i_glide_lipo>
-1.42904

> <r_i_glide_metal>
0

> <r_i_glide_rewards>
-1.03065

> <s_i_glide_gridfile>
wee1_glide-grid

> <s_m_Source_File>
wee1_decoys_glide_SP.sdf

> <s_m_Source_Path>
/Users/zhangxujun/Desktop

> <s_m_entry_id>
2850

> <s_m_entry_name>
wee1_decoys_glide_SP.2575

> <s_m_subgroup_title>
wee1_decoys_glide_SP

> <s_m_subgroupid>
wee1_decoys_glide_SP


$$$$
