@<TRIPOS>MOLECULE
ZINC45071634_4738
44   46    1
SMALL
USER_CHARGES


@<TRIPOS>ATOM
      1 C1          0.3027   50.6806   26.2919 C.ar      1 UNK         0.0000 
      2 C2          0.5491   50.1791   25.0140 C.ar      1 UNK         0.0000 
      3 C3          1.1042   51.0007   24.0319 C.ar      1 UNK         0.0000 
      4 C4          1.3871   52.3356   24.3292 C.ar      1 UNK         0.0000 
      5 C5          1.1063   52.8333   25.6026 C.ar      1 UNK         0.0000 
      6 C6          0.6200   52.0074   26.6217 C.ar      1 UNK         0.0000 
      7 N7          0.4638   52.4865   27.9379 N.pl3     1 UNK         0.0000 
      8 C8         -0.0702   51.6970   29.0400 C.3       1 UNK         0.0000 
      9 C9         -0.3253   52.6313   30.2007 C.3       1 UNK         0.0000 
     10 C10         0.7838   53.6411   30.0820 C.3       1 UNK         0.0000 
     11 C11         1.0875   53.6707   28.5686 C.3       1 UNK         0.0000 
     12 H12         0.6223   54.5625   28.1455 H         1 UNK         0.0000 
     13 C13         2.6061   53.8402   28.2840 C.3       1 UNK         0.0000 
     14 C14         3.3449   54.9622   29.0195 C.3       1 UNK         0.0000 
     15 C15         4.8358   54.6214   28.8787 C.3       1 UNK         0.0000 
     16 C16         4.9011   53.1174   28.5682 C.3       1 UNK         0.0000 
     17 C17         3.4605   52.6154   28.6076 C.3       1 UNK         0.0000 
     18 S18         2.1336   53.4394   23.1355 S.o2      1 UNK         0.0000 
     19 O19         1.5044   54.7400   23.3494 O.2       1 UNK         0.0000 
     20 O20         3.5875   53.2968   23.2291 O.2       1 UNK         0.0000 
     21 N21         1.6548   52.8966   21.5552 N.pl3     1 UNK         0.0000 
     22 N22         0.3037   48.8356   24.7509 N.pl3     1 UNK         0.0000 
     23 H23        -0.0951   50.0117   27.0416 H         1 UNK         0.0000 
     24 H24         1.3222   50.6032   23.0514 H         1 UNK         0.0000 
     25 H25         1.2997   53.8753   25.7958 H         1 UNK         0.0000 
     26 H26         0.6254   50.8966   29.2819 H         1 UNK         0.0000 
     27 H27        -1.0000   51.2182   28.7275 H         1 UNK         0.0000 
     28 H28        -0.3272   52.1105   31.1599 H         1 UNK         0.0000 
     29 H29        -1.2956   53.0916   30.0813 H         1 UNK         0.0000 
     30 H30         1.6288   53.3386   30.6984 H         1 UNK         0.0000 
     31 H31         0.4121   54.6038   30.4360 H         1 UNK         0.0000 
     32 H32         2.7770   54.0514   27.2308 H         1 UNK         0.0000 
     33 H33         3.1012   54.9470   30.0802 H         1 UNK         0.0000 
     34 H34         3.0585   55.9551   28.6754 H         1 UNK         0.0000 
     35 H35         5.3960   54.8967   29.7736 H         1 UNK         0.0000 
     36 H36         5.2727   55.1893   28.0550 H         1 UNK         0.0000 
     37 H37         5.5043   52.5667   29.2816 H         1 UNK         0.0000 
     38 H38         5.3315   52.9490   27.5795 H         1 UNK         0.0000 
     39 H39         3.2350   51.7713   27.9599 H         1 UNK         0.0000 
     40 H40         3.2447   52.2594   29.6147 H         1 UNK         0.0000 
     41 H41         1.5044   53.7112   20.9398 H         1 UNK         0.0000 
     42 H42         2.3432   52.2702   21.1322 H         1 UNK         0.0000 
     43 H43         0.9326   48.4201   24.0795 H         1 UNK         0.0000 
     44 H44         0.0584   48.2807   25.5630 H         1 UNK         0.0000 
@<TRIPOS>BOND
     1    1    6 ar   
     2    1    2 ar   
     3    1   23 1    
     4    2    3 ar   
     5    2   22 1    
     6    3    4 ar   
     7    3   24 1    
     8    4    5 ar   
     9    4   18 1    
    10    5    6 ar   
    11    5   25 1    
    12    6    7 1    
    13    7   11 1    
    14    7    8 1    
    15    8    9 1    
    16    8   26 1    
    17    8   27 1    
    18    9   10 1    
    19    9   28 1    
    20    9   29 1    
    21   10   11 1    
    22   10   30 1    
    23   10   31 1    
    24   11   12 1    
    25   11   13 1    
    26   13   17 1    
    27   13   14 1    
    28   13   32 1    
    29   14   15 1    
    30   14   33 1    
    31   14   34 1    
    32   15   16 1    
    33   15   35 1    
    34   15   36 1    
    35   16   17 1    
    36   16   37 1    
    37   16   38 1    
    38   17   39 1    
    39   17   40 1    
    40   18   19 2    
    41   18   20 2    
    42   18   21 1    
    43   21   41 1    
    44   21   42 1    
    45   22   43 1    
    46   22   44 1    
@<TRIPOS>SUBSTRUCTURE
     1 UNK         1 GROUP             0       ****    0 ROOT    
