ZINC20463712_2141
                    3D
 Schrodinger Suite 2024-2.
 50 53  0  0  1  0            999 V2000
    6.3769   54.3625   25.7387 C   0  0  0  0  0  0
    5.1921   54.6150   25.0506 C   0  0  0  0  0  0
    3.9822   54.6128   25.7391 C   0  0  0  0  0  0
    3.9389   54.3606   27.1134 C   0  0  0  0  0  0
    5.1421   54.0964   27.7945 C   0  0  0  0  0  0
    6.3560   54.0979   27.1073 C   0  0  0  0  0  0
    2.6864   54.3983   27.7079 O   0  0  0  0  0  0
    2.5245   54.0014   29.0731 C   0  0  2  0  0  0
    3.2882   54.5003   29.6703 H   0  0  0  0  0  0
    2.5737   52.4543   29.2227 C   0  0  2  0  0  0
    3.3592   52.0436   28.5855 H   0  0  0  0  0  0
    1.2068   51.8062   28.8674 C   0  0  1  0  0  0
    1.1713   50.7742   29.1999 H   0  0  0  0  0  0
    0.0201   52.6451   29.4109 C   0  0  1  0  0  0
   -0.9327   52.1774   29.1679 H   0  0  0  0  0  0
    0.0975   53.0177   30.8996 C   0  0  0  0  0  0
    0.9337   54.1715   30.8812 O   0  0  0  0  0  0
    1.1599   54.5525   29.5575 C   0  0  2  0  0  0
    1.1050   55.6373   29.4517 H   0  0  0  0  0  0
    0.1170   53.9426   28.8596 O   0  0  0  0  0  0
    1.1209   51.8023   27.3244 N   0  3  0  0  0  0
    0.1328   50.8137   26.6754 C   0  0  0  0  0  0
   -1.1362   51.4759   26.1743 C   0  0  0  0  0  0
   -1.1245   52.1629   24.9576 C   0  0  0  0  0  0
   -2.2972   52.7386   24.4754 C   0  0  0  0  0  0
   -3.4878   52.6465   25.2007 C   0  0  0  0  0  0
   -3.4950   51.9396   26.4164 C   0  0  0  0  0  0
   -2.3272   51.3467   26.8920 C   0  0  0  0  0  0
   -4.5887   53.2583   24.6341 O   0  0  0  0  0  0
   -5.7916   53.4144   25.3780 C   0  0  0  0  0  0
   -6.6532   54.0914   24.6191 F   0  0  0  0  0  0
   -5.5874   54.1378   26.4818 F   0  0  0  0  0  0
   -6.3517   52.2388   25.6769 F   0  0  0  0  0  0
    2.9997   52.0970   30.5234 O   0  0  0  0  0  0
    7.3138   54.3597   25.2011 H   0  0  0  0  0  0
    5.2155   54.8098   23.9875 H   0  0  0  0  0  0
    3.0705   54.8154   25.1996 H   0  0  0  0  0  0
    5.1667   53.8919   28.8521 H   0  0  0  0  0  0
    7.2758   53.8979   27.6385 H   0  0  0  0  0  0
    0.5014   52.1994   31.4962 H   0  0  0  0  0  0
   -0.8778   53.2894   31.2930 H   0  0  0  0  0  0
    2.0433   51.5971   26.9686 H   0  0  0  0  0  0
   -0.0724   50.0163   27.3899 H   0  0  0  0  0  0
    0.6958   50.3810   25.8459 H   0  0  0  0  0  0
   -0.2123   52.2490   24.3841 H   0  0  0  0  0  0
   -2.2830   53.2707   23.5366 H   0  0  0  0  0  0
   -4.3961   51.8272   26.9979 H   0  0  0  0  0  0
   -2.3532   50.7767   27.8116 H   0  0  0  0  0  0
    2.4000   52.4979   31.1622 H   0  0  0  0  0  0
    0.8964   52.7419   27.0222 H   0  0  0  0  0  0
  1  6  2  0  0  0
  1  2  1  0  0  0
  1 35  1  0  0  0
  2  3  2  0  0  0
  2 36  1  0  0  0
  3  4  1  0  0  0
  3 37  1  0  0  0
  4  5  2  0  0  0
  4  7  1  0  0  0
  5  6  1  0  0  0
  5 38  1  0  0  0
  6 39  1  0  0  0
  7  8  1  0  0  0
  8  9  1  0  0  0
  8 18  1  0  0  0
  8 10  1  0  0  0
 10 11  1  0  0  0
 10 12  1  0  0  0
 10 34  1  0  0  0
 12 13  1  0  0  0
 12 14  1  0  0  0
 12 21  1  0  0  0
 14 15  1  0  0  0
 14 20  1  0  0  0
 14 16  1  0  0  0
 16 17  1  0  0  0
 16 40  1  0  0  0
 16 41  1  0  0  0
 17 18  1  0  0  0
 18 19  1  0  0  0
 18 20  1  0  0  0
 21 22  1  0  0  0
 21 42  1  0  0  0
 21 50  1  0  0  0
 22 23  1  0  0  0
 22 43  1  0  0  0
 22 44  1  0  0  0
 23 28  2  0  0  0
 23 24  1  0  0  0
 24 25  2  0  0  0
 24 45  1  0  0  0
 25 26  1  0  0  0
 25 46  1  0  0  0
 26 27  2  0  0  0
 26 29  1  0  0  0
 27 28  1  0  0  0
 27 47  1  0  0  0
 28 48  1  0  0  0
 29 30  1  0  0  0
 30 31  1  0  0  0
 30 32  1  0  0  0
 30 33  1  0  0  0
 34 49  1  0  0  0
M  CHG  1  21   1
M  END
> <i_i_glide_confnum>
4

> <i_i_glide_lignum>
2142

> <i_i_glide_posenum>
364

> <i_i_glide_rotatable_bonds>
8

> <i_m_Source_File_Index>
933

> <b_m_subgroup_collapsed>
0

> <r_i_docking_score>
-5.02042

> <r_i_glide_ecoul>
-1.56721

> <r_i_glide_eff_state_penalty>
0

> <r_i_glide_einternal>
4.1553

> <r_i_glide_emodel>
-50.6458

> <r_i_glide_energy>
-38.962

> <r_i_glide_erotb>
0.69571

> <r_i_glide_esite>
-0.0356707

> <r_i_glide_evdw>
-37.3948

> <r_i_glide_gscore>
-5.02042

> <r_i_glide_hbond>
-0.0311992

> <r_i_glide_ligand_efficiency>
-0.173118

> <r_i_glide_ligand_efficiency_ln>
-1.14955

> <r_i_glide_ligand_efficiency_sa>
-0.531873

> <r_i_glide_lipo>
-2.52626

> <r_i_glide_metal>
0

> <r_i_glide_rewards>
-1.01818

> <s_i_glide_gridfile>
wee1_glide-grid

> <s_m_Source_File>
wee1_decoys_glide_SP.sdf

> <s_m_Source_Path>
/Users/zhangxujun/Desktop

> <s_m_entry_id>
1208

> <s_m_entry_name>
wee1_decoys_glide_SP.933

> <s_m_subgroup_title>
wee1_decoys_glide_SP

> <s_m_subgroupid>
wee1_decoys_glide_SP


$$$$
