@<TRIPOS>MOLECULE
ZINC38621035_3991
66   70    1
SMALL
USER_CHARGES


@<TRIPOS>ATOM
      1 C1         -5.1737   49.8319   31.3450 C.3       1 UNK         0.0000 
      2 C2         -5.4377   48.6394   30.4421 C.ar      1 UNK         0.0000 
      3 C3         -6.5845   47.8575   30.5999 C.ar      1 UNK         0.0000 
      4 C4         -6.8293   46.7916   29.7331 C.ar      1 UNK         0.0000 
      5 C5         -5.9271   46.4963   28.7099 C.ar      1 UNK         0.0000 
      6 C6         -4.7621   47.2649   28.5494 C.ar      1 UNK         0.0000 
      7 C7         -4.5348   48.3344   29.4219 C.ar      1 UNK         0.0000 
      8 N8         -3.7913   47.0818   27.5455 N.am      1 UNK         0.0000 
      9 C9         -3.8307   46.2995   26.4364 C.2       1 UNK         0.0000 
     10 O10        -4.6698   45.4174   26.2349 O.2       1 UNK         0.0000 
     11 C11        -2.8093   46.5961   25.3736 C.2       1 UNK         0.0000 
     12 O12        -2.9168   46.0969   24.2496 O.2       1 UNK         0.0000 
     13 N13        -1.7908   47.4286   25.6818 N.am      1 UNK         0.0000 
     14 C14        -0.7819   47.8966   24.7235 C.3       1 UNK         0.0000 
     15 C15        -0.9752   49.3900   24.3412 C.3       1 UNK         0.0000 
     16 H16        -2.0297   49.4524   24.0618 H         1 UNK         0.0000 
     17 C17        -0.7934   50.3653   25.5161 C.ar      1 UNK         0.0000 
     18 C18        -1.7327   51.3993   25.7099 C.ar      1 UNK         0.0000 
     19 C19        -1.5833   52.3256   26.7492 C.ar      1 UNK         0.0000 
     20 C20        -0.4877   52.1829   27.5905 C.ar      1 UNK         0.0000 
     21 C21         0.4240   51.1839   27.4170 C.ar      1 UNK         0.0000 
     22 C22         0.3047   50.2518   26.3904 C.ar      1 UNK         0.0000 
     23 O23         1.3992   51.2972   28.3582 O.3       1 UNK         0.0000 
     24 C24         0.9103   52.2366   29.2777 C.3       1 UNK         0.0000 
     25 O25        -0.1061   52.9597   28.6398 O.3       1 UNK         0.0000 
     26 N26        -0.2526   49.7708   23.1099 N.3       1 UNK         0.0000 
     27 C27        -0.5933   51.1192   22.6316 C.3       1 UNK         0.0000 
     28 C28         0.1446   51.5157   21.3272 C.3       1 UNK         0.0000 
     29 N29         1.5733   51.1720   21.2895 N.pl3     1 UNK         0.0000 
     30 C30         1.8006   49.7951   21.7368 C.3       1 UNK         0.0000 
     31 C31         1.1944   49.5344   23.1300 C.3       1 UNK         0.0000 
     32 C32         2.5939   52.1118   21.3380 C.ar      1 UNK         0.0000 
     33 C33         3.6886   51.9471   20.4828 C.ar      1 UNK         0.0000 
     34 C34         4.7531   52.8466   20.5009 C.ar      1 UNK         0.0000 
     35 C35         4.7523   53.9082   21.4031 C.ar      1 UNK         0.0000 
     36 C36         3.6832   54.0690   22.2835 C.ar      1 UNK         0.0000 
     37 C37         2.6086   53.1791   22.2559 C.ar      1 UNK         0.0000 
     38 F38         1.5966   53.3665   23.1368 F         1 UNK         0.0000 
     39 H39        -4.2506   49.6974   31.9151 H         1 UNK         0.0000 
     40 H40        -5.9943   50.0142   32.0437 H         1 UNK         0.0000 
     41 H41        -5.0367   50.7304   30.7405 H         1 UNK         0.0000 
     42 H42        -7.2932   48.0809   31.3840 H         1 UNK         0.0000 
     43 H43        -7.7231   46.1979   29.8522 H         1 UNK         0.0000 
     44 H44        -6.1586   45.6704   28.0564 H         1 UNK         0.0000 
     45 H45        -3.6551   48.9494   29.3025 H         1 UNK         0.0000 
     46 H46        -2.9908   47.6974   27.6754 H         1 UNK         0.0000 
     47 H47        -1.6846   47.7737   26.6370 H         1 UNK         0.0000 
     48 H48         0.1961   47.7301   25.1737 H         1 UNK         0.0000 
     49 H49        -0.7714   47.2906   23.8149 H         1 UNK         0.0000 
     50 H50        -2.5773   51.4942   25.0432 H         1 UNK         0.0000 
     51 H51        -2.2995   53.1218   26.8814 H         1 UNK         0.0000 
     52 H52         1.0419   49.4724   26.2714 H         1 UNK         0.0000 
     53 H53         1.7032   52.8987   29.6244 H         1 UNK         0.0000 
     54 H54         0.4872   51.7168   30.1397 H         1 UNK         0.0000 
     55 H55        -1.6697   51.2337   22.4967 H         1 UNK         0.0000 
     56 H56        -0.2518   51.8294   23.3858 H         1 UNK         0.0000 
     57 H57         0.0058   52.5812   21.1420 H         1 UNK         0.0000 
     58 H58        -0.3167   50.9972   20.4860 H         1 UNK         0.0000 
     59 H59         2.8707   49.5846   21.7803 H         1 UNK         0.0000 
     60 H60         1.3819   49.1074   21.0001 H         1 UNK         0.0000 
     61 H61         1.6832   50.1876   23.8564 H         1 UNK         0.0000 
     62 H62         1.4044   48.4975   23.3774 H         1 UNK         0.0000 
     63 H63         3.7088   51.1303   19.7732 H         1 UNK         0.0000 
     64 H64         5.5735   52.7129   19.8087 H         1 UNK         0.0000 
     65 H65         5.5782   54.6053   21.4204 H         1 UNK         0.0000 
     66 H66         3.6804   54.8924   22.9840 H         1 UNK         0.0000 
@<TRIPOS>BOND
     1    1    2 1    
     2    1   39 1    
     3    1   40 1    
     4    1   41 1    
     5    2    7 ar   
     6    2    3 ar   
     7    3    4 ar   
     8    3   42 1    
     9    4    5 ar   
    10    4   43 1    
    11    5    6 ar   
    12    5   44 1    
    13    6    7 ar   
    14    6    8 1    
    15    7   45 1    
    16    8    9 am   BACKBONE|DICT|INTERRES
    17    8   46 1    
    18    9   10 2    
    19    9   11 1    
    20   11   12 2    
    21   11   13 am   BACKBONE|DICT|INTERRES
    22   13   14 1    
    23   13   47 1    
    24   14   15 1    
    25   14   48 1    
    26   14   49 1    
    27   15   16 1    
    28   15   17 1    
    29   15   26 1    
    30   17   22 ar   
    31   17   18 ar   
    32   18   19 ar   
    33   18   50 1    
    34   19   20 ar   
    35   19   51 1    
    36   20   25 1    
    37   20   21 ar   
    38   21   22 ar   
    39   21   23 1    
    40   22   52 1    
    41   23   24 1    
    42   24   25 1    
    43   24   53 1    
    44   24   54 1    
    45   26   31 1    
    46   26   27 1    
    47   27   28 1    
    48   27   55 1    
    49   27   56 1    
    50   28   29 1    
    51   28   57 1    
    52   28   58 1    
    53   29   30 1    
    54   29   32 1    
    55   30   31 1    
    56   30   59 1    
    57   30   60 1    
    58   31   61 1    
    59   31   62 1    
    60   32   37 ar   
    61   32   33 ar   
    62   33   34 ar   
    63   33   63 1    
    64   34   35 ar   
    65   34   64 1    
    66   35   36 ar   
    67   35   65 1    
    68   36   37 ar   
    69   36   66 1    
    70   37   38 1    
@<TRIPOS>SUBSTRUCTURE
     1 UNK         1 GROUP             0       ****    0 ROOT    
