@<TRIPOS>MOLECULE
ZINC20702089_5148
67   71    1
SMALL
USER_CHARGES


@<TRIPOS>ATOM
      1 C1          7.1299   57.7829   16.7472 C.3       1 UNK         0.0000 
      2 C2          6.5233   57.1430   17.9881 C.2       1 UNK         0.0000 
      3 O3          6.3096   57.8073   19.0015 O.2       1 UNK         0.0000 
      4 O4          6.2713   55.8137   17.8106 O.3       1 UNK         0.0000 
      5 C5          5.6618   55.0669   18.8022 C.ar      1 UNK         0.0000 
      6 C6          4.4611   54.4383   18.4824 C.ar      1 UNK         0.0000 
      7 C7          3.7711   53.6969   19.4367 C.ar      1 UNK         0.0000 
      8 C8          4.2557   53.5672   20.7471 C.ar      1 UNK         0.0000 
      9 C9          5.5003   54.1382   21.0345 C.ar      1 UNK         0.0000 
     10 C10         6.2075   54.8980   20.0868 C.ar      1 UNK         0.0000 
     11 O11         7.4315   55.4874   20.3480 O.3       1 UNK         0.0000 
     12 C12         7.9125   55.5456   21.6816 C.3       1 UNK         0.0000 
     13 C13         3.4527   52.8192   21.8417 C.3       1 UNK         0.0000 
     14 H14         4.0671   51.9501   22.0794 H         1 UNK         0.0000 
     15 C15         3.2470   53.6474   23.1561 C.3       1 UNK         0.0000 
     16 H16         2.7384   54.5675   22.8525 H         1 UNK         0.0000 
     17 C17         4.4277   54.0670   24.0416 C.3       1 UNK         0.0000 
     18 C18         3.7476   54.2992   25.3830 C.2       1 UNK         0.0000 
     19 C19         2.5454   53.6967   25.4137 C.2       1 UNK         0.0000 
     20 C20         2.3652   52.8948   24.1443 C.3       1 UNK         0.0000 
     21 H21         2.7044   51.8787   24.3262 H         1 UNK         0.0000 
     22 C22         1.0105   52.6869   23.5189 C.ar      1 UNK         0.0000 
     23 C23        -0.1716   52.7357   24.2535 C.ar      1 UNK         0.0000 
     24 C24        -1.3912   52.4195   23.6641 C.ar      1 UNK         0.0000 
     25 C25        -1.4428   52.0853   22.3087 C.ar      1 UNK         0.0000 
     26 C26        -0.2646   52.0417   21.5597 C.ar      1 UNK         0.0000 
     27 C27         0.9649   52.3142   22.1637 C.ar      1 UNK         0.0000 
     28 N28         2.1467   52.2774   21.3835 N.pl3     1 UNK         0.0000 
     29 S29        -2.8549   52.3341   24.6905 S.o2      1 UNK         0.0000 
     30 O30        -2.4390   52.5022   26.0875 O.2       1 UNK         0.0000 
     31 O31        -3.8278   53.2448   24.0820 O.2       1 UNK         0.0000 
     32 N32        -3.4795   50.6958   24.5044 N.pl3     1 UNK         0.0000 
     33 C33        -2.7993   49.4758   25.0238 C.3       1 UNK         0.0000 
     34 C34        -3.4433   48.2762   24.2991 C.3       1 UNK         0.0000 
     35 C35        -2.7752   46.9576   24.7341 C.3       1 UNK         0.0000 
     36 C36        -1.2490   47.0027   24.5029 C.3       1 UNK         0.0000 
     37 C37        -0.5775   48.2173   25.1766 C.3       1 UNK         0.0000 
     38 C38        -1.2693   49.5379   24.7987 C.3       1 UNK         0.0000 
     39 H39         6.5092   57.5821   15.8751 H         1 UNK         0.0000 
     40 H40         8.1303   57.3903   16.5698 H         1 UNK         0.0000 
     41 H41         7.2007   58.8657   16.8776 H         1 UNK         0.0000 
     42 H42         4.0466   54.5443   17.4916 H         1 UNK         0.0000 
     43 H43         2.8263   53.2645   19.1464 H         1 UNK         0.0000 
     44 H44         5.9273   53.9798   22.0056 H         1 UNK         0.0000 
     45 H45         8.8531   56.0935   21.6822 H         1 UNK         0.0000 
     46 H46         7.2215   56.0704   22.3441 H         1 UNK         0.0000 
     47 H47         8.1099   54.5503   22.0803 H         1 UNK         0.0000 
     48 H48         5.2011   53.3013   24.0983 H         1 UNK         0.0000 
     49 H49         4.8943   54.9790   23.6818 H         1 UNK         0.0000 
     50 H50         4.2013   54.8800   26.1719 H         1 UNK         0.0000 
     51 H51         1.8578   53.6660   26.2476 H         1 UNK         0.0000 
     52 H52        -0.1303   52.9509   25.3085 H         1 UNK         0.0000 
     53 H53        -2.3881   51.8358   21.8493 H         1 UNK         0.0000 
     54 H54        -0.3097   51.7759   20.5133 H         1 UNK         0.0000 
     55 H55         2.1522   51.8764   20.4567 H         1 UNK         0.0000 
     56 H56        -4.1519   50.5514   23.7479 H         1 UNK         0.0000 
     57 H57        -2.9905   49.3713   26.0961 H         1 UNK         0.0000 
     58 H58        -4.5158   48.2389   24.5023 H         1 UNK         0.0000 
     59 H59        -3.3384   48.3921   23.2180 H         1 UNK         0.0000 
     60 H60        -2.9751   46.7810   25.7950 H         1 UNK         0.0000 
     61 H61        -3.2143   46.1216   24.1909 H         1 UNK         0.0000 
     62 H62        -0.7900   46.0963   24.8846 H         1 UNK         0.0000 
     63 H63        -1.0449   47.0258   23.4305 H         1 UNK         0.0000 
     64 H64        -0.5961   48.0990   26.2606 H         1 UNK         0.0000 
     65 H65         0.4794   48.2576   24.9034 H         1 UNK         0.0000 
     66 H66        -1.0535   49.7334   23.7494 H         1 UNK         0.0000 
     67 H67        -0.8243   50.3482   25.3786 H         1 UNK         0.0000 
@<TRIPOS>BOND
     1    1    2 1    
     2    1   39 1    
     3    1   40 1    
     4    1   41 1    
     5    2    3 2    
     6    2    4 1    
     7    4    5 1    
     8    5   10 ar   
     9    5    6 ar   
    10    6    7 ar   
    11    6   42 1    
    12    7    8 ar   
    13    7   43 1    
    14    8    9 ar   
    15    8   13 1    
    16    9   10 ar   
    17    9   44 1    
    18   10   11 1    
    19   11   12 1    
    20   12   45 1    
    21   12   46 1    
    22   12   47 1    
    23   13   14 1    
    24   13   28 1    
    25   13   15 1    
    26   15   16 1    
    27   15   20 1    
    28   15   17 1    
    29   17   18 1    
    30   17   48 1    
    31   17   49 1    
    32   18   19 2    
    33   18   50 1    
    34   19   20 1    
    35   19   51 1    
    36   20   21 1    
    37   20   22 1    
    38   22   27 ar   
    39   22   23 ar   
    40   23   24 ar   
    41   23   52 1    
    42   24   25 ar   
    43   24   29 1    
    44   25   26 ar   
    45   25   53 1    
    46   26   27 ar   
    47   26   54 1    
    48   27   28 1    
    49   28   55 1    
    50   29   30 2    
    51   29   31 2    
    52   29   32 1    
    53   32   33 1    
    54   32   56 1    
    55   33   38 1    
    56   33   34 1    
    57   33   57 1    
    58   34   35 1    
    59   34   58 1    
    60   34   59 1    
    61   35   36 1    
    62   35   60 1    
    63   35   61 1    
    64   36   37 1    
    65   36   62 1    
    66   36   63 1    
    67   37   38 1    
    68   37   64 1    
    69   37   65 1    
    70   38   66 1    
    71   38   67 1    
@<TRIPOS>SUBSTRUCTURE
     1 UNK         1 GROUP             0       ****    0 ROOT    
