@<TRIPOS>MOLECULE
ZINC32577036_5044
59   63    1
SMALL
USER_CHARGES


@<TRIPOS>ATOM
      1 C1         -3.9977   50.3649   23.0587 C.3       1 UNK         0.0000 
      2 C2         -2.6360   50.9616   23.3641 C.ar      1 UNK         0.0000 
      3 C3         -2.4890   52.3473   23.4461 C.ar      1 UNK         0.0000 
      4 C4         -1.2454   52.8967   23.7396 C.ar      1 UNK         0.0000 
      5 C5         -0.1463   52.0584   23.9550 C.ar      1 UNK         0.0000 
      6 C6         -0.2942   50.6681   23.8822 C.ar      1 UNK         0.0000 
      7 C7         -1.5412   50.1231   23.5877 C.ar      1 UNK         0.0000 
      8 N8          1.1169   52.6230   24.2510 N.pl3     1 UNK         0.0000 
      9 C9          1.3783   52.8162   25.6099 C.ar      1 UNK         0.0000 
     10 O10         0.5957   52.4967   26.5115 O.2       1 UNK         0.0000 
     11 C11         2.6846   53.4428   25.8179 C.ar      1 UNK         0.0000 
     12 C12         3.3222   53.7678   27.0343 C.2       1 UNK         0.0000 
     13 C13         4.5833   54.3513   26.8186 C.2       1 UNK         0.0000 
     14 S14         4.9645   54.4967   25.1301 S.3       1 UNK         0.0000 
     15 C15         3.4484   53.7812   24.7077 C.ar      1 UNK         0.0000 
     16 N16         3.1044   53.5386   23.4176 N.2       1 UNK         0.0000 
     17 C17         1.9835   52.9398   23.1925 C.ar      1 UNK         0.0000 
     18 S18         1.5917   52.4967   21.4685 S.3       1 UNK         0.0000 
     19 C19         3.1044   52.9758   20.5577 C.3       1 UNK         0.0000 
     20 C20         2.9339   52.9140   19.0349 C.2       1 UNK         0.0000 
     21 O21         2.2930   51.9894   18.5281 O.2       1 UNK         0.0000 
     22 N22         3.5044   53.9164   18.3349 N.am      1 UNK         0.0000 
     23 N23         3.3921   54.0251   16.9940 N.2       1 UNK         0.0000 
     24 C24         3.9054   55.0558   16.4372 C.2       1 UNK         0.0000 
     25 C25         4.7499   56.1375   16.9896 C.ar      1 UNK         0.0000 
     26 C26         5.7288   55.9238   17.9729 C.ar      1 UNK         0.0000 
     27 C27         6.5187   56.9789   18.4272 C.ar      1 UNK         0.0000 
     28 C28         6.3426   58.2549   17.8982 C.ar      1 UNK         0.0000 
     29 C29         5.3921   58.4782   16.9063 C.ar      1 UNK         0.0000 
     30 C30         4.6025   57.4244   16.4557 C.ar      1 UNK         0.0000 
     31 O31         7.1044   59.2967   18.3588 O.3       1 UNK         0.0000 
     32 C32         5.5604   54.7400   27.9195 C.3       1 UNK         0.0000 
     33 C33         4.7981   54.8089   29.2610 C.3       1 UNK         0.0000 
     34 C34         3.9342   53.5553   29.4766 C.3       1 UNK         0.0000 
     35 C35         2.7933   53.4667   28.4396 C.3       1 UNK         0.0000 
     36 H36        -4.7973   50.9943   23.4517 H         1 UNK         0.0000 
     37 H37        -4.1361   50.2546   21.9830 H         1 UNK         0.0000 
     38 H38        -4.1115   49.3879   23.5303 H         1 UNK         0.0000 
     39 H39        -3.3346   52.9994   23.2853 H         1 UNK         0.0000 
     40 H40        -1.1360   53.9690   23.8030 H         1 UNK         0.0000 
     41 H41         0.5488   50.0139   24.0562 H         1 UNK         0.0000 
     42 H42        -1.6536   49.0499   23.5372 H         1 UNK         0.0000 
     43 H43         3.9182   52.3131   20.8511 H         1 UNK         0.0000 
     44 H44         3.3973   53.9819   20.8614 H         1 UNK         0.0000 
     45 H45         3.9894   54.6733   18.7923 H         1 UNK         0.0000 
     46 H46         3.7057   55.1946   15.3779 H         1 UNK         0.0000 
     47 H47         5.9116   54.9370   18.3729 H         1 UNK         0.0000 
     48 H48         7.2724   56.8048   19.1802 H         1 UNK         0.0000 
     49 H49         5.2604   59.4639   16.4818 H         1 UNK         0.0000 
     50 H50         3.8705   57.6259   15.6856 H         1 UNK         0.0000 
     51 H51         6.7414   60.1757   18.0817 H         1 UNK         0.0000 
     52 H52         6.3476   53.9885   27.9935 H         1 UNK         0.0000 
     53 H53         6.0561   55.6873   27.7069 H         1 UNK         0.0000 
     54 H54         5.5044   54.9371   30.0803 H         1 UNK         0.0000 
     55 H55         4.1503   55.6867   29.2817 H         1 UNK         0.0000 
     56 H56         4.5628   52.6651   29.4097 H         1 UNK         0.0000 
     57 H57         3.5159   53.5493   30.4817 H         1 UNK         0.0000 
     58 H58         2.0039   54.1764   28.6907 H         1 UNK         0.0000 
     59 H59         2.3346   52.4782   28.4888 H         1 UNK         0.0000 
@<TRIPOS>BOND
     1    1    2 1    
     2    1   36 1    
     3    1   37 1    
     4    1   38 1    
     5    2    7 ar   
     6    2    3 ar   
     7    3    4 ar   
     8    3   39 1    
     9    4    5 ar   
    10    4   40 1    
    11    5    6 ar   
    12    5    8 1    
    13    6    7 ar   
    14    6   41 1    
    15    7   42 1    
    16    8   17 ar   
    17    8    9 ar   
    18    9   10 2    
    19    9   11 ar   
    20   11   15 ar   
    21   11   12 1    
    22   12   35 1    
    23   12   13 2    
    24   13   14 1    
    25   13   32 1    
    26   14   15 1    
    27   15   16 ar   
    28   16   17 ar   
    29   17   18 1    
    30   18   19 1    
    31   19   20 1    
    32   19   43 1    
    33   19   44 1    
    34   20   21 2    
    35   20   22 am   BACKBONE|DICT|INTERRES
    36   22   23 1    
    37   22   45 1    
    38   23   24 2    
    39   24   25 1    
    40   24   46 1    
    41   25   30 ar   
    42   25   26 ar   
    43   26   27 ar   
    44   26   47 1    
    45   27   28 ar   
    46   27   48 1    
    47   28   29 ar   
    48   28   31 1    
    49   29   30 ar   
    50   29   49 1    
    51   30   50 1    
    52   31   51 1    
    53   32   33 1    
    54   32   52 1    
    55   32   53 1    
    56   33   34 1    
    57   33   54 1    
    58   33   55 1    
    59   34   35 1    
    60   34   56 1    
    61   34   57 1    
    62   35   58 1    
    63   35   59 1    
@<TRIPOS>SUBSTRUCTURE
     1 UNK         1 GROUP             0       ****    0 ROOT    
