@<TRIPOS>MOLECULE
ZINC34974539_2413
58   60    1
SMALL
USER_CHARGES


@<TRIPOS>ATOM
      1 C1          1.5767   53.5975   27.5517 C.3       1 UNK         0.0000 
      2 C2          2.3014   52.8411   26.4153 C.3       1 UNK         0.0000 
      3 H3          2.9499   52.1120   26.8956 H         1 UNK         0.0000 
      4 C4          1.3249   51.9860   25.5508 C.3       1 UNK         0.0000 
      5 N5          0.4856   52.8507   24.7065 N.am      1 UNK         0.0000 
      6 C6          1.0999   54.0942   24.1949 C.3       1 UNK         0.0000 
      7 C7          2.6417   53.9559   24.1504 C.3       1 UNK         0.0000 
      8 N8          3.1314   53.6951   25.5265 N.am      1 UNK         0.0000 
      9 C9          4.3619   54.1623   25.8933 C.2       1 UNK         0.0000 
     10 O10         5.0310   54.8843   25.1469 O.2       1 UNK         0.0000 
     11 C11         4.9647   53.7623   27.2707 C.3       1 UNK         0.0000 
     12 C12         6.4639   53.4914   27.2868 C.3       1 UNK         0.0000 
     13 C13         5.9281   54.7605   27.8899 C.3       1 UNK         0.0000 
     14 C14        -0.8007   52.5404   24.3683 C.2       1 UNK         0.0000 
     15 O15        -1.5003   53.2990   23.6986 O.2       1 UNK         0.0000 
     16 C16        -1.4135   51.1565   24.7639 C.3       1 UNK         0.0000 
     17 H17        -1.0720   50.9023   25.7637 H         1 UNK         0.0000 
     18 C18        -2.9772   51.1735   24.9408 C.3       1 UNK         0.0000 
     19 C19        -3.4642   52.1824   26.0042 C.3       1 UNK         0.0000 
     20 C20        -3.8250   51.2999   23.6567 C.3       1 UNK         0.0000 
     21 N21        -0.9510   50.0567   23.9026 N.am      1 UNK         0.0000 
     22 C22        -0.7779   50.0525   22.5685 C.2       1 UNK         0.0000 
     23 O23        -1.0645   50.9775   21.8070 O.2       1 UNK         0.0000 
     24 N24        -0.2346   48.8962   22.1707 N.am      1 UNK         0.0000 
     25 C25         0.2053   48.6226   20.8722 C.ar      1 UNK         0.0000 
     26 C26        -0.4938   47.6592   20.1407 C.ar      1 UNK         0.0000 
     27 C27        -0.0433   47.2749   18.8778 C.ar      1 UNK         0.0000 
     28 C28         1.1105   47.8477   18.3450 C.ar      1 UNK         0.0000 
     29 C29         1.8099   48.8122   19.0701 C.ar      1 UNK         0.0000 
     30 C30         1.3734   49.1994   20.3394 C.ar      1 UNK         0.0000 
     31 Cl31        2.3289   50.3381   21.2328 Cl        1 UNK         0.0000 
     32 Cl32        1.6771   47.3431   16.7940 Cl        1 UNK         0.0000 
     33 H33         0.8080   52.9751   28.0127 H         1 UNK         0.0000 
     34 H34         2.2581   53.8696   28.3549 H         1 UNK         0.0000 
     35 H35         1.1045   54.5092   27.2026 H         1 UNK         0.0000 
     36 H36         0.7709   51.3764   26.2589 H         1 UNK         0.0000 
     37 H37         1.9038   51.3498   24.8813 H         1 UNK         0.0000 
     38 H38         0.7591   54.3205   23.1844 H         1 UNK         0.0000 
     39 H39         0.8521   54.8966   24.8747 H         1 UNK         0.0000 
     40 H40         2.9000   53.1225   23.4965 H         1 UNK         0.0000 
     41 H41         3.0301   54.8924   23.7446 H         1 UNK         0.0000 
     42 H42         4.3541   53.1714   27.9474 H         1 UNK         0.0000 
     43 H43         6.8406   52.7121   27.9502 H         1 UNK         0.0000 
     44 H44         7.0271   53.5339   26.3526 H         1 UNK         0.0000 
     45 H45         6.1580   55.6967   27.3855 H         1 UNK         0.0000 
     46 H46         5.9060   54.8788   28.9742 H         1 UNK         0.0000 
     47 H47        -3.2311   50.1926   25.3484 H         1 UNK         0.0000 
     48 H48        -3.2934   53.2147   25.6971 H         1 UNK         0.0000 
     49 H49        -4.5330   52.0695   26.1888 H         1 UNK         0.0000 
     50 H50        -2.9537   52.0275   26.9540 H         1 UNK         0.0000 
     51 H51        -3.6940   52.2664   23.1739 H         1 UNK         0.0000 
     52 H52        -3.5828   50.5242   22.9313 H         1 UNK         0.0000 
     53 H53        -4.8871   51.2007   23.8825 H         1 UNK         0.0000 
     54 H54        -0.6929   49.2255   24.4123 H         1 UNK         0.0000 
     55 H55        -0.1915   48.1351   22.8333 H         1 UNK         0.0000 
     56 H56        -1.3833   47.2009   20.5499 H         1 UNK         0.0000 
     57 H57        -0.5838   46.5301   18.3141 H         1 UNK         0.0000 
     58 H58         2.7047   49.2503   18.6539 H         1 UNK         0.0000 
@<TRIPOS>BOND
     1    1    2 1    
     2    1   33 1    
     3    1   34 1    
     4    1   35 1    
     5    2    3 1    
     6    2    8 1    
     7    2    4 1    
     8    4    5 1    
     9    4   36 1    
    10    4   37 1    
    11    5    6 1    
    12    5   14 am   BACKBONE|DICT|INTERRES
    13    6    7 1    
    14    6   38 1    
    15    6   39 1    
    16    7    8 1    
    17    7   40 1    
    18    7   41 1    
    19    8    9 am   BACKBONE|DICT|INTERRES
    20    9   10 2    
    21    9   11 1    
    22   11   13 1    
    23   11   12 1    
    24   11   42 1    
    25   12   13 1    
    26   12   43 1    
    27   12   44 1    
    28   13   45 1    
    29   13   46 1    
    30   14   15 2    
    31   14   16 1    
    32   16   17 1    
    33   16   18 1    
    34   16   21 1    
    35   18   19 1    
    36   18   20 1    
    37   18   47 1    
    38   19   48 1    
    39   19   49 1    
    40   19   50 1    
    41   20   51 1    
    42   20   52 1    
    43   20   53 1    
    44   21   22 am   BACKBONE|DICT|INTERRES
    45   21   54 1    
    46   22   23 2    
    47   22   24 am   BACKBONE|DICT|INTERRES
    48   24   25 1    
    49   24   55 1    
    50   25   30 ar   
    51   25   26 ar   
    52   26   27 ar   
    53   26   56 1    
    54   27   28 ar   
    55   27   57 1    
    56   28   29 ar   
    57   28   32 1    
    58   29   30 ar   
    59   29   58 1    
    60   30   31 1    
@<TRIPOS>SUBSTRUCTURE
     1 UNK         1 GROUP             0       ****    0 ROOT    
