ZINC63375353_5471
                    3D
 Schrodinger Suite 2024-2.
 68 74  0  0  1  0            999 V2000
   -1.2248   50.3968   24.9090 C   0  0  0  0  0  0
    0.0018   49.9173   24.4567 C   0  0  0  0  0  0
    0.6122   50.5184   23.3583 C   0  0  0  0  0  0
   -0.0038   51.5988   22.7084 C   0  0  0  0  0  0
   -1.2386   52.0675   23.1674 C   0  0  0  0  0  0
   -1.8502   51.4665   24.2667 C   0  0  0  0  0  0
    0.6837   52.3029   21.5306 C   0  0  2  0  0  0
    0.2671   53.2949   21.3604 H   0  0  0  0  0  0
    0.5324   51.4537   20.2341 C   0  0  2  0  0  0
    0.7122   50.3929   20.4186 H   0  0  0  0  0  0
    1.4627   51.9915   19.1694 C   0  0  0  0  0  0
    0.7445   52.3746   18.1046 C   0  0  0  0  0  0
    1.1453   53.0041   16.8413 C   0  0  0  0  0  0
    0.2229   53.3009   15.9039 C   0  0  0  0  0  0
   -1.1696   52.9731   16.1855 C   0  0  0  0  0  0
   -1.5555   52.3988   17.3563 C   0  0  0  0  0  0
   -0.6052   52.0975   18.3428 C   0  0  0  0  0  0
   -0.7659   51.5678   19.5373 N   0  3  0  0  0  0
    2.9357   52.1012   19.5302 C   0  0  0  0  0  0
    3.1419   51.8750   21.0604 C   0  0  2  0  0  0
    3.1470   50.8113   21.3053 H   0  0  0  0  0  0
    2.1159   52.5409   21.8177 N   0  0  0  0  0  0
    2.5840   53.5262   22.6065 C   0  0  0  0  0  0
    1.9053   54.3162   23.2674 O   0  0  0  0  0  0
    3.9445   53.4426   22.5513 N   0  0  0  0  0  0
    4.3620   52.4886   21.6818 C   0  0  0  0  0  0
    5.5040   52.1019   21.4579 O   0  0  0  0  0  0
    4.8060   54.1093   23.4747 C   0  0  0  0  0  0
    4.4976   53.9684   24.8433 C   0  0  0  0  0  0
    5.2773   54.5469   25.8351 C   0  0  0  0  0  0
    6.3836   55.2986   25.4805 C   0  0  0  0  0  0
    6.7039   55.4709   24.1380 C   0  0  0  0  0  0
    5.9366   54.8964   23.1049 C   0  0  0  0  0  0
    6.3115   55.2009   21.6590 C   0  0  0  0  0  0
    5.4696   55.1939   20.7642 O   0  0  0  0  0  0
    7.6116   55.4630   21.4213 N   0  0  0  0  0  0
    8.2641   55.6594   20.1173 C   0  0  0  0  0  0
    7.5533   56.5425   19.0509 C   0  0  2  0  0  0
    6.7173   55.9870   18.6224 H   0  0  0  0  0  0
    8.4837   57.2032   18.0292 C   0  0  0  0  0  0
    7.7763   58.4725   17.6069 C   0  0  0  0  0  0
    6.7481   58.7113   18.7102 C   0  0  0  0  0  0
    7.0017   57.6965   19.6821 O   0  0  0  0  0  0
   -1.6920   49.9359   25.7690 H   0  0  0  0  0  0
    0.4814   49.0902   24.9614 H   0  0  0  0  0  0
    1.5696   50.1447   23.0248 H   0  0  0  0  0  0
   -1.7239   52.8990   22.6778 H   0  0  0  0  0  0
   -2.8011   51.8322   24.6267 H   0  0  0  0  0  0
    2.1792   53.2425   16.6345 H   0  0  0  0  0  0
    0.5053   53.7671   14.9693 H   0  0  0  0  0  0
   -1.9179   53.1902   15.4351 H   0  0  0  0  0  0
   -2.6024   52.1721   17.5031 H   0  0  0  0  0  0
    3.3301   53.0695   19.2146 H   0  0  0  0  0  0
    3.5045   51.3437   18.9839 H   0  0  0  0  0  0
    3.6490   53.3762   25.1556 H   0  0  0  0  0  0
    5.0211   54.4121   26.8753 H   0  0  0  0  0  0
    6.9771   55.7614   26.2522 H   0  0  0  0  0  0
    7.5537   56.0962   23.9153 H   0  0  0  0  0  0
    8.2375   55.4246   22.2160 H   0  0  0  0  0  0
    8.4669   54.6801   19.6811 H   0  0  0  0  0  0
    9.2454   56.0808   20.3336 H   0  0  0  0  0  0
    8.7350   56.5326   17.2083 H   0  0  0  0  0  0
    9.4406   57.4462   18.4961 H   0  0  0  0  0  0
    7.2744   58.3439   16.6478 H   0  0  0  0  0  0
    8.4673   59.3083   17.5079 H   0  0  0  0  0  0
    5.7281   58.6209   18.3356 H   0  0  0  0  0  0
    6.8425   59.6945   19.1685 H   0  0  0  0  0  0
   -1.6503   51.2679   19.9399 H   0  0  0  0  0  0
  1  6  2  0  0  0
  1  2  1  0  0  0
  1 44  1  0  0  0
  2  3  2  0  0  0
  2 45  1  0  0  0
  3  4  1  0  0  0
  3 46  1  0  0  0
  4  5  2  0  0  0
  4  7  1  0  0  0
  5  6  1  0  0  0
  5 47  1  0  0  0
  6 48  1  0  0  0
  7  8  1  0  0  0
  7 22  1  0  0  0
  7  9  1  0  0  0
  9 10  1  0  0  0
  9 18  1  0  0  0
  9 11  1  0  0  0
 11 12  2  0  0  0
 11 19  1  0  0  0
 12 17  1  0  0  0
 12 13  1  0  0  0
 13 14  2  0  0  0
 13 49  1  0  0  0
 14 15  1  0  0  0
 14 50  1  0  0  0
 15 16  2  0  0  0
 15 51  1  0  0  0
 16 17  1  0  0  0
 16 52  1  0  0  0
 17 18  2  0  0  0
 18 68  1  0  0  0
 19 20  1  0  0  0
 19 53  1  0  0  0
 19 54  1  0  0  0
 20 21  1  0  0  0
 20 26  1  0  0  0
 20 22  1  0  0  0
 22 23  1  0  0  0
 23 24  2  0  0  0
 23 25  1  0  0  0
 25 26  1  0  0  0
 25 28  1  0  0  0
 26 27  2  0  0  0
 28 33  2  0  0  0
 28 29  1  0  0  0
 29 30  2  0  0  0
 29 55  1  0  0  0
 30 31  1  0  0  0
 30 56  1  0  0  0
 31 32  2  0  0  0
 31 57  1  0  0  0
 32 33  1  0  0  0
 32 58  1  0  0  0
 33 34  1  0  0  0
 34 35  2  0  0  0
 34 36  1  0  0  0
 36 37  1  0  0  0
 36 59  1  0  0  0
 37 38  1  0  0  0
 37 60  1  0  0  0
 37 61  1  0  0  0
 38 39  1  0  0  0
 38 43  1  0  0  0
 38 40  1  0  0  0
 40 41  1  0  0  0
 40 62  1  0  0  0
 40 63  1  0  0  0
 41 42  1  0  0  0
 41 64  1  0  0  0
 41 65  1  0  0  0
 42 43  1  0  0  0
 42 66  1  0  0  0
 42 67  1  0  0  0
M  CHG  1  18   1
M  END
> <i_i_glide_confnum>
703

> <i_i_glide_lignum>
5472

> <i_i_glide_posenum>
231

> <i_i_glide_rotatable_bonds>
6

> <i_m_Source_File_Index>
2707

> <b_m_subgroup_collapsed>
0

> <r_i_docking_score>
-6.27928

> <r_i_glide_ecoul>
-9.70298

> <r_i_glide_eff_state_penalty>
0

> <r_i_glide_einternal>
2.80464

> <r_i_glide_emodel>
-65.8868

> <r_i_glide_energy>
-48.9971

> <r_i_glide_erotb>
0.37784

> <r_i_glide_esite>
-0.0135614

> <r_i_glide_evdw>
-39.2941

> <r_i_glide_gscore>
-6.27928

> <r_i_glide_hbond>
-0.553839

> <r_i_glide_ligand_efficiency>
-0.161007

> <r_i_glide_ligand_efficiency_ln>
-1.34646

> <r_i_glide_ligand_efficiency_sa>
-0.54601

> <r_i_glide_lipo>
-1.7261

> <r_i_glide_metal>
0

> <r_i_glide_rewards>
-0.943467

> <s_i_glide_gridfile>
wee1_glide-grid

> <s_m_Source_File>
wee1_decoys_glide_SP.sdf

> <s_m_Source_Path>
/Users/zhangxujun/Desktop

> <s_m_entry_id>
2982

> <s_m_entry_name>
wee1_decoys_glide_SP.2707

> <s_m_subgroup_title>
wee1_decoys_glide_SP

> <s_m_subgroupid>
wee1_decoys_glide_SP


$$$$
