@<TRIPOS>MOLECULE
ZINC36218362_5507
59   63    1
SMALL
USER_CHARGES


@<TRIPOS>ATOM
      1 C1          0.2223   48.7556   19.2416 C.ar      1 UNK         0.0000 
      2 C2         -0.0491   48.9262   20.5986 C.ar      1 UNK         0.0000 
      3 C3          0.8627   49.6026   21.4050 C.ar      1 UNK         0.0000 
      4 C4          2.0335   50.1234   20.8484 C.ar      1 UNK         0.0000 
      5 C5          2.3042   49.9371   19.4912 C.ar      1 UNK         0.0000 
      6 C6          1.3993   49.2538   18.6859 C.ar      1 UNK         0.0000 
      7 C7          3.0726   50.7931   21.7355 C.3       1 UNK         0.0000 
      8 N8          2.9132   52.2335   21.9750 N.am      1 UNK         0.0000 
      9 C9          4.0535   53.1388   22.0208 C.3       1 UNK         0.0000 
     10 H10         4.9280   52.6403   22.4402 H         1 UNK         0.0000 
     11 C11         3.5755   54.2668   22.9363 C.3       1 UNK         0.0000 
     12 H12         3.6856   55.2550   22.4796 H         1 UNK         0.0000 
     13 O13         2.1843   54.0200   23.0488 O.3       1 UNK         0.0000 
     14 C14         1.7939   52.8166   22.5747 C.2       1 UNK         0.0000 
     15 O15         0.6399   52.4112   22.6972 O.2       1 UNK         0.0000 
     16 C16         4.3325   54.3177   24.2682 C.ar      1 UNK         0.0000 
     17 C17         5.7094   54.5610   24.2530 C.ar      1 UNK         0.0000 
     18 C18         6.4407   54.5685   25.4378 C.ar      1 UNK         0.0000 
     19 C19         5.8049   54.3311   26.6558 C.ar      1 UNK         0.0000 
     20 C20         4.4272   54.0989   26.6957 C.ar      1 UNK         0.0000 
     21 C21         3.6942   54.0965   25.4962 C.ar      1 UNK         0.0000 
     22 N22         3.8667   53.7946   27.9481 N.am      1 UNK         0.0000 
     23 C23         2.5788   53.9226   28.3353 C.2       1 UNK         0.0000 
     24 O24         1.7063   54.4961   27.6818 O.2       1 UNK         0.0000 
     25 C25         2.2765   53.3113   29.6094 C.2       1 UNK         0.0000 
     26 C26         3.0917   52.5348   30.4437 C.2       1 UNK         0.0000 
     27 C27         2.4302   52.0967   31.5957 C.2       1 UNK         0.0000 
     28 C28         1.1043   52.4968   31.6425 C.2       1 UNK         0.0000 
     29 S29         0.6665   53.4546   30.2694 S.3       1 UNK         0.0000 
     30 C30         4.5117   53.6952   20.6524 C.2       1 UNK         0.0000 
     31 O31         5.5059   54.4217   20.6364 O.2       1 UNK         0.0000 
     32 N32         3.8321   53.3321   19.5438 N.am      1 UNK         0.0000 
     33 C33         4.0350   53.7939   18.2334 C.ar      1 UNK         0.0000 
     34 C34         4.4137   55.1140   17.9464 C.ar      1 UNK         0.0000 
     35 C35         4.5648   55.5201   16.6217 C.ar      1 UNK         0.0000 
     36 C36         4.3354   54.6119   15.5908 C.ar      1 UNK         0.0000 
     37 C37         3.9472   53.3045   15.8696 C.ar      1 UNK         0.0000 
     38 C38         3.7884   52.8970   17.1918 C.ar      1 UNK         0.0000 
     39 F39         4.4871   55.0053   14.3046 F         1 UNK         0.0000 
     40 H40        -0.4813   48.2258   18.6168 H         1 UNK         0.0000 
     41 H41        -0.9595   48.5319   21.0250 H         1 UNK         0.0000 
     42 H42         0.6582   49.7238   22.4589 H         1 UNK         0.0000 
     43 H43         3.2231   50.3012   19.0564 H         1 UNK         0.0000 
     44 H44         1.6219   49.1047   17.6376 H         1 UNK         0.0000 
     45 H45         4.0519   50.6264   21.2843 H         1 UNK         0.0000 
     46 H46         3.1030   50.2698   22.6920 H         1 UNK         0.0000 
     47 H47         6.2224   54.7332   23.3166 H         1 UNK         0.0000 
     48 H48         7.5046   54.7401   25.4023 H         1 UNK         0.0000 
     49 H49         6.3900   54.3242   27.5647 H         1 UNK         0.0000 
     50 H50         2.6370   53.8793   25.5060 H         1 UNK         0.0000 
     51 H51         4.5081   53.4031   28.6178 H         1 UNK         0.0000 
     52 H52         4.1252   52.2974   30.2386 H         1 UNK         0.0000 
     53 H53         2.8949   51.5046   32.3725 H         1 UNK         0.0000 
     54 H54         0.3693   52.2861   32.4090 H         1 UNK         0.0000 
     55 H55         3.1408   52.6056   19.6496 H         1 UNK         0.0000 
     56 H56         4.5795   55.8306   18.7373 H         1 UNK         0.0000 
     57 H57         4.8557   56.5352   16.3951 H         1 UNK         0.0000 
     58 H58         3.7706   52.6066   15.0648 H         1 UNK         0.0000 
     59 H59         3.5002   51.8750   17.3947 H         1 UNK         0.0000 
@<TRIPOS>BOND
     1    1    6 ar   
     2    1    2 ar   
     3    1   40 1    
     4    2    3 ar   
     5    2   41 1    
     6    3    4 ar   
     7    3   42 1    
     8    4    5 ar   
     9    4    7 1    
    10    5    6 ar   
    11    5   43 1    
    12    6   44 1    
    13    7    8 1    
    14    7   45 1    
    15    7   46 1    
    16    8   14 am   BACKBONE|DICT|INTERRES
    17    8    9 1    
    18    9   10 1    
    19    9   11 1    
    20    9   30 1    
    21   11   12 1    
    22   11   13 1    
    23   11   16 1    
    24   13   14 1    
    25   14   15 2    
    26   16   21 ar   
    27   16   17 ar   
    28   17   18 ar   
    29   17   47 1    
    30   18   19 ar   
    31   18   48 1    
    32   19   20 ar   
    33   19   49 1    
    34   20   21 ar   
    35   20   22 1    
    36   21   50 1    
    37   22   23 am   BACKBONE|DICT|INTERRES
    38   22   51 1    
    39   23   24 2    
    40   23   25 1    
    41   25   29 1    
    42   25   26 2    
    43   26   27 1    
    44   26   52 1    
    45   27   28 2    
    46   27   53 1    
    47   28   29 1    
    48   28   54 1    
    49   30   31 2    
    50   30   32 am   BACKBONE|DICT|INTERRES
    51   32   33 1    
    52   32   55 1    
    53   33   38 ar   
    54   33   34 ar   
    55   34   35 ar   
    56   34   56 1    
    57   35   36 ar   
    58   35   57 1    
    59   36   37 ar   
    60   36   39 1    
    61   37   38 ar   
    62   37   58 1    
    63   38   59 1    
@<TRIPOS>SUBSTRUCTURE
     1 UNK         1 GROUP             0       ****    0 ROOT    
