@<TRIPOS>MOLECULE
ZINC44924262_1598
40   42    1
SMALL
USER_CHARGES


@<TRIPOS>ATOM
      1 C1         -0.5644   51.9113   27.8710 C.3       1 UNK         0.0000 
      2 C2          0.7983   52.5762   27.5531 C.3       1 UNK         0.0000 
      3 C3          1.9048   51.8061   28.3309 C.3       1 UNK         0.0000 
      4 C4          1.8693   52.1990   29.8166 C.3       1 UNK         0.0000 
      5 S5          1.5556   54.0346   29.7649 S.o2      1 UNK         0.0000 
      6 O6          2.8434   54.7297   29.6817 O.2       1 UNK         0.0000 
      7 O7          0.5748   54.4097   30.7862 O.2       1 UNK         0.0000 
      8 C8          0.7594   54.0304   28.0822 C.3       1 UNK         0.0000 
      9 N9          0.9402   52.4961   26.0994 N.pl3     1 UNK         0.0000 
     10 C10         1.9469   53.0510   25.2704 C.ar      1 UNK         0.0000 
     11 C11         3.0904   53.6968   25.7738 C.ar      1 UNK         0.0000 
     12 C12         4.1079   54.1501   24.9265 C.ar      1 UNK         0.0000 
     13 C13         3.9706   53.9682   23.5462 C.ar      1 UNK         0.0000 
     14 C14         2.8216   53.3827   23.0200 C.ar      1 UNK         0.0000 
     15 C15         1.8172   52.9212   23.8692 C.ar      1 UNK         0.0000 
     16 N16         0.6978   52.3310   23.2701 N.pl3     1 UNK         0.0000 
     17 N17         5.0066   54.3316   22.6837 N.am      1 UNK         0.0000 
     18 C18         6.2834   54.6288   22.9919 C.2       1 UNK         0.0000 
     19 O19         7.1036   54.9076   22.1225 O.2       1 UNK         0.0000 
     20 C20         6.6018   54.5399   24.5065 C.3       1 UNK         0.0000 
     21 C21         5.3759   54.8367   25.4236 C.3       1 UNK         0.0000 
     22 H22        -0.8297   51.9827   28.9270 H         1 UNK         0.0000 
     23 H23        -1.3783   52.3779   27.3132 H         1 UNK         0.0000 
     24 H24        -0.5667   50.8503   27.6139 H         1 UNK         0.0000 
     25 H25         2.8943   52.0488   27.9459 H         1 UNK         0.0000 
     26 H26         1.8054   50.7277   28.2051 H         1 UNK         0.0000 
     27 H27         2.7441   51.9885   30.4306 H         1 UNK         0.0000 
     28 H28         1.0019   51.7292   30.2802 H         1 UNK         0.0000 
     29 H29        -0.2531   54.4154   28.1851 H         1 UNK         0.0000 
     30 H30         1.2924   54.7585   27.4761 H         1 UNK         0.0000 
     31 H31         0.5301   51.6617   25.7122 H         1 UNK         0.0000 
     32 H32         3.2268   53.8372   26.8341 H         1 UNK         0.0000 
     33 H33         2.7239   53.2619   21.9501 H         1 UNK         0.0000 
     34 H34         0.6636   52.2423   22.2651 H         1 UNK         0.0000 
     35 H35        -0.0927   52.0742   23.8440 H         1 UNK         0.0000 
     36 H36         4.8279   54.3243   21.6910 H         1 UNK         0.0000 
     37 H37         6.9550   53.5242   24.6873 H         1 UNK         0.0000 
     38 H38         7.4232   55.2223   24.7233 H         1 UNK         0.0000 
     39 H39         5.2031   55.9134   25.4499 H         1 UNK         0.0000 
     40 H40         5.5953   54.5439   26.4527 H         1 UNK         0.0000 
@<TRIPOS>BOND
     1    1    2 1    
     2    1   22 1    
     3    1   23 1    
     4    1   24 1    
     5    2    8 1    
     6    2    3 1    
     7    2    9 1    
     8    3    4 1    
     9    3   25 1    
    10    3   26 1    
    11    4    5 1    
    12    4   27 1    
    13    4   28 1    
    14    5    6 2    
    15    5    7 2    
    16    5    8 1    
    17    8   29 1    
    18    8   30 1    
    19    9   10 1    
    20    9   31 1    
    21   10   15 ar   
    22   10   11 ar   
    23   11   12 ar   
    24   11   32 1    
    25   12   21 1    
    26   12   13 ar   
    27   13   14 ar   
    28   13   17 1    
    29   14   15 ar   
    30   14   33 1    
    31   15   16 1    
    32   16   34 1    
    33   16   35 1    
    34   17   18 am   BACKBONE|DICT|INTERRES
    35   17   36 1    
    36   18   19 2    
    37   18   20 1    
    38   20   21 1    
    39   20   37 1    
    40   20   38 1    
    41   21   39 1    
    42   21   40 1    
@<TRIPOS>SUBSTRUCTURE
     1 UNK         1 GROUP             0       ****    0 ROOT    
