ZINC33024668_3384
                    3D
 Schrodinger Suite 2024-2.
 61 65  0  0  1  0            999 V2000
   -7.3969   49.2361   24.3046 C   0  0  0  0  0  0
   -6.0769   49.5699   24.9841 C   0  0  0  0  0  0
   -5.4260   50.7638   24.6531 C   0  0  0  0  0  0
   -4.2187   51.1040   25.2579 C   0  0  0  0  0  0
   -3.6421   50.2524   26.2139 C   0  0  0  0  0  0
   -4.2885   49.0558   26.5357 C   0  0  0  0  0  0
   -5.5015   48.7078   25.9324 C   0  0  0  0  0  0
   -6.1715   47.3957   26.3194 C   0  0  0  0  0  0
   -2.4276   50.4982   26.8819 N   0  0  0  0  0  0
   -1.6824   51.6202   26.9345 C   0  0  0  0  0  0
   -1.9800   52.6800   26.3849 O   0  0  0  0  0  0
   -0.3835   51.5258   27.7713 C   0  0  0  0  0  0
    0.8155   51.8860   26.8660 C   0  0  0  0  0  0
    2.1284   51.8414   27.6823 C   0  0  0  0  0  0
    2.0087   52.7828   28.8155 N   0  0  0  0  0  0
    0.8657   52.5442   29.7290 C   0  0  0  0  0  0
   -0.4339   52.5854   28.8973 C   0  0  0  0  0  0
    2.9148   53.7627   29.0982 C   0  0  0  0  0  0
    2.8214   54.4965   30.0815 O   0  0  0  0  0  0
    4.0643   53.9231   28.2456 C   0  0  0  0  0  0
    5.3309   53.7346   28.5412 N   0  0  0  0  0  0
    6.1929   54.0240   27.4933 N   0  0  0  0  0  0
    5.5729   54.4072   26.4022 C   0  0  0  0  0  0
    3.8378   54.4966   26.6129 S   0  0  0  0  0  0
    6.1379   54.8133   25.1537 C   0  0  0  0  0  0
    7.1044   55.5711   25.1336 O   0  0  0  0  0  0
    5.5221   54.2686   24.0809 N   0  0  0  0  0  0
    5.7298   54.4961   22.7093 C   0  0  0  0  0  0
    4.8016   53.8932   21.8341 C   0  0  0  0  0  0
    4.8786   54.0876   20.4477 C   0  0  0  0  0  0
    5.9030   54.8933   19.9693 C   0  0  0  0  0  0
    6.8115   55.4762   20.8038 C   0  0  0  0  0  0
    6.7654   55.2971   22.1816 C   0  0  0  0  0  0
    7.6778   56.2250   20.0744 O   0  0  0  0  0  0
    7.3961   55.9366   18.7291 C   0  0  0  0  0  0
    6.1700   55.2549   18.6869 O   0  0  0  0  0  0
   -8.1795   49.0887   25.0492 H   0  0  0  0  0  0
   -7.7240   50.0255   23.6266 H   0  0  0  0  0  0
   -7.3067   48.3116   23.7341 H   0  0  0  0  0  0
   -5.8550   51.4338   23.9227 H   0  0  0  0  0  0
   -3.7486   52.0280   24.9613 H   0  0  0  0  0  0
   -3.8439   48.3934   27.2671 H   0  0  0  0  0  0
   -6.3350   46.7793   25.4354 H   0  0  0  0  0  0
   -5.5740   46.8158   27.0240 H   0  0  0  0  0  0
   -7.1444   47.5868   26.7727 H   0  0  0  0  0  0
   -2.0954   49.7178   27.4481 H   0  0  0  0  0  0
   -0.3079   50.5047   28.1591 H   0  0  0  0  0  0
    0.7458   52.8966   26.4571 H   0  0  0  0  0  0
    0.9307   51.1523   26.0657 H   0  0  0  0  0  0
    2.9505   52.0959   27.0189 H   0  0  0  0  0  0
    2.2877   50.8401   28.0838 H   0  0  0  0  0  0
    0.9888   51.5539   30.1637 H   0  0  0  0  0  0
    0.8068   53.2636   30.5471 H   0  0  0  0  0  0
   -1.2410   52.3716   29.6010 H   0  0  0  0  0  0
   -0.4974   53.6053   28.5127 H   0  0  0  0  0  0
    4.7588   53.6428   24.2921 H   0  0  0  0  0  0
    4.0041   53.2784   22.2231 H   0  0  0  0  0  0
    4.1580   53.6301   19.7834 H   0  0  0  0  0  0
    7.5042   55.7755   22.8054 H   0  0  0  0  0  0
    7.3303   56.8587   18.1463 H   0  0  0  0  0  0
    8.1822   55.2916   18.3253 H   0  0  0  0  0  0
  1  2  1  0  0  0
  1 37  1  0  0  0
  1 38  1  0  0  0
  1 39  1  0  0  0
  2  7  2  0  0  0
  2  3  1  0  0  0
  3  4  2  0  0  0
  3 40  1  0  0  0
  4  5  1  0  0  0
  4 41  1  0  0  0
  5  6  2  0  0  0
  5  9  1  0  0  0
  6  7  1  0  0  0
  6 42  1  0  0  0
  7  8  1  0  0  0
  8 43  1  0  0  0
  8 44  1  0  0  0
  8 45  1  0  0  0
  9 10  1  0  0  0
  9 46  1  0  0  0
 10 11  2  0  0  0
 10 12  1  0  0  0
 12 17  1  0  0  0
 12 13  1  0  0  0
 12 47  1  0  0  0
 13 14  1  0  0  0
 13 48  1  0  0  0
 13 49  1  0  0  0
 14 15  1  0  0  0
 14 50  1  0  0  0
 14 51  1  0  0  0
 15 16  1  0  0  0
 15 18  1  0  0  0
 16 17  1  0  0  0
 16 52  1  0  0  0
 16 53  1  0  0  0
 17 54  1  0  0  0
 17 55  1  0  0  0
 18 19  2  0  0  0
 18 20  1  0  0  0
 20 24  1  0  0  0
 20 21  2  0  0  0
 21 22  1  0  0  0
 22 23  2  0  0  0
 23 24  1  0  0  0
 23 25  1  0  0  0
 25 26  2  0  0  0
 25 27  1  0  0  0
 27 28  1  0  0  0
 27 56  1  0  0  0
 28 33  2  0  0  0
 28 29  1  0  0  0
 29 30  2  0  0  0
 29 57  1  0  0  0
 30 31  1  0  0  0
 30 58  1  0  0  0
 31 36  1  0  0  0
 31 32  2  0  0  0
 32 33  1  0  0  0
 32 34  1  0  0  0
 33 59  1  0  0  0
 34 35  1  0  0  0
 35 36  1  0  0  0
 35 60  1  0  0  0
 35 61  1  0  0  0
M  END
> <i_i_glide_confnum>
30

> <i_i_glide_lignum>
3385

> <i_i_glide_posenum>
232

> <i_i_glide_rotatable_bonds>
8

> <i_m_Source_File_Index>
907

> <b_m_subgroup_collapsed>
0

> <r_i_docking_score>
-7.47403

> <r_i_glide_ecoul>
-12.1786

> <r_i_glide_eff_state_penalty>
0

> <r_i_glide_einternal>
9.47602

> <r_i_glide_emodel>
-83.5863

> <r_i_glide_energy>
-59.5859

> <r_i_glide_erotb>
0.635588

> <r_i_glide_esite>
-0.15231

> <r_i_glide_evdw>
-47.4072

> <r_i_glide_gscore>
-7.47403

> <r_i_glide_hbond>
-0.779618

> <r_i_glide_ligand_efficiency>
-0.207612

> <r_i_glide_ligand_efficiency_ln>
-1.63063

> <r_i_glide_ligand_efficiency_sa>
-0.685519

> <r_i_glide_lipo>
-1.9581

> <r_i_glide_metal>
0

> <r_i_glide_rewards>
-1.02243

> <s_i_glide_gridfile>
wee1_glide-grid

> <s_m_Source_File>
wee1_decoys_glide_SP.sdf

> <s_m_Source_Path>
/Users/zhangxujun/Desktop

> <s_m_entry_id>
1182

> <s_m_entry_name>
wee1_decoys_glide_SP.907

> <s_m_subgroup_title>
wee1_decoys_glide_SP

> <s_m_subgroupid>
wee1_decoys_glide_SP


$$$$
