@<TRIPOS>MOLECULE
ZINC39947174_2212
60   64    1
SMALL
USER_CHARGES


@<TRIPOS>ATOM
      1 C1         -2.4359   49.8199   24.6031 C.3       1 UNK         0.0000 
      2 C2         -1.0278   49.7912   23.9695 C.3       1 UNK         0.0000 
      3 H3         -0.8534   48.7632   23.6488 H         1 UNK         0.0000 
      4 C4         -0.9266   50.6898   22.7207 C.2       1 UNK         0.0000 
      5 O5         -1.5391   51.7589   22.6662 O.2       1 UNK         0.0000 
      6 N6         -0.0953   50.2884   21.7435 N.am      1 UNK         0.0000 
      7 C7          0.2848   51.0582   20.5470 C.3       1 UNK         0.0000 
      8 C8          1.1900   52.2772   20.8869 C.3       1 UNK         0.0000 
      9 C9          2.5785   51.8714   21.4248 C.3       1 UNK         0.0000 
     10 C10         3.3064   50.9368   20.4444 C.3       1 UNK         0.0000 
     11 C11         2.4487   49.7214   20.0552 C.3       1 UNK         0.0000 
     12 C12         1.0529   50.1492   19.5465 C.3       1 UNK         0.0000 
     13 C13        -0.9088   51.5720   19.8293 C.1       1 UNK         0.0000 
     14 N14        -1.8413   51.9791   19.2734 N.1       1 UNK         0.0000 
     15 S15         0.3033   50.1631   25.1688 S.3       1 UNK         0.0000 
     16 C16        -0.0571   51.8653   25.7300 C.3       1 UNK         0.0000 
     17 H17        -1.0872   51.8905   26.0851 H         1 UNK         0.0000 
     18 N18         0.1542   52.8966   24.7346 N.pl3     1 UNK         0.0000 
     19 N19         1.4153   53.4630   24.8755 N.2       1 UNK         0.0000 
     20 C20         1.7616   53.2122   26.0655 C.2       1 UNK         0.0000 
     21 N21         0.8571   52.3990   26.7288 N.pl3     1 UNK         0.0000 
     22 C22         0.8950   51.8533   28.0854 C.3       1 UNK         0.0000 
     23 C23         0.5521   52.8013   29.2249 C.3       1 UNK         0.0000 
     24 C24        -0.4266   51.7380   28.8290 C.3       1 UNK         0.0000 
     25 C25         3.0136   53.6971   26.6127 C.2       1 UNK         0.0000 
     26 C26         4.1046   54.0670   25.9041 C.2       1 UNK         0.0000 
     27 C27         4.3906   54.0970   24.4561 C.2       1 UNK         0.0000 
     28 C28         5.5860   54.4977   23.9919 C.2       1 UNK         0.0000 
     29 C29         6.5740   54.9362   24.9613 C.2       1 UNK         0.0000 
     30 C30         6.3424   54.9026   26.3003 C.2       1 UNK         0.0000 
     31 C31         5.1099   54.4661   26.7922 C.2       1 UNK         0.0000 
     32 N32         4.7077   54.3696   28.0368 N.pl3     1 UNK         0.0000 
     33 C33         3.3216   53.8712   28.0862 C.3       1 UNK         0.0000 
     34 H34        -3.1992   49.4986   23.8920 H         1 UNK         0.0000 
     35 H35        -2.4871   49.1473   25.4603 H         1 UNK         0.0000 
     36 H36        -2.7169   50.8148   24.9510 H         1 UNK         0.0000 
     37 H37         0.3711   49.4009   21.8548 H         1 UNK         0.0000 
     38 H38         0.7095   52.9151   21.6293 H         1 UNK         0.0000 
     39 H39         1.3237   52.8963   19.9970 H         1 UNK         0.0000 
     40 H40         2.4687   51.3796   22.3931 H         1 UNK         0.0000 
     41 H41         3.1797   52.7630   21.5999 H         1 UNK         0.0000 
     42 H42         4.2523   50.6041   20.8745 H         1 UNK         0.0000 
     43 H43         3.5622   51.4929   19.5412 H         1 UNK         0.0000 
     44 H44         2.3454   49.0564   20.9140 H         1 UNK         0.0000 
     45 H45         2.9625   49.1431   19.2842 H         1 UNK         0.0000 
     46 H46         1.1763   50.6638   18.5908 H         1 UNK         0.0000 
     47 H47         0.4737   49.2477   19.3352 H         1 UNK         0.0000 
     48 H48        -0.0265   52.6636   23.7661 H         1 UNK         0.0000 
     49 H49         1.6402   51.0706   28.2421 H         1 UNK         0.0000 
     50 H50         1.0745   52.6966   30.1763 H         1 UNK         0.0000 
     51 H51         0.3139   53.8412   28.9967 H         1 UNK         0.0000 
     52 H52        -1.3533   52.0295   28.3351 H         1 UNK         0.0000 
     53 H53        -0.5802   50.8968   29.5031 H         1 UNK         0.0000 
     54 H54         3.6675   53.7748   23.7227 H         1 UNK         0.0000 
     55 H55         5.8019   54.5017   22.9319 H         1 UNK         0.0000 
     56 H56         7.5044   55.3240   24.5878 H         1 UNK         0.0000 
     57 H57         7.1038   55.2482   26.9847 H         1 UNK         0.0000 
     58 H58         2.7045   54.6213   28.5813 H         1 UNK         0.0000 
     59 H59         3.3235   52.9379   28.6496 H         1 UNK         0.0000 
     60 H60         5.2653   54.6076   28.8552 H         1 UNK         0.0000 
@<TRIPOS>BOND
     1    1    2 1    
     2    1   34 1    
     3    1   35 1    
     4    1   36 1    
     5    2    3 1    
     6    2    4 1    
     7    2   15 1    
     8    4    5 2    
     9    4    6 am   BACKBONE|DICT|INTERRES
    10    6    7 1    
    11    6   37 1    
    12    7   12 1    
    13    7    8 1    
    14    7   13 1    
    15    8    9 1    
    16    8   38 1    
    17    8   39 1    
    18    9   10 1    
    19    9   40 1    
    20    9   41 1    
    21   10   11 1    
    22   10   42 1    
    23   10   43 1    
    24   11   12 1    
    25   11   44 1    
    26   11   45 1    
    27   12   46 1    
    28   12   47 1    
    29   13   14 3    
    30   15   16 1    
    31   16   17 1    
    32   16   21 1    
    33   16   18 1    
    34   18   19 1    
    35   18   48 1    
    36   19   20 2    
    37   20   21 1    
    38   20   25 1    
    39   21   22 1    
    40   22   24 1    
    41   22   23 1    
    42   22   49 1    
    43   23   24 1    
    44   23   50 1    
    45   23   51 1    
    46   24   52 1    
    47   24   53 1    
    48   25   33 1    
    49   25   26 2    
    50   26   31 1    
    51   26   27 1    
    52   27   28 2    
    53   27   54 1    
    54   28   29 1    
    55   28   55 1    
    56   29   30 2    
    57   29   56 1    
    58   30   31 1    
    59   30   57 1    
    60   31   32 2    
    61   32   33 1    
    62   32   60 1    
    63   33   58 1    
    64   33   59 1    
@<TRIPOS>SUBSTRUCTURE
     1 UNK         1 GROUP             0       ****    0 ROOT    
