@<TRIPOS>MOLECULE
ZINC32871812_2002
52   55    1
SMALL
USER_CHARGES


@<TRIPOS>ATOM
      1 C1          2.3053   49.9392   21.0244 C.ar      1 UNK         0.0000 
      2 C2          2.9635   51.1541   21.1636 C.ar      1 UNK         0.0000 
      3 C3          2.4425   52.1291   22.0082 C.ar      1 UNK         0.0000 
      4 C4          1.2557   51.9114   22.7244 C.ar      1 UNK         0.0000 
      5 C5          0.6002   50.6568   22.6146 C.ar      1 UNK         0.0000 
      6 C6          1.1404   49.6955   21.7440 C.ar      1 UNK         0.0000 
      7 C7         -0.6881   50.2896   23.3736 C.3       1 UNK         0.0000 
      8 F8         -0.6512   50.6624   24.6507 F         1 UNK         0.0000 
      9 F9         -1.7355   50.8568   22.7742 F         1 UNK         0.0000 
     10 F10        -0.9022   48.9708   23.3747 F         1 UNK         0.0000 
     11 S11         0.6619   53.2967   23.7329 S.o2      1 UNK         0.0000 
     12 O12        -0.8030   53.2703   23.6817 O.2       1 UNK         0.0000 
     13 O13         1.3019   54.4967   23.1866 O.2       1 UNK         0.0000 
     14 N14         1.1772   52.8965   25.1328 N.2       1 UNK         0.0000 
     15 C15         2.3510   53.2968   25.7087 C.ar      1 UNK         0.0000 
     16 C16         2.4956   53.2623   27.1211 C.ar      1 UNK         0.0000 
     17 N17         3.6596   53.6066   27.7258 N.ar      1 UNK         0.0000 
     18 C18         4.6878   54.0018   26.9541 C.ar      1 UNK         0.0000 
     19 C19         5.9101   54.3075   27.5694 C.ar      1 UNK         0.0000 
     20 C20         6.9743   54.7044   26.7805 C.ar      1 UNK         0.0000 
     21 C21         6.8411   54.8382   25.3977 C.ar      1 UNK         0.0000 
     22 C22         5.6396   54.5342   24.7658 C.ar      1 UNK         0.0000 
     23 C23         4.5472   54.0967   25.5412 C.ar      1 UNK         0.0000 
     24 N24         3.3828   53.7482   24.9396 N.ar      1 UNK         0.0000 
     25 N25         1.5104   52.9336   28.0489 N.pl3     1 UNK         0.0000 
     26 C26         0.3206   52.1179   27.7391 C.3       1 UNK         0.0000 
     27 C27        -0.2637   51.4286   28.9694 C.3       1 UNK         0.0000 
     28 C28        -0.4956   52.4160   30.1027 C.3       1 UNK         0.0000 
     29 C29         0.7246   53.2992   30.3908 C.3       1 UNK         0.0000 
     30 H30         0.4751   54.0677   31.1232 H         1 UNK         0.0000 
     31 C31         1.1793   53.9513   29.0698 C.3       1 UNK         0.0000 
     32 C32         1.8580   52.4967   31.0670 C.2       1 UNK         0.0000 
     33 O33         3.0424   52.6065   30.7593 O.2       1 UNK         0.0000 
     34 N34         1.5045   51.7272   32.0822 N.am      1 UNK         0.0000 
     35 H35         2.7039   49.1847   20.3611 H         1 UNK         0.0000 
     36 H36         3.8695   51.3443   20.6059 H         1 UNK         0.0000 
     37 H37         2.9647   53.0717   22.0900 H         1 UNK         0.0000 
     38 H38         0.6568   48.7395   21.6120 H         1 UNK         0.0000 
     39 H39         6.0149   54.2203   28.6422 H         1 UNK         0.0000 
     40 H40         7.9044   54.9012   27.2816 H         1 UNK         0.0000 
     41 H41         7.6820   55.1594   24.8045 H         1 UNK         0.0000 
     42 H42         5.5343   54.6112   23.6933 H         1 UNK         0.0000 
     43 H43         0.6170   51.3195   27.0573 H         1 UNK         0.0000 
     44 H44        -0.4353   52.7220   27.2345 H         1 UNK         0.0000 
     45 H45         0.3981   50.6263   29.2806 H         1 UNK         0.0000 
     46 H46        -1.2035   50.9420   28.7043 H         1 UNK         0.0000 
     47 H47        -0.9013   51.9515   30.9969 H         1 UNK         0.0000 
     48 H48        -1.2956   53.0867   29.8225 H         1 UNK         0.0000 
     49 H49         0.3848   54.5741   28.6550 H         1 UNK         0.0000 
     50 H50         2.0220   54.6130   29.2772 H         1 UNK         0.0000 
     51 H51         2.2181   51.2935   32.6472 H         1 UNK         0.0000 
     52 H52         0.5345   51.6968   32.3801 H         1 UNK         0.0000 
@<TRIPOS>BOND
     1    1    6 ar   
     2    1    2 ar   
     3    1   35 1    
     4    2    3 ar   
     5    2   36 1    
     6    3    4 ar   
     7    3   37 1    
     8    4    5 ar   
     9    4   11 1    
    10    5    6 ar   
    11    5    7 1    
    12    6   38 1    
    13    7    8 1    
    14    7    9 1    
    15    7   10 1    
    16   11   12 2    
    17   11   13 2    
    18   11   14 1    
    19   14   15 1    
    20   15   24 ar   
    21   15   16 ar   
    22   16   17 ar   
    23   16   25 1    
    24   17   18 ar   
    25   18   23 ar   
    26   18   19 ar   
    27   19   20 ar   
    28   19   39 1    
    29   20   21 ar   
    30   20   40 1    
    31   21   22 ar   
    32   21   41 1    
    33   22   23 ar   
    34   22   42 1    
    35   23   24 ar   
    36   25   31 1    
    37   25   26 1    
    38   26   27 1    
    39   26   43 1    
    40   26   44 1    
    41   27   28 1    
    42   27   45 1    
    43   27   46 1    
    44   28   29 1    
    45   28   47 1    
    46   28   48 1    
    47   29   30 1    
    48   29   31 1    
    49   29   32 1    
    50   31   49 1    
    51   31   50 1    
    52   32   33 2    
    53   32   34 am   BACKBONE|DICT|INTERRES
    54   34   51 1    
    55   34   52 1    
@<TRIPOS>SUBSTRUCTURE
     1 UNK         1 GROUP             0       ****    0 ROOT    
