ZINC46938544_1819
                    3D
 Schrodinger Suite 2024-2.
 45 47  0  0  1  0            999 V2000
    0.3043   54.2934   31.4780 C   0  0  0  0  0  0
    0.9411   55.3664   30.8677 C   0  0  0  0  0  0
    1.5028   55.2027   29.6075 C   0  0  0  0  0  0
    1.4294   53.9784   28.9263 C   0  0  0  0  0  0
    0.7161   52.9119   29.5276 C   0  0  0  0  0  0
    0.1777   53.0859   30.8040 C   0  0  0  0  0  0
    0.5323   51.5768   28.8155 C   0  0  0  0  0  0
    0.5770   51.7540   27.2937 C   0  0  0  0  0  0
    1.9029   52.4253   26.9238 C   0  0  0  0  0  0
    2.0750   53.8344   27.5377 C   0  0  2  0  0  0
    1.5058   54.4969   26.8910 H   0  0  0  0  0  0
    3.5609   54.2850   27.5453 C   0  0  0  0  0  0
    4.1333   54.3433   26.2068 N   0  0  0  0  0  0
    5.4240   54.5894   25.9167 C   0  0  0  0  0  0
    6.2526   54.8955   26.7776 O   0  0  0  0  0  0
    5.7308   54.4962   24.6012 N   0  0  0  0  0  0
    7.0927   54.7415   24.1124 C   0  0  0  0  0  0
    6.9172   54.7884   22.5992 C   0  0  0  0  0  0
    5.7197   53.8728   22.3418 C   0  0  1  0  0  0
    6.0125   52.8226   22.3097 H   0  0  0  0  0  0
    4.7910   54.1009   23.5345 C   0  0  0  0  0  0
    5.0095   54.0950   20.9910 C   0  0  0  0  0  0
    5.4158   54.9244   20.1815 O   0  0  0  0  0  0
    3.9441   53.3407   20.7221 N   0  0  0  0  0  0
   -0.0965   54.3948   32.4751 H   0  0  0  0  0  0
    1.0419   56.3121   31.3794 H   0  0  0  0  0  0
    1.9990   56.0499   29.1589 H   0  0  0  0  0  0
   -0.3470   52.2690   31.2820 H   0  0  0  0  0  0
   -0.4069   51.1062   29.1099 H   0  0  0  0  0  0
    1.3267   50.8994   29.1286 H   0  0  0  0  0  0
   -0.2675   52.3525   26.9485 H   0  0  0  0  0  0
    0.4937   50.7811   26.8055 H   0  0  0  0  0  0
    2.0101   52.4730   25.8397 H   0  0  0  0  0  0
    2.7043   51.7866   27.2844 H   0  0  0  0  0  0
    4.1508   53.5851   28.1426 H   0  0  0  0  0  0
    3.6813   55.2720   27.9935 H   0  0  0  0  0  0
    3.5080   54.1356   25.4437 H   0  0  0  0  0  0
    7.7357   53.9047   24.3875 H   0  0  0  0  0  0
    7.5035   55.6813   24.4833 H   0  0  0  0  0  0
    7.8302   54.4968   22.0816 H   0  0  0  0  0  0
    6.6985   55.8149   22.2990 H   0  0  0  0  0  0
    4.1320   54.9478   23.3478 H   0  0  0  0  0  0
    4.2276   53.1997   23.7701 H   0  0  0  0  0  0
    3.6166   52.6421   21.3697 H   0  0  0  0  0  0
    3.4611   53.4802   19.8463 H   0  0  0  0  0  0
  1  6  2  0  0  0
  1  2  1  0  0  0
  1 25  1  0  0  0
  2  3  2  0  0  0
  2 26  1  0  0  0
  3  4  1  0  0  0
  3 27  1  0  0  0
  4 10  1  0  0  0
  4  5  2  0  0  0
  5  6  1  0  0  0
  5  7  1  0  0  0
  6 28  1  0  0  0
  7  8  1  0  0  0
  7 29  1  0  0  0
  7 30  1  0  0  0
  8  9  1  0  0  0
  8 31  1  0  0  0
  8 32  1  0  0  0
  9 10  1  0  0  0
  9 33  1  0  0  0
  9 34  1  0  0  0
 10 11  1  0  0  0
 10 12  1  0  0  0
 12 13  1  0  0  0
 12 35  1  0  0  0
 12 36  1  0  0  0
 13 14  1  0  0  0
 13 37  1  0  0  0
 14 15  2  0  0  0
 14 16  1  0  0  0
 16 21  1  0  0  0
 16 17  1  0  0  0
 17 18  1  0  0  0
 17 38  1  0  0  0
 17 39  1  0  0  0
 18 19  1  0  0  0
 18 40  1  0  0  0
 18 41  1  0  0  0
 19 20  1  0  0  0
 19 21  1  0  0  0
 19 22  1  0  0  0
 21 42  1  0  0  0
 21 43  1  0  0  0
 22 23  2  0  0  0
 22 24  1  0  0  0
 24 44  1  0  0  0
 24 45  1  0  0  0
M  END
> <i_i_glide_confnum>
6

> <i_i_glide_lignum>
1820

> <i_i_glide_posenum>
245

> <i_i_glide_rotatable_bonds>
5

> <i_m_Source_File_Index>
998

> <b_m_subgroup_collapsed>
0

> <r_i_docking_score>
-5.89564

> <r_i_glide_ecoul>
-2.2778

> <r_i_glide_eff_state_penalty>
0

> <r_i_glide_einternal>
3.34023

> <r_i_glide_emodel>
-50.643

> <r_i_glide_energy>
-36.7668

> <r_i_glide_erotb>
0.607587

> <r_i_glide_esite>
0

> <r_i_glide_evdw>
-34.489

> <r_i_glide_gscore>
-5.89564

> <r_i_glide_hbond>
0

> <r_i_glide_ligand_efficiency>
-0.267983

> <r_i_glide_ligand_efficiency_ln>
-1.44111

> <r_i_glide_ligand_efficiency_sa>
-0.7509

> <r_i_glide_lipo>
-2.13641

> <r_i_glide_metal>
0

> <r_i_glide_rewards>
-2.30069

> <s_i_glide_gridfile>
wee1_glide-grid

> <s_m_Source_File>
wee1_decoys_glide_SP.sdf

> <s_m_Source_Path>
/Users/zhangxujun/Desktop

> <s_m_entry_id>
1273

> <s_m_entry_name>
wee1_decoys_glide_SP.998

> <s_m_subgroup_title>
wee1_decoys_glide_SP

> <s_m_subgroupid>
wee1_decoys_glide_SP


$$$$
