@<TRIPOS>MOLECULE
ZINC09155051_716
60   64    1
SMALL
USER_CHARGES


@<TRIPOS>ATOM
      1 C1          0.2119   50.1540   25.5674 C.3       1 UNK         0.0000 
      2 N2          0.7615   51.5007   25.2688 N.am      1 UNK         0.0000 
      3 C3          0.9525   52.3538   26.4083 C.ar      1 UNK         0.0000 
      4 C4          2.2242   52.8968   26.6841 C.ar      1 UNK         0.0000 
      5 C5          2.4888   53.5975   27.8569 C.ar      1 UNK         0.0000 
      6 C6          1.4851   53.7727   28.7984 C.ar      1 UNK         0.0000 
      7 C7          0.2232   53.2432   28.5654 C.ar      1 UNK         0.0000 
      8 C8         -0.0656   52.5399   27.3831 C.ar      1 UNK         0.0000 
      9 C9         -1.4885   52.0963   27.1682 C.2       1 UNK         0.0000 
     10 O10        -2.1163   52.4925   26.1857 O.2       1 UNK         0.0000 
     11 N11        -1.9870   51.2967   28.1270 N.am      1 UNK         0.0000 
     12 C12        -3.3434   50.7561   28.2300 C.3       1 UNK         0.0000 
     13 C13        -3.8615   50.1074   26.9596 C.2       1 UNK         0.0000 
     14 C14        -3.8075   48.8175   26.4536 C.2       1 UNK         0.0000 
     15 C15        -4.5139   48.8175   25.2488 C.2       1 UNK         0.0000 
     16 C16        -4.9834   50.1083   25.0786 C.2       1 UNK         0.0000 
     17 O17        -4.6012   50.8865   26.1231 O.3       1 UNK         0.0000 
     18 C18         1.4116   51.6408   24.0660 C.2       1 UNK         0.0000 
     19 O19         1.6446   50.6627   23.3507 O.2       1 UNK         0.0000 
     20 C20         1.8274   53.0349   23.5106 C.3       1 UNK         0.0000 
     21 C21         2.5668   52.4935   21.1217 C.3       1 UNK         0.0000 
     22 C22         3.7794   52.1365   20.2503 C.3       1 UNK         0.0000 
     23 C23         4.6649   53.3554   20.1935 C.2       1 UNK         0.0000 
     24 C24         4.7608   54.2980   21.2189 C.2       1 UNK         0.0000 
     25 C25         5.7066   55.2900   20.8960 C.2       1 UNK         0.0000 
     26 C26         6.3117   55.1096   19.6629 C.2       1 UNK         0.0000 
     27 S27         5.7316   53.6936   18.8663 S.3       1 UNK         0.0000 
     28 C28         3.9211   54.2503   22.5144 C.3       1 UNK         0.0000 
     29 H29         3.1673   55.0349   22.4467 H         1 UNK         0.0000 
     30 C30         4.7388   54.4085   23.8106 C.2       1 UNK         0.0000 
     31 C31         4.3480   54.8871   25.0652 C.2       1 UNK         0.0000 
     32 C32         5.3473   54.8989   26.0432 C.2       1 UNK         0.0000 
     33 C33         6.5624   54.4743   25.5574 C.2       1 UNK         0.0000 
     34 S34         6.4646   54.0962   23.8751 S.3       1 UNK         0.0000 
     35 H35         0.2477   49.9305   26.6345 H         1 UNK         0.0000 
     36 H36        -0.8299   50.0967   25.2529 H         1 UNK         0.0000 
     37 H37         0.7516   49.3411   25.0777 H         1 UNK         0.0000 
     38 H38         3.0533   52.7141   26.0196 H         1 UNK         0.0000 
     39 H39         3.4783   53.9780   28.0527 H         1 UNK         0.0000 
     40 H40         1.6855   54.3092   29.7136 H         1 UNK         0.0000 
     41 H41        -0.5376   53.4028   29.3177 H         1 UNK         0.0000 
     42 H42        -1.3470   50.9676   28.8341 H         1 UNK         0.0000 
     43 H43        -3.3092   50.0093   29.0246 H         1 UNK         0.0000 
     44 H44        -4.0145   51.5421   28.5796 H         1 UNK         0.0000 
     45 H45        -3.2965   47.9833   26.9141 H         1 UNK         0.0000 
     46 H46        -4.6626   47.9796   24.5842 H         1 UNK         0.0000 
     47 H47        -5.5764   50.5960   24.3173 H         1 UNK         0.0000 
     48 H48         2.0539   53.7524   24.2867 H         1 UNK         0.0000 
     49 H49         1.0156   53.4622   22.9222 H         1 UNK         0.0000 
     50 H50         1.9403   51.6094   21.2085 H         1 UNK         0.0000 
     51 H51         1.9651   53.2966   20.7037 H         1 UNK         0.0000 
     52 H52         4.3316   51.2963   20.6695 H         1 UNK         0.0000 
     53 H53         3.4702   51.8201   19.2533 H         1 UNK         0.0000 
     54 H54         5.9440   56.1154   21.5509 H         1 UNK         0.0000 
     55 H55         7.0653   55.7261   19.1957 H         1 UNK         0.0000 
     56 H56         3.3447   55.2211   25.2785 H         1 UNK         0.0000 
     57 H57         5.1919   55.2165   27.0627 H         1 UNK         0.0000 
     58 H58         7.4931   54.3698   26.0915 H         1 UNK         0.0000 
     59 N59         3.0558   52.9350   22.5349 N.4       1 UNK         0.0000 
     60 H60         3.6509   52.1948   22.8834 H         1 UNK         0.0000 
@<TRIPOS>BOND
     1    1    2 1    
     2    1   35 1    
     3    1   36 1    
     4    1   37 1    
     5    2    3 1    
     6    2   18 am   BACKBONE|DICT|INTERRES
     7    3    8 ar   
     8    3    4 ar   
     9    4    5 ar   
    10    4   38 1    
    11    5    6 ar   
    12    5   39 1    
    13    6    7 ar   
    14    6   40 1    
    15    7    8 ar   
    16    7   41 1    
    17    8    9 1    
    18    9   10 2    
    19    9   11 am   BACKBONE|DICT|INTERRES
    20   11   12 1    
    21   11   42 1    
    22   12   13 1    
    23   12   43 1    
    24   12   44 1    
    25   13   17 1    
    26   13   14 2    
    27   14   15 1    
    28   14   45 1    
    29   15   16 2    
    30   15   46 1    
    31   16   17 1    
    32   16   47 1    
    33   18   19 2    
    34   18   20 1    
    35   20   48 1    
    36   20   49 1    
    37   20   59 1    
    38   21   22 1    
    39   21   50 1    
    40   21   51 1    
    41   21   59 1    
    42   22   23 1    
    43   22   52 1    
    44   22   53 1    
    45   23   27 1    
    46   23   24 2    
    47   24   25 1    
    48   24   28 1    
    49   25   26 2    
    50   25   54 1    
    51   26   27 1    
    52   26   55 1    
    53   28   29 1    
    54   28   30 1    
    55   28   59 1    
    56   30   34 1    
    57   30   31 2    
    58   31   32 1    
    59   31   56 1    
    60   32   33 2    
    61   32   57 1    
    62   33   34 1    
    63   33   58 1    
    64   59   60 1    
@<TRIPOS>SUBSTRUCTURE
     1 UNK         1 GROUP             0       ****    0 ROOT    
