@<TRIPOS>MOLECULE
ZINC08951250_2899
49   51    1
SMALL
USER_CHARGES


@<TRIPOS>ATOM
      1 C1          1.5021   56.8481   30.9750 C.3       1 UNK         0.0000 
      2 O2          2.2327   56.0212   30.0811 O.3       1 UNK         0.0000 
      3 C3          1.6734   54.8478   29.6210 C.ar      1 UNK         0.0000 
      4 C4          0.5669   54.2179   30.2143 C.ar      1 UNK         0.0000 
      5 C5          0.0327   53.0533   29.6618 C.ar      1 UNK         0.0000 
      6 C6          0.5820   52.5039   28.5000 C.ar      1 UNK         0.0000 
      7 C7          1.7268   53.0959   27.9567 C.ar      1 UNK         0.0000 
      8 C8          2.2738   54.2533   28.5054 C.ar      1 UNK         0.0000 
      9 C9          3.4830   54.8946   27.8412 C.3       1 UNK         0.0000 
     10 O10         4.3432   53.9104   27.2712 O.3       1 UNK         0.0000 
     11 C11         4.7044   54.0970   25.9598 C.ar      1 UNK         0.0000 
     12 C12         6.0579   54.2343   25.6566 C.ar      1 UNK         0.0000 
     13 C13         6.4605   54.3765   24.3308 C.ar      1 UNK         0.0000 
     14 C14         5.5084   54.3562   23.3141 C.ar      1 UNK         0.0000 
     15 C15         4.1558   54.2082   23.6115 C.ar      1 UNK         0.0000 
     16 C16         3.7498   54.0964   24.9382 C.ar      1 UNK         0.0000 
     17 F17         5.9016   54.4915   22.0279 F         1 UNK         0.0000 
     18 C18        -0.0512   51.3598   27.8487 C.2       1 UNK         0.0000 
     19 N19         0.3050   50.9540   26.6968 N.2       1 UNK         0.0000 
     20 N20        -0.4364   49.9337   26.2593 N.am      1 UNK         0.0000 
     21 C21        -0.2308   49.3306   25.0694 C.2       1 UNK         0.0000 
     22 O22         0.7043   49.5827   24.3078 O.2       1 UNK         0.0000 
     23 C23        -1.2791   48.3135   24.6973 C.ar      1 UNK         0.0000 
     24 C24        -1.8442   48.1984   23.4090 C.ar      1 UNK         0.0000 
     25 C25        -2.8678   47.2551   23.1992 C.ar      1 UNK         0.0000 
     26 C26        -3.3190   46.4628   24.2708 C.ar      1 UNK         0.0000 
     27 C27        -2.7285   46.6143   25.5321 C.ar      1 UNK         0.0000 
     28 Cl28       -3.2286   45.6960   26.9071 Cl        1 UNK         0.0000 
     29 Cl29       -4.5914   45.3020   24.0474 Cl        1 UNK         0.0000 
     30 N30        -3.4404   47.1071   21.9310 N.pl3     1 UNK         0.0000 
     31 Cl31       -1.3241   49.2158   22.0948 Cl        1 UNK         0.0000 
     32 H32         2.1182   57.6938   31.2816 H         1 UNK         0.0000 
     33 H33         0.6180   57.2438   30.4849 H         1 UNK         0.0000 
     34 H34         1.2063   56.3262   31.8831 H         1 UNK         0.0000 
     35 H35         0.0949   54.6226   31.0967 H         1 UNK         0.0000 
     36 H36        -0.8322   52.6024   30.1332 H         1 UNK         0.0000 
     37 H37         2.1837   52.6689   27.0745 H         1 UNK         0.0000 
     38 H38         3.1047   55.6346   27.1333 H         1 UNK         0.0000 
     39 H39         4.0852   55.3984   28.5932 H         1 UNK         0.0000 
     40 H40         6.7905   54.2237   26.4505 H         1 UNK         0.0000 
     41 H41         7.5044   54.4929   24.0833 H         1 UNK         0.0000 
     42 H42         3.4261   54.1910   22.8153 H         1 UNK         0.0000 
     43 H43         2.7009   53.9790   25.1673 H         1 UNK         0.0000 
     44 H44        -0.8599   50.8973   28.4196 H         1 UNK         0.0000 
     45 H45        -1.1499   49.6127   26.9033 H         1 UNK         0.0000 
     46 H46        -3.0104   47.6545   21.1970 H         1 UNK         0.0000 
     47 H47        -4.4459   47.0144   21.8995 H         1 UNK         0.0000 
     48 N48        -1.7468   47.5160   25.6816 N.pl3     1 UNK         0.0000 
     49 H49        -1.3767   47.6459   26.6262 H         1 UNK         0.0000 
@<TRIPOS>BOND
     1    1    2 1    
     2    1   32 1    
     3    1   33 1    
     4    1   34 1    
     5    2    3 1    
     6    3    8 ar   
     7    3    4 ar   
     8    4    5 ar   
     9    4   35 1    
    10    5    6 ar   
    11    5   36 1    
    12    6    7 ar   
    13    6   18 1    
    14    7    8 ar   
    15    7   37 1    
    16    8    9 1    
    17    9   10 1    
    18    9   38 1    
    19    9   39 1    
    20   10   11 1    
    21   11   16 ar   
    22   11   12 ar   
    23   12   13 ar   
    24   12   40 1    
    25   13   14 ar   
    26   13   41 1    
    27   14   15 ar   
    28   14   17 1    
    29   15   16 ar   
    30   15   42 1    
    31   16   43 1    
    32   18   19 2    
    33   18   44 1    
    34   19   20 1    
    35   20   21 am   BACKBONE|DICT|INTERRES
    36   20   45 1    
    37   21   22 2    
    38   21   23 1    
    39   23   24 ar   
    40   23   48 ar   
    41   24   25 ar   
    42   24   31 1    
    43   25   26 ar   
    44   25   30 1    
    45   26   27 ar   
    46   26   29 1    
    47   27   28 1    
    48   27   48 ar   
    49   30   46 1    
    50   30   47 1    
    51   48   49 1    
@<TRIPOS>SUBSTRUCTURE
     1 UNK         1 GROUP             0       ****    0 ROOT    
