ZINC39442270_6055
                    3D
 Schrodinger Suite 2024-2.
 63 66  0  0  1  0            999 V2000
   -6.2672   49.9666   30.1210 C   0  0  0  0  0  0
   -4.8499   49.4244   29.8472 C   0  0  0  0  0  0
   -4.8641   47.8898   29.6957 C   0  0  0  0  0  0
   -4.2555   50.0722   28.6618 C   0  0  0  0  0  0
   -3.7167   50.5345   27.6683 C   0  0  0  0  0  0
   -3.0041   50.9407   26.4694 C   0  0  0  0  0  0
   -3.3235   52.1324   25.8179 C   0  0  0  0  0  0
   -2.6391   52.4883   24.6565 C   0  0  0  0  0  0
   -1.6405   51.6480   24.1535 C   0  0  0  0  0  0
   -1.3269   50.4557   24.8084 C   0  0  0  0  0  0
   -2.0039   50.1075   25.9701 C   0  0  0  0  0  0
   -0.8863   52.0160   22.8887 C   0  0  0  0  0  0
    0.6144   52.3006   23.1262 N   0  3  1  0  0  0
    1.3578   52.4642   21.7779 C   0  0  0  0  0  0
    2.8544   52.6588   22.0728 C   0  0  0  0  0  0
    3.1185   53.8826   22.9859 C   0  0  1  0  0  0
    2.3390   53.6598   24.3119 C   0  0  0  0  0  0
    0.8292   53.5012   24.0832 C   0  0  0  0  0  0
    4.6261   54.0956   23.2624 C   0  0  0  0  0  0
    5.1127   54.4967   24.3688 N   0  0  0  0  0  0
    6.3789   54.4991   24.3851 N   0  0  0  0  0  0
    6.8319   54.0980   23.2823 C   0  0  0  0  0  0
    5.7509   53.8078   22.2815 C   0  0  2  0  0  0
    5.7704   52.7438   22.0458 H   0  0  0  0  0  0
    5.7929   54.6339   20.9772 C   0  0  0  0  0  0
    6.3035   55.9420   20.9278 C   0  0  0  0  0  0
    6.3061   56.6592   19.7309 C   0  0  0  0  0  0
    5.8118   56.0799   18.5666 C   0  0  0  0  0  0
    5.3230   54.7708   18.5830 C   0  0  0  0  0  0
    5.3366   54.0547   19.7849 C   0  0  0  0  0  0
    4.7724   54.1354   17.3077 C   0  0  0  0  0  0
    3.8186   53.2440   17.5847 F   0  0  0  0  0  0
    4.2470   55.0549   16.4966 F   0  0  0  0  0  0
    5.7610   53.5166   16.6637 F   0  0  0  0  0  0
   -4.0956   49.6970   31.0015 O   0  0  0  0  0  0
   -6.9398   49.7748   29.2838 H   0  0  0  0  0  0
   -6.2623   51.0427   30.2990 H   0  0  0  0  0  0
   -6.7083   49.4972   31.0011 H   0  0  0  0  0  0
   -5.4713   47.5771   28.8447 H   0  0  0  0  0  0
   -3.8597   47.4855   29.5430 H   0  0  0  0  0  0
   -5.2766   47.4041   30.5820 H   0  0  0  0  0  0
   -4.0985   52.7802   26.2037 H   0  0  0  0  0  0
   -2.8897   53.4114   24.1539 H   0  0  0  0  0  0
   -0.5588   49.7991   24.4273 H   0  0  0  0  0  0
   -1.7497   49.1890   26.4817 H   0  0  0  0  0  0
   -0.9220   51.1869   22.1785 H   0  0  0  0  0  0
   -1.3009   52.8965   22.4013 H   0  0  0  0  0  0
    1.2118   51.5387   21.2159 H   0  0  0  0  0  0
    0.9101   53.2966   21.2361 H   0  0  0  0  0  0
    3.2904   51.7477   22.4817 H   0  0  0  0  0  0
    3.3768   52.7746   21.1298 H   0  0  0  0  0  0
    2.7495   54.7842   22.4919 H   0  0  0  0  0  0
    2.5090   54.4964   24.9916 H   0  0  0  0  0  0
    2.7471   52.8102   24.8644 H   0  0  0  0  0  0
    0.3596   54.3895   23.6627 H   0  0  0  0  0  0
    0.3449   53.2438   25.0254 H   0  0  0  0  0  0
    7.8992   53.9897   23.0912 H   0  0  0  0  0  0
    6.6793   56.4169   21.8209 H   0  0  0  0  0  0
    6.6807   57.6720   19.6959 H   0  0  0  0  0  0
    5.8113   56.6534   17.6507 H   0  0  0  0  0  0
    4.9996   53.0288   19.7757 H   0  0  0  0  0  0
   -3.2060   49.3118   30.8811 H   0  0  0  0  0  0
    1.0068   51.4893   23.5845 H   0  0  0  0  0  0
  1  2  1  0  0  0
  1 36  1  0  0  0
  1 37  1  0  0  0
  1 38  1  0  0  0
  2  3  1  0  0  0
  2  4  1  0  0  0
  2 35  1  0  0  0
  3 39  1  0  0  0
  3 40  1  0  0  0
  3 41  1  0  0  0
  4  5  3  0  0  0
  5  6  1  0  0  0
  6 11  2  0  0  0
  6  7  1  0  0  0
  7  8  2  0  0  0
  7 42  1  0  0  0
  8  9  1  0  0  0
  8 43  1  0  0  0
  9 10  2  0  0  0
  9 12  1  0  0  0
 10 11  1  0  0  0
 10 44  1  0  0  0
 11 45  1  0  0  0
 12 13  1  0  0  0
 12 46  1  0  0  0
 12 47  1  0  0  0
 13 18  1  0  0  0
 13 14  1  0  0  0
 13 63  1  0  0  0
 14 15  1  0  0  0
 14 48  1  0  0  0
 14 49  1  0  0  0
 15 16  1  0  0  0
 15 50  1  0  0  0
 15 51  1  0  0  0
 16 17  1  0  0  0
 16 19  1  0  0  0
 16 52  1  0  0  0
 17 18  1  0  0  0
 17 53  1  0  0  0
 17 54  1  0  0  0
 18 55  1  0  0  0
 18 56  1  0  0  0
 19 23  1  0  0  0
 19 20  2  0  0  0
 20 21  1  0  0  0
 21 22  2  0  0  0
 22 23  1  0  0  0
 22 57  1  0  0  0
 23 24  1  0  0  0
 23 25  1  0  0  0
 25 30  2  0  0  0
 25 26  1  0  0  0
 26 27  2  0  0  0
 26 58  1  0  0  0
 27 28  1  0  0  0
 27 59  1  0  0  0
 28 29  2  0  0  0
 28 60  1  0  0  0
 29 30  1  0  0  0
 29 31  1  0  0  0
 30 61  1  0  0  0
 31 32  1  0  0  0
 31 33  1  0  0  0
 31 34  1  0  0  0
 35 62  1  0  0  0
M  CHG  1  13   1
M  END
> <i_i_glide_confnum>
2

> <i_i_glide_lignum>
6056

> <i_i_glide_posenum>
308

> <i_i_glide_rotatable_bonds>
8

> <i_m_Source_File_Index>
1031

> <b_m_subgroup_collapsed>
0

> <r_i_docking_score>
-4.40415

> <r_i_glide_ecoul>
-4.32615

> <r_i_glide_eff_state_penalty>
0

> <r_i_glide_einternal>
2.00055

> <r_i_glide_emodel>
-51.3009

> <r_i_glide_energy>
-39.9708

> <r_i_glide_erotb>
0.551849

> <r_i_glide_esite>
-0.0785267

> <r_i_glide_evdw>
-35.6446

> <r_i_glide_gscore>
-4.40415

> <r_i_glide_hbond>
-0.16

> <r_i_glide_ligand_efficiency>
-0.129534

> <r_i_glide_ligand_efficiency_ln>
-0.973

> <r_i_glide_ligand_efficiency_sa>
-0.419639

> <r_i_glide_lipo>
-1.47341

> <r_i_glide_metal>
0

> <r_i_glide_rewards>
-0.812911

> <s_i_glide_gridfile>
wee1_glide-grid

> <s_m_Source_File>
wee1_decoys_glide_SP.sdf

> <s_m_Source_Path>
/Users/zhangxujun/Desktop

> <s_m_entry_id>
1306

> <s_m_entry_name>
wee1_decoys_glide_SP.1031

> <s_m_subgroup_title>
wee1_decoys_glide_SP

> <s_m_subgroupid>
wee1_decoys_glide_SP


$$$$
