ZINC01326716_501
                    3D
 Schrodinger Suite 2024-2.
 55 59  0  0  1  0            999 V2000
   -5.3015   49.7502   30.4959 C   0  0  0  0  0  0
   -4.6705   50.5745   29.3783 C   0  0  0  0  0  0
   -5.3873   51.2693   28.6612 O   0  0  0  0  0  0
   -3.3307   50.5005   29.2876 N   0  0  0  0  0  0
   -2.4764   51.1318   28.3691 C   0  0  0  0  0  0
   -2.8379   51.4535   27.0550 C   0  0  0  0  0  0
   -1.8744   51.9278   26.1682 C   0  0  0  0  0  0
   -0.5379   52.0796   26.5841 C   0  0  0  0  0  0
   -0.1941   51.7805   27.9033 C   0  0  0  0  0  0
   -1.1584   51.3120   28.7890 C   0  0  0  0  0  0
    0.5271   52.4964   25.7588 N   0  0  0  0  0  0
    0.5028   52.8983   24.4686 C   0  0  0  0  0  0
   -0.4984   52.9129   23.7493 O   0  0  0  0  0  0
    1.7790   53.3523   23.9485 C   0  0  0  0  0  0
    1.9733   53.6997   22.6085 C   0  0  0  0  0  0
    3.2935   54.0419   22.4784 C   0  0  0  0  0  0
    3.8452   53.9320   23.7353 N   0  0  0  0  0  0
    2.9102   53.5209   24.6219 N   0  0  0  0  0  0
    5.2895   53.9331   24.0280 C   0  0  1  0  0  0
    5.5793   52.8967   24.0408 H   0  0  0  0  0  0
    6.0705   54.5193   22.8250 C   0  0  0  0  0  0
    5.4552   54.2337   21.4254 C   0  0  1  0  0  0
    5.5693   53.1727   21.1957 H   0  0  0  0  0  0
    4.0213   54.4898   21.4084 N   0  0  0  0  0  0
    6.1213   54.9935   20.2804 C   0  0  0  0  0  0
    6.4650   54.3141   19.0931 C   0  0  0  0  0  0
    6.9767   55.0029   17.9857 C   0  0  0  0  0  0
    7.1070   56.3813   18.0947 C   0  0  0  0  0  0
    6.7882   57.0458   19.2445 C   0  0  0  0  0  0
    6.2997   56.3858   20.3626 C   0  0  0  0  0  0
    7.0319   58.3713   19.0805 O   0  0  0  0  0  0
    7.2062   58.5322   17.7016 C   0  0  0  0  0  0
    7.5428   57.2760   17.1695 O   0  0  0  0  0  0
    5.6949   54.4779   25.4209 C   0  0  0  0  0  0
    7.0208   54.5433   25.5481 F   0  0  0  0  0  0
    5.2274   55.7009   25.6279 F   0  0  0  0  0  0
    5.2489   53.7080   26.4132 F   0  0  0  0  0  0
   -6.1737   50.2644   30.8990 H   0  0  0  0  0  0
   -4.5993   49.5840   31.3120 H   0  0  0  0  0  0
   -5.6202   48.7815   30.1138 H   0  0  0  0  0  0
   -2.8500   49.8935   29.9473 H   0  0  0  0  0  0
   -3.8425   51.2899   26.6977 H   0  0  0  0  0  0
   -2.1913   52.1311   25.1592 H   0  0  0  0  0  0
    0.8261   51.8822   28.2494 H   0  0  0  0  0  0
   -0.8671   51.0483   29.7976 H   0  0  0  0  0  0
    1.4285   52.5333   26.2101 H   0  0  0  0  0  0
    1.2348   53.6927   21.8195 H   0  0  0  0  0  0
    6.1676   55.5819   22.9904 H   0  0  0  0  0  0
    7.1046   54.1720   22.8531 H   0  0  0  0  0  0
    3.6338   54.3148   20.4917 H   0  0  0  0  0  0
    6.3120   53.2472   19.0117 H   0  0  0  0  0  0
    7.2306   54.4786   17.0770 H   0  0  0  0  0  0
    6.0158   56.9341   21.2454 H   0  0  0  0  0  0
    7.9544   59.2911   17.4772 H   0  0  0  0  0  0
    6.2623   58.8720   17.2668 H   0  0  0  0  0  0
  1  2  1  0  0  0
  1 38  1  0  0  0
  1 39  1  0  0  0
  1 40  1  0  0  0
  2  3  2  0  0  0
  2  4  1  0  0  0
  4  5  1  0  0  0
  4 41  1  0  0  0
  5 10  2  0  0  0
  5  6  1  0  0  0
  6  7  2  0  0  0
  6 42  1  0  0  0
  7  8  1  0  0  0
  7 43  1  0  0  0
  8  9  2  0  0  0
  8 11  1  0  0  0
  9 10  1  0  0  0
  9 44  1  0  0  0
 10 45  1  0  0  0
 11 12  1  0  0  0
 11 46  1  0  0  0
 12 13  2  0  0  0
 12 14  1  0  0  0
 14 18  2  0  0  0
 14 15  1  0  0  0
 15 16  2  0  0  0
 15 47  1  0  0  0
 16 24  1  0  0  0
 16 17  1  0  0  0
 17 18  1  0  0  0
 17 19  1  0  0  0
 19 20  1  0  0  0
 19 21  1  0  0  0
 19 34  1  0  0  0
 21 22  1  0  0  0
 21 48  1  0  0  0
 21 49  1  0  0  0
 22 23  1  0  0  0
 22 24  1  0  0  0
 22 25  1  0  0  0
 24 50  1  0  0  0
 25 30  2  0  0  0
 25 26  1  0  0  0
 26 27  2  0  0  0
 26 51  1  0  0  0
 27 28  1  0  0  0
 27 52  1  0  0  0
 28 33  1  0  0  0
 28 29  2  0  0  0
 29 30  1  0  0  0
 29 31  1  0  0  0
 30 53  1  0  0  0
 31 32  1  0  0  0
 32 33  1  0  0  0
 32 54  1  0  0  0
 32 55  1  0  0  0
 34 35  1  0  0  0
 34 36  1  0  0  0
 34 37  1  0  0  0
M  END
> <i_i_glide_confnum>
73

> <i_i_glide_lignum>
502

> <i_i_glide_posenum>
227

> <i_i_glide_rotatable_bonds>
7

> <i_m_Source_File_Index>
485

> <b_m_subgroup_collapsed>
0

> <r_i_docking_score>
-5.57693

> <r_i_glide_ecoul>
-6.04094

> <r_i_glide_eff_state_penalty>
0

> <r_i_glide_einternal>
10.6878

> <r_i_glide_emodel>
-51.4098

> <r_i_glide_energy>
-42.0899

> <r_i_glide_erotb>
0.427825

> <r_i_glide_esite>
-0.223409

> <r_i_glide_evdw>
-36.049

> <r_i_glide_gscore>
-5.57693

> <r_i_glide_hbond>
-0.274204

> <r_i_glide_ligand_efficiency>
-0.159341

> <r_i_glide_ligand_efficiency_ln>
-1.22426

> <r_i_glide_ligand_efficiency_sa>
-0.521215

> <r_i_glide_lipo>
-1.57595

> <r_i_glide_metal>
0

> <r_i_glide_rewards>
-1.2226

> <s_i_glide_gridfile>
wee1_glide-grid

> <s_m_Source_File>
wee1_decoys_glide_SP.sdf

> <s_m_Source_Path>
/Users/zhangxujun/Desktop

> <s_m_entry_id>
760

> <s_m_entry_name>
wee1_decoys_glide_SP.485

> <s_m_subgroup_title>
wee1_decoys_glide_SP

> <s_m_subgroupid>
wee1_decoys_glide_SP


$$$$
