@<TRIPOS>MOLECULE
ZINC04028997_3858
59   62    1
SMALL
USER_CHARGES


@<TRIPOS>ATOM
      1 C1          1.5023   54.4163   23.7897 C.3       1 UNK         0.0000 
      2 C2          2.5162   53.2537   23.9672 C.3       1 UNK         0.0000 
      3 C3          3.2274   53.5397   25.3374 C.3       1 UNK         0.0000 
      4 C4          4.3584   54.6033   25.3178 C.3       1 UNK         0.0000 
      5 C5          5.2916   54.4932   24.0953 C.3       1 UNK         0.0000 
      6 H6          5.8098   53.5351   24.1641 H         1 UNK         0.0000 
      7 C7          4.4582   54.4759   22.7911 C.3       1 UNK         0.0000 
      8 C8          3.5721   53.2426   22.7845 C.3       1 UNK         0.0000 
      9 H9          4.3263   52.4969   22.8818 H         1 UNK         0.0000 
     10 C10         2.8992   52.9156   21.4429 C.3       1 UNK         0.0000 
     11 C11         2.2170   51.5340   21.4653 C.3       1 UNK         0.0000 
     12 C12         1.2226   51.3278   22.6461 C.3       1 UNK         0.0000 
     13 H13         1.1257   50.2450   22.7530 H         1 UNK         0.0000 
     14 C14         1.8503   51.8161   23.9813 C.3       1 UNK         0.0000 
     15 H15         2.6965   51.1352   24.0731 H         1 UNK         0.0000 
     16 C16         0.9313   51.4139   25.1593 C.3       1 UNK         0.0000 
     17 C17        -0.5343   51.8718   25.0595 C.3       1 UNK         0.0000 
     18 C18        -1.1986   51.8594   23.6361 C.3       1 UNK         0.0000 
     19 C19        -0.2176   51.8697   22.4034 C.3       1 UNK         0.0000 
     20 H20        -0.0882   52.8939   22.0638 H         1 UNK         0.0000 
     21 C21        -0.9487   51.1048   21.2709 C.3       1 UNK         0.0000 
     22 C22        -2.1555   50.3911   21.8815 C.3       1 UNK         0.0000 
     23 C23        -2.0392   50.5653   23.4009 C.3       1 UNK         0.0000 
     24 H24        -3.0519   50.6960   23.7941 H         1 UNK         0.0000 
     25 N25        -1.4938   49.3762   24.0712 N.am      1 UNK         0.0000 
     26 C26        -2.2013   48.2894   24.4200 C.2       1 UNK         0.0000 
     27 O27        -3.3717   48.1148   24.0779 O.2       1 UNK         0.0000 
     28 C28        -1.4692   47.2645   25.2865 C.3       1 UNK         0.0000 
     29 Cl29       -2.5630   46.0976   26.0861 Cl        1 UNK         0.0000 
     30 C30        -2.1537   53.0838   23.5561 C.3       1 UNK         0.0000 
     31 O31         6.3043   55.4754   24.1004 O.3       1 UNK         0.0000 
     32 H32         1.9596   55.3624   24.0635 H         1 UNK         0.0000 
     33 H33         1.1050   54.5360   22.7874 H         1 UNK         0.0000 
     34 H34         0.6587   54.3312   24.4618 H         1 UNK         0.0000 
     35 H35         2.5012   53.7510   26.1241 H         1 UNK         0.0000 
     36 H36         3.6973   52.6283   25.6795 H         1 UNK         0.0000 
     37 H37         4.9371   54.5499   26.2417 H         1 UNK         0.0000 
     38 H38         3.8861   55.5830   25.3255 H         1 UNK         0.0000 
     39 H39         5.1336   54.4699   21.9341 H         1 UNK         0.0000 
     40 H40         3.7887   55.2966   22.6297 H         1 UNK         0.0000 
     41 H41         2.2074   53.6943   21.1804 H         1 UNK         0.0000 
     42 H42         3.6457   52.9229   20.6463 H         1 UNK         0.0000 
     43 H43         3.0037   50.7818   21.5521 H         1 UNK         0.0000 
     44 H44         1.7507   51.3177   20.5048 H         1 UNK         0.0000 
     45 H45         0.9122   50.3244   25.2010 H         1 UNK         0.0000 
     46 H46         1.3626   51.6987   26.1188 H         1 UNK         0.0000 
     47 H47        -0.4690   52.8989   25.3956 H         1 UNK         0.0000 
     48 H48        -1.1821   51.4380   25.8234 H         1 UNK         0.0000 
     49 H49        -0.3026   50.4090   20.7367 H         1 UNK         0.0000 
     50 H50        -1.3054   51.8124   20.5211 H         1 UNK         0.0000 
     51 H51        -2.2531   49.3493   21.5700 H         1 UNK         0.0000 
     52 H52        -3.0620   50.8899   21.5357 H         1 UNK         0.0000 
     53 H53        -0.5302   49.4383   24.3630 H         1 UNK         0.0000 
     54 H54        -0.9166   47.7699   26.0808 H         1 UNK         0.0000 
     55 H55        -0.7611   46.7015   24.6824 H         1 UNK         0.0000 
     56 H56        -1.6144   54.0227   23.6816 H         1 UNK         0.0000 
     57 H57        -2.6709   53.1387   22.5991 H         1 UNK         0.0000 
     58 H58        -2.9171   53.0490   24.3345 H         1 UNK         0.0000 
     59 H59         6.8373   55.3556   24.8886 H         1 UNK         0.0000 
@<TRIPOS>BOND
     1    1    2 1    
     2    1   32 1    
     3    1   33 1    
     4    1   34 1    
     5    2    8 1    
     6    2   14 1    
     7    2    3 1    
     8    3    4 1    
     9    3   35 1    
    10    3   36 1    
    11    4    5 1    
    12    4   37 1    
    13    4   38 1    
    14    5    6 1    
    15    5    7 1    
    16    5   31 1    
    17    7    8 1    
    18    7   39 1    
    19    7   40 1    
    20    8    9 1    
    21    8   10 1    
    22   10   11 1    
    23   10   41 1    
    24   10   42 1    
    25   11   12 1    
    26   11   43 1    
    27   11   44 1    
    28   12   13 1    
    29   12   19 1    
    30   12   14 1    
    31   14   15 1    
    32   14   16 1    
    33   16   17 1    
    34   16   45 1    
    35   16   46 1    
    36   17   18 1    
    37   17   47 1    
    38   17   48 1    
    39   18   23 1    
    40   18   19 1    
    41   18   30 1    
    42   19   20 1    
    43   19   21 1    
    44   21   22 1    
    45   21   49 1    
    46   21   50 1    
    47   22   23 1    
    48   22   51 1    
    49   22   52 1    
    50   23   24 1    
    51   23   25 1    
    52   25   26 am   BACKBONE|DICT|INTERRES
    53   25   53 1    
    54   26   27 2    
    55   26   28 1    
    56   28   29 1    
    57   28   54 1    
    58   28   55 1    
    59   30   56 1    
    60   30   57 1    
    61   30   58 1    
    62   31   59 1    
@<TRIPOS>SUBSTRUCTURE
     1 UNK         1 GROUP             0       ****    0 ROOT    
