@<TRIPOS>MOLECULE
ZINC39030345_3801
34   37    1
SMALL
USER_CHARGES


@<TRIPOS>ATOM
      1 C1          5.5942   54.6470   25.6387 C.ar      1 UNK         0.0000 
      2 C2          6.4799   54.0825   26.5562 C.ar      1 UNK         0.0000 
      3 C3          6.0382   53.6966   27.8228 C.ar      1 UNK         0.0000 
      4 C4          4.7031   53.8968   28.1726 C.ar      1 UNK         0.0000 
      5 C5          3.8311   54.4965   27.2748 C.ar      1 UNK         0.0000 
      6 C6          4.2637   54.8558   25.9991 C.ar      1 UNK         0.0000 
      7 N7          2.5784   54.7558   27.8161 N.pl3     1 UNK         0.0000 
      8 C8          2.2976   54.1344   29.1042 C.3       1 UNK         0.0000 
      9 H9          2.0639   54.9491   29.7932 H         1 UNK         0.0000 
     10 S10         3.9045   53.4857   29.6817 S.3       1 UNK         0.0000 
     11 N11         1.1707   53.1836   29.0742 N.pl3     1 UNK         0.0000 
     12 C12         0.6806   52.5101   30.1295 C.ar      1 UNK         0.0000 
     13 O13         1.1065   52.5141   31.2834 O.2       1 UNK         0.0000 
     14 C14        -0.4637   51.8019   29.5965 C.ar      1 UNK         0.0000 
     15 C15        -0.5773   52.0798   28.2829 C.ar      1 UNK         0.0000 
     16 N16         0.4668   52.8957   27.9279 N.pl3     1 UNK         0.0000 
     17 H17         0.3766   53.7548   27.4106 H         1 UNK         0.0000 
     18 C18        -1.6566   51.6826   27.3381 C.ar      1 UNK         0.0000 
     19 C19        -1.6194   52.0968   25.9981 C.ar      1 UNK         0.0000 
     20 C20        -2.6405   51.7532   25.1166 C.ar      1 UNK         0.0000 
     21 C21        -3.7072   50.9816   25.5653 C.ar      1 UNK         0.0000 
     22 C22        -3.7589   50.5507   26.8867 C.ar      1 UNK         0.0000 
     23 C23        -2.7383   50.8999   27.7674 C.ar      1 UNK         0.0000 
     24 F24        -4.6973   50.6453   24.7079 F         1 UNK         0.0000 
     25 H25         5.9397   54.9255   24.6535 H         1 UNK         0.0000 
     26 H26         7.5044   53.9189   26.2764 H         1 UNK         0.0000 
     27 H27         6.7338   53.2491   28.5160 H         1 UNK         0.0000 
     28 H28         3.5848   55.2970   25.2864 H         1 UNK         0.0000 
     29 H29         1.8868   55.3723   27.4164 H         1 UNK         0.0000 
     30 H30        -1.1211   51.1867   30.1947 H         1 UNK         0.0000 
     31 H31        -0.7972   52.6903   25.6274 H         1 UNK         0.0000 
     32 H32        -2.6045   52.0754   24.0874 H         1 UNK         0.0000 
     33 H33        -4.5802   49.9382   27.2252 H         1 UNK         0.0000 
     34 H34        -2.7857   50.5348   28.7833 H         1 UNK         0.0000 
@<TRIPOS>BOND
     1    1    6 ar   
     2    1    2 ar   
     3    1   25 1    
     4    2    3 ar   
     5    2   26 1    
     6    3    4 ar   
     7    3   27 1    
     8    4   10 1    
     9    4    5 ar   
    10    5    6 ar   
    11    5    7 1    
    12    6   28 1    
    13    7    8 1    
    14    7   29 1    
    15    8    9 1    
    16    8   10 1    
    17    8   11 1    
    18   11   16 1    
    19   11   12 ar   
    20   12   13 2    
    21   12   14 ar   
    22   14   15 ar   
    23   14   30 1    
    24   15   16 ar   
    25   15   18 1    
    26   16   17 1    
    27   18   23 ar   
    28   18   19 ar   
    29   19   20 ar   
    30   19   31 1    
    31   20   21 ar   
    32   20   32 1    
    33   21   22 ar   
    34   21   24 1    
    35   22   23 ar   
    36   22   33 1    
    37   23   34 1    
@<TRIPOS>SUBSTRUCTURE
     1 UNK         1 GROUP             0       ****    0 ROOT    
