@<TRIPOS>MOLECULE
ZINC22036805_2167
54   56    1
SMALL
USER_CHARGES


@<TRIPOS>ATOM
      1 C1         -1.3638   48.2324   25.2124 C.ar      1 UNK         0.0000 
      2 C2         -1.5584   47.5513   24.0152 C.ar      1 UNK         0.0000 
      3 C3         -1.1002   48.1014   22.8219 C.ar      1 UNK         0.0000 
      4 C4         -0.4389   49.3268   22.8151 C.ar      1 UNK         0.0000 
      5 C5         -0.2452   50.0151   24.0104 C.ar      1 UNK         0.0000 
      6 C6         -0.7130   49.4706   25.2215 C.ar      1 UNK         0.0000 
      7 N7         -0.6089   50.0961   26.4811 N.am      1 UNK         0.0000 
      8 C8          0.0147   51.2423   26.8152 C.2       1 UNK         0.0000 
      9 O9          0.6970   51.9284   26.0479 O.2       1 UNK         0.0000 
     10 C10        -0.1753   51.7043   28.2668 C.3       1 UNK         0.0000 
     11 N11         0.9720   52.6942   28.6025 N.4       1 UNK         0.0000 
     12 C12         0.4814   53.9977   29.2655 C.3       1 UNK         0.0000 
     13 C13         1.6072   54.9209   29.7580 C.3       1 UNK         0.0000 
     14 C14         2.8452   55.0448   28.8467 C.3       1 UNK         0.0000 
     15 N15         3.8551   53.9834   28.9775 N.3       1 UNK         0.0000 
     16 C16         3.5118   52.5849   28.6900 C.3       1 UNK         0.0000 
     17 C17         2.1987   52.0192   29.2549 C.3       1 UNK         0.0000 
     18 C18         5.2612   54.3626   28.6914 C.3       1 UNK         0.0000 
     19 C19         5.6418   54.4984   27.1888 C.2       1 UNK         0.0000 
     20 O20         6.8103   54.7760   26.9190 O.2       1 UNK         0.0000 
     21 N21         4.6762   54.3167   26.2599 N.am      1 UNK         0.0000 
     22 C22         4.7507   54.3068   24.8549 C.ar      1 UNK         0.0000 
     23 C23         5.9385   54.4569   24.1192 C.ar      1 UNK         0.0000 
     24 C24         5.9103   54.3815   22.7303 C.ar      1 UNK         0.0000 
     25 C25         4.7069   54.1585   22.0708 C.ar      1 UNK         0.0000 
     26 C26         3.5224   54.0246   22.7886 C.ar      1 UNK         0.0000 
     27 C27         3.5438   54.0964   24.1802 C.ar      1 UNK         0.0000 
     28 F28         4.6886   54.0802   20.7224 F         1 UNK         0.0000 
     29 F29        -1.2974   47.4356   21.6612 F         1 UNK         0.0000 
     30 H30        -1.7267   47.7908   26.1307 H         1 UNK         0.0000 
     31 H31        -2.0666   46.5991   24.0081 H         1 UNK         0.0000 
     32 H32        -0.0807   49.7411   21.8838 H         1 UNK         0.0000 
     33 H33         0.2590   50.9678   23.9592 H         1 UNK         0.0000 
     34 H34        -1.0303   49.5479   27.2326 H         1 UNK         0.0000 
     35 H35        -0.1768   50.8965   29.0028 H         1 UNK         0.0000 
     36 H36        -1.1181   52.2467   28.3474 H         1 UNK         0.0000 
     37 H37        -0.1873   53.7035   30.0771 H         1 UNK         0.0000 
     38 H38        -0.0996   54.4807   28.4804 H         1 UNK         0.0000 
     39 H39         1.9038   54.5473   30.7328 H         1 UNK         0.0000 
     40 H40         1.1838   55.9128   29.9254 H         1 UNK         0.0000 
     41 H41         3.3063   56.0002   29.1016 H         1 UNK         0.0000 
     42 H42         2.5550   55.1375   27.7994 H         1 UNK         0.0000 
     43 H43         3.3621   52.5314   27.6109 H         1 UNK         0.0000 
     44 H44         4.3436   51.9078   28.8866 H         1 UNK         0.0000 
     45 H45         2.1398   50.9589   29.0000 H         1 UNK         0.0000 
     46 H46         2.0958   52.1086   30.3365 H         1 UNK         0.0000 
     47 H47         5.9243   53.6087   29.1171 H         1 UNK         0.0000 
     48 H48         5.5030   55.2964   29.2006 H         1 UNK         0.0000 
     49 H49         3.7634   54.1264   26.6396 H         1 UNK         0.0000 
     50 H50         6.8970   54.6128   24.5841 H         1 UNK         0.0000 
     51 H51         6.8229   54.4954   22.1661 H         1 UNK         0.0000 
     52 H52         2.5931   53.8618   22.2628 H         1 UNK         0.0000 
     53 H53         2.6161   53.9751   24.7229 H         1 UNK         0.0000 
     54 H54         1.2823   52.9826   27.6802 H         1 UNK         0.0000 
@<TRIPOS>BOND
     1    1    6 ar   
     2    1    2 ar   
     3    1   30 1    
     4    2    3 ar   
     5    2   31 1    
     6    3    4 ar   
     7    3   29 1    
     8    4    5 ar   
     9    4   32 1    
    10    5    6 ar   
    11    5   33 1    
    12    6    7 1    
    13    7    8 am   BACKBONE|DICT|INTERRES
    14    7   34 1    
    15    8    9 2    
    16    8   10 1    
    17   10   11 1    
    18   10   35 1    
    19   10   36 1    
    20   11   17 1    
    21   11   12 1    
    22   11   54 1    
    23   12   13 1    
    24   12   37 1    
    25   12   38 1    
    26   13   14 1    
    27   13   39 1    
    28   13   40 1    
    29   14   15 1    
    30   14   41 1    
    31   14   42 1    
    32   15   16 1    
    33   15   18 1    
    34   16   17 1    
    35   16   43 1    
    36   16   44 1    
    37   17   45 1    
    38   17   46 1    
    39   18   19 1    
    40   18   47 1    
    41   18   48 1    
    42   19   20 2    
    43   19   21 am   BACKBONE|DICT|INTERRES
    44   21   22 1    
    45   21   49 1    
    46   22   27 ar   
    47   22   23 ar   
    48   23   24 ar   
    49   23   50 1    
    50   24   25 ar   
    51   24   51 1    
    52   25   26 ar   
    53   25   28 1    
    54   26   27 ar   
    55   26   52 1    
    56   27   53 1    
@<TRIPOS>SUBSTRUCTURE
     1 UNK         1 GROUP             0       ****    0 ROOT    
