@<TRIPOS>MOLECULE
ZINC13739591_933
58   61    1
SMALL
USER_CHARGES


@<TRIPOS>ATOM
      1 C1          9.7678   57.9145   18.6326 C.3       1 UNK         0.0000 
      2 C2          8.2876   58.2882   18.4161 C.3       1 UNK         0.0000 
      3 O3          7.3940   57.2825   18.8973 O.3       1 UNK         0.0000 
      4 C4          7.2289   56.1079   18.2305 C.2       1 UNK         0.0000 
      5 O5          7.8059   55.8555   17.1715 O.2       1 UNK         0.0000 
      6 C6          6.2350   55.1919   18.8440 C.2       1 UNK         0.0000 
      7 C7          6.1094   55.0036   20.1925 C.2       1 UNK         0.0000 
      8 N8          5.1612   54.2020   20.7956 N.am      1 UNK         0.0000 
      9 C9          5.2280   54.0655   22.1651 C.2       1 UNK         0.0000 
     10 O10         4.5297   53.3023   22.8352 O.2       1 UNK         0.0000 
     11 C11         6.2385   54.9352   22.7323 C.2       1 UNK         0.0000 
     12 C12         6.4738   55.1525   24.0538 C.2       1 UNK         0.0000 
     13 C13         5.7822   54.7165   25.2966 C.ar      1 UNK         0.0000 
     14 C14         6.5624   54.4283   26.4213 C.ar      1 UNK         0.0000 
     15 C15         5.9725   54.0485   27.6233 C.ar      1 UNK         0.0000 
     16 C16         4.5880   53.9468   27.7167 C.ar      1 UNK         0.0000 
     17 C17         3.7922   54.2423   26.6078 C.ar      1 UNK         0.0000 
     18 C18         4.3874   54.6350   25.4093 C.ar      1 UNK         0.0000 
     19 S19         3.8755   53.4548   29.2671 S.3       1 UNK         0.0000 
     20 C20         2.0974   53.1695   29.0333 C.3       1 UNK         0.0000 
     21 S21         7.1514   55.6967   21.4466 S.3       1 UNK         0.0000 
     22 C22         4.2064   53.5975   19.9575 C.2       1 UNK         0.0000 
     23 C23         4.1987   53.7185   18.6057 C.2       1 UNK         0.0000 
     24 C24         5.2810   54.4894   17.8415 C.3       1 UNK         0.0000 
     25 H25         4.7911   55.2984   17.2959 H         1 UNK         0.0000 
     26 C26         5.9269   53.6501   16.7211 C.ar      1 UNK         0.0000 
     27 C27         7.0602   52.8703   16.9751 C.ar      1 UNK         0.0000 
     28 C28         7.6327   52.0996   15.9636 C.ar      1 UNK         0.0000 
     29 C29         7.0673   52.0998   14.6876 C.ar      1 UNK         0.0000 
     30 C30         5.9417   52.8788   14.4248 C.ar      1 UNK         0.0000 
     31 C31         5.3747   53.6525   15.4349 C.ar      1 UNK         0.0000 
     32 S32         7.7473   51.1267   13.3674 S.3       1 UNK         0.0000 
     33 C33         9.2132   50.2294   13.9605 C.3       1 UNK         0.0000 
     34 C34         3.1548   53.1287   17.8209 C.1       1 UNK         0.0000 
     35 N35         2.2826   52.6958   17.1961 N.1       1 UNK         0.0000 
     36 N36         3.2000   52.8639   20.5567 N.pl3     1 UNK         0.0000 
     37 H37        10.4205   58.7386   18.3449 H         1 UNK         0.0000 
     38 H38         9.9780   57.6711   19.6768 H         1 UNK         0.0000 
     39 H39        10.0546   57.0494   18.0338 H         1 UNK         0.0000 
     40 H40         8.0946   58.4926   17.3612 H         1 UNK         0.0000 
     41 H41         8.0643   59.2134   18.9481 H         1 UNK         0.0000 
     42 H42         7.3042   55.8159   24.2533 H         1 UNK         0.0000 
     43 H43         7.6352   54.4965   26.3744 H         1 UNK         0.0000 
     44 H44         6.5951   53.8318   28.4811 H         1 UNK         0.0000 
     45 H45         2.7160   54.1872   26.6585 H         1 UNK         0.0000 
     46 H46         3.7479   54.8908   24.5748 H         1 UNK         0.0000 
     47 H47         1.6465   52.8256   29.9643 H         1 UNK         0.0000 
     48 H48         1.5927   54.0882   28.7328 H         1 UNK         0.0000 
     49 H49         1.9276   52.4050   28.2731 H         1 UNK         0.0000 
     50 H50         7.4970   52.8578   17.9624 H         1 UNK         0.0000 
     51 H51         8.5026   51.5049   16.1922 H         1 UNK         0.0000 
     52 H52         5.5014   52.8856   13.4379 H         1 UNK         0.0000 
     53 H53         4.4986   54.2458   15.2174 H         1 UNK         0.0000 
     54 H54         9.6641   49.6698   13.1402 H         1 UNK         0.0000 
     55 H55         8.9462   49.5223   14.7457 H         1 UNK         0.0000 
     56 H56         9.9623   50.9228   14.3431 H         1 UNK         0.0000 
     57 H57         2.4789   52.4200   20.0061 H         1 UNK         0.0000 
     58 H58         3.1812   52.7397   21.5605 H         1 UNK         0.0000 
@<TRIPOS>BOND
     1    1    2 1    
     2    1   37 1    
     3    1   38 1    
     4    1   39 1    
     5    2    3 1    
     6    2   40 1    
     7    2   41 1    
     8    3    4 1    
     9    4    5 2    
    10    4    6 1    
    11    6   24 1    
    12    6    7 2    
    13    7   21 1    
    14    7    8 am   BACKBONE|DICT|INTERRES
    15    8    9 am   BACKBONE|DICT|INTERRES
    16    8   22 1    
    17    9   10 2    
    18    9   11 1    
    19   11   12 2    
    20   11   21 1    
    21   12   13 1    
    22   12   42 1    
    23   13   18 ar   
    24   13   14 ar   
    25   14   15 ar   
    26   14   43 1    
    27   15   16 ar   
    28   15   44 1    
    29   16   17 ar   
    30   16   19 1    
    31   17   18 ar   
    32   17   45 1    
    33   18   46 1    
    34   19   20 1    
    35   20   47 1    
    36   20   48 1    
    37   20   49 1    
    38   22   23 2    
    39   22   36 1    
    40   23   24 1    
    41   23   34 1    
    42   24   25 1    
    43   24   26 1    
    44   26   31 ar   
    45   26   27 ar   
    46   27   28 ar   
    47   27   50 1    
    48   28   29 ar   
    49   28   51 1    
    50   29   30 ar   
    51   29   32 1    
    52   30   31 ar   
    53   30   52 1    
    54   31   53 1    
    55   32   33 1    
    56   33   54 1    
    57   33   55 1    
    58   33   56 1    
    59   34   35 3    
    60   36   57 1    
    61   36   58 1    
@<TRIPOS>SUBSTRUCTURE
     1 UNK         1 GROUP             0       ****    0 ROOT    
