@<TRIPOS>MOLECULE
ZINC59015504_4966
41   43    1
SMALL
USER_CHARGES


@<TRIPOS>ATOM
      1 C1         -3.5059   50.6596   28.6213 C.ar      1 UNK         0.0000 
      2 C2         -4.5639   50.3119   27.7832 C.ar      1 UNK         0.0000 
      3 C3         -4.4909   50.6009   26.4227 C.ar      1 UNK         0.0000 
      4 C4         -3.3657   51.2276   25.8944 C.ar      1 UNK         0.0000 
      5 C5         -2.3095   51.5712   26.7326 C.ar      1 UNK         0.0000 
      6 C6         -2.3679   51.2966   28.1086 C.ar      1 UNK         0.0000 
      7 C7         -1.2879   51.6964   29.0249 C.2       1 UNK         0.0000 
      8 N8         -0.2805   52.3818   28.6593 N.2       1 UNK         0.0000 
      9 N9          0.6285   52.7817   29.6418 N.pl3     1 UNK         0.0000 
     10 C10         1.8446   53.3384   29.3226 C.ar      1 UNK         0.0000 
     11 N11         2.9820   52.7122   29.1724 N.2       1 UNK         0.0000 
     12 C12         3.8095   53.6836   28.8001 C.ar      1 UNK         0.0000 
     13 N13         3.2887   54.8967   28.7244 N.2       1 UNK         0.0000 
     14 N14         2.0189   54.6683   29.0684 N.pl3     1 UNK         0.0000 
     15 S15         5.4892   53.2954   28.4245 S.3       1 UNK         0.0000 
     16 C16         6.1888   54.8164   27.7112 C.3       1 UNK         0.0000 
     17 C17         6.0654   54.9975   26.1935 C.2       1 UNK         0.0000 
     18 O18         6.7052   55.9145   25.6818 O.2       1 UNK         0.0000 
     19 N19         5.2688   54.1641   25.4896 N.am      1 UNK         0.0000 
     20 C20         5.0847   54.1581   24.0946 C.ar      1 UNK         0.0000 
     21 C21         3.8324   53.7685   23.6094 C.ar      1 UNK         0.0000 
     22 C22         3.5990   53.7360   22.2359 C.ar      1 UNK         0.0000 
     23 C23         4.6145   54.0968   21.3523 C.ar      1 UNK         0.0000 
     24 C24         5.8609   54.4961   21.8280 C.ar      1 UNK         0.0000 
     25 C25         6.1081   54.4972   23.1963 C.ar      1 UNK         0.0000 
     26 Br26        4.3067   54.0405   19.4752 Br        1 UNK         0.0000 
     27 Br27       -5.9366   50.1375   25.2750 Br        1 UNK         0.0000 
     28 H28        -3.5707   50.4119   29.6732 H         1 UNK         0.0000 
     29 H29        -5.4331   49.8132   28.1874 H         1 UNK         0.0000 
     30 H30        -3.3109   51.4448   24.8367 H         1 UNK         0.0000 
     31 H31        -1.4450   52.0596   26.3036 H         1 UNK         0.0000 
     32 H32        -1.4216   51.3774   30.0577 H         1 UNK         0.0000 
     33 H33         0.3861   52.4830   30.5792 H         1 UNK         0.0000 
     34 H34         7.2585   54.7600   27.9152 H         1 UNK         0.0000 
     35 H35         5.8412   55.6965   28.2412 H         1 UNK         0.0000 
     36 H36         4.7053   53.5113   26.0177 H         1 UNK         0.0000 
     37 H37         3.0404   53.4913   24.2908 H         1 UNK         0.0000 
     38 H38         2.6340   53.4372   21.8529 H         1 UNK         0.0000 
     39 H39         6.6419   54.7772   21.1366 H         1 UNK         0.0000 
     40 H40         7.0939   54.7757   23.5418 H         1 UNK         0.0000 
     41 H41         1.3055   55.3810   29.0989 H         1 UNK         0.0000 
@<TRIPOS>BOND
     1    1    6 ar   
     2    1    2 ar   
     3    1   28 1    
     4    2    3 ar   
     5    2   29 1    
     6    3    4 ar   
     7    3   27 1    
     8    4    5 ar   
     9    4   30 1    
    10    5    6 ar   
    11    5   31 1    
    12    6    7 1    
    13    7    8 2    
    14    7   32 1    
    15    8    9 1    
    16    9   10 1    
    17    9   33 1    
    18   10   14 ar   
    19   10   11 ar   
    20   11   12 ar   
    21   12   13 ar   
    22   12   15 1    
    23   13   14 ar   
    24   14   41 1    
    25   15   16 1    
    26   16   17 1    
    27   16   34 1    
    28   16   35 1    
    29   17   18 2    
    30   17   19 am   BACKBONE|DICT|INTERRES
    31   19   20 1    
    32   19   36 1    
    33   20   25 ar   
    34   20   21 ar   
    35   21   22 ar   
    36   21   37 1    
    37   22   23 ar   
    38   22   38 1    
    39   23   24 ar   
    40   23   26 1    
    41   24   25 ar   
    42   24   39 1    
    43   25   40 1    
@<TRIPOS>SUBSTRUCTURE
     1 UNK         1 GROUP             0       ****    0 ROOT    
