ZINC17287328_5527
                    3D
 Schrodinger Suite 2024-2.
 75 80  0  0  1  0            999 V2000
    6.1965   53.6176   12.6152 C   0  0  0  0  0  0
    6.4918   54.8493   13.2693 O   0  0  0  0  0  0
    6.3564   54.9366   14.6399 C   0  0  0  0  0  0
    6.7178   56.1575   15.2090 C   0  0  0  0  0  0
    6.6512   56.3841   16.5828 C   0  0  0  0  0  0
    6.2020   55.3523   17.4183 C   0  0  0  0  0  0
    5.8156   54.1149   16.8253 C   0  0  0  0  0  0
    5.8910   53.8852   15.4486 C   0  0  0  0  0  0
    5.4024   53.2967   17.8537 N   0  0  0  0  0  0
    5.1043   52.3254   17.7899 H   0  0  0  0  0  0
    5.5012   53.9562   19.0537 C   0  0  0  0  0  0
    6.0296   55.2174   18.8387 C   0  0  0  0  0  0
    6.2990   56.1909   19.9748 C   0  0  0  0  0  0
    6.3616   55.4238   21.3189 C   0  0  0  0  0  0
    5.1367   53.3491   20.3997 C   0  0  2  0  0  0
    5.9045   52.6474   20.7064 H   0  0  0  0  0  0
    3.7847   52.6353   20.4623 C   0  0  0  0  0  0
    3.5411   52.0300   21.8685 C   0  0  1  0  0  0
    4.3885   51.3679   22.0603 H   0  0  0  0  0  0
    3.5956   53.1535   22.9515 C   0  0  1  0  0  0
    3.5044   52.6863   23.9288 H   0  0  0  0  0  0
    4.9217   53.9487   22.8809 C   0  0  0  0  0  0
    2.3363   54.0221   22.9751 C   0  0  0  0  0  0
    1.0616   53.1682   23.0646 C   0  0  1  0  0  0
    0.3045   53.8935   22.8887 H   0  0  0  0  0  0
    0.9874   52.0616   21.9643 C   0  0  1  0  0  0
    0.9563   52.5529   20.9881 H   0  0  0  0  0  0
    2.2492   51.1767   22.0326 C   0  0  1  0  0  0
    2.2678   50.7329   23.0285 H   0  0  0  0  0  0
    2.1732   49.9760   21.0658 C   0  0  0  0  0  0
    2.3045   48.8309   21.4918 O   0  0  0  0  0  0
    1.9094   50.3101   19.7827 O   0  0  0  0  0  0
    1.9040   49.3158   18.7681 C   0  0  0  0  0  0
   -0.1647   51.2248   22.0925 O   0  0  0  0  0  0
   -1.2579   51.5194   21.2371 C   0  0  0  0  0  0
    0.8792   52.6794   24.3965 O   0  0  0  0  0  0
   -0.3753   52.4668   24.8902 C   0  0  0  0  0  0
   -1.4046   52.5623   24.2156 O   0  0  0  0  0  0
   -0.3987   52.1059   26.3362 C   0  0  0  0  0  0
   -1.5376   51.4798   26.8570 C   0  0  0  0  0  0
   -1.6706   51.2969   28.2267 C   0  0  0  0  0  0
   -0.6813   51.7671   29.0830 C   0  0  0  0  0  0
    0.4823   52.3411   28.5793 C   0  0  0  0  0  0
    0.6331   52.4958   27.2037 C   0  0  0  0  0  0
   -0.8915   51.6965   30.4543 N   0  0  0  0  0  0
    6.3914   53.7194   11.5487 H   0  0  0  0  0  0
    6.8253   52.8058   12.9873 H   0  0  0  0  0  0
    5.1474   53.3433   12.7322 H   0  0  0  0  0  0
    7.0686   56.9483   14.5593 H   0  0  0  0  0  0
    6.9449   57.3391   16.9916 H   0  0  0  0  0  0
    5.6016   52.9297   15.0385 H   0  0  0  0  0  0
    7.2317   56.7300   19.8121 H   0  0  0  0  0  0
    5.5044   56.9356   19.9964 H   0  0  0  0  0  0
    6.3284   56.1211   22.1540 H   0  0  0  0  0  0
    7.2516   54.8019   21.4153 H   0  0  0  0  0  0
    2.9731   53.2980   20.1633 H   0  0  0  0  0  0
    3.7921   51.8496   19.7087 H   0  0  0  0  0  0
    5.7976   53.3451   23.1243 H   0  0  0  0  0  0
    4.8804   54.8177   23.5404 H   0  0  0  0  0  0
    2.3678   54.7514   23.7868 H   0  0  0  0  0  0
    2.3118   54.6319   22.0813 H   0  0  0  0  0  0
    2.8707   48.8104   18.7159 H   0  0  0  0  0  0
    1.1299   48.5695   18.9515 H   0  0  0  0  0  0
    1.7131   49.7734   17.7958 H   0  0  0  0  0  0
   -2.0728   50.8240   21.4384 H   0  0  0  0  0  0
   -1.6366   52.5252   21.4006 H   0  0  0  0  0  0
   -0.9796   51.4061   20.1874 H   0  0  0  0  0  0
   -2.3417   51.1535   26.2105 H   0  0  0  0  0  0
   -2.5559   50.8194   28.6220 H   0  0  0  0  0  0
    1.2543   52.6955   29.2460 H   0  0  0  0  0  0
    1.5251   52.9823   26.8364 H   0  0  0  0  0  0
   -0.2315   52.0864   31.1122 H   0  0  0  0  0  0
   -1.6275   51.0935   30.8082 H   0  0  0  0  0  0
    5.1233   54.4996   21.4472 N   0  3  1  0  0  0
    4.3162   55.0775   21.2574 H   0  0  0  0  0  0
  1  2  1  0  0  0
  1 46  1  0  0  0
  1 47  1  0  0  0
  1 48  1  0  0  0
  2  3  1  0  0  0
  3  8  2  0  0  0
  3  4  1  0  0  0
  4  5  2  0  0  0
  4 49  1  0  0  0
  5  6  1  0  0  0
  5 50  1  0  0  0
  6 12  1  0  0  0
  6  7  2  0  0  0
  7  8  1  0  0  0
  7  9  1  0  0  0
  8 51  1  0  0  0
  9 10  1  0  0  0
  9 11  1  0  0  0
 11 15  1  0  0  0
 11 12  2  0  0  0
 12 13  1  0  0  0
 13 14  1  0  0  0
 13 52  1  0  0  0
 13 53  1  0  0  0
 14 54  1  0  0  0
 14 55  1  0  0  0
 14 74  1  0  0  0
 15 16  1  0  0  0
 15 17  1  0  0  0
 15 74  1  0  0  0
 17 18  1  0  0  0
 17 56  1  0  0  0
 17 57  1  0  0  0
 18 19  1  0  0  0
 18 28  1  0  0  0
 18 20  1  0  0  0
 20 21  1  0  0  0
 20 22  1  0  0  0
 20 23  1  0  0  0
 22 58  1  0  0  0
 22 59  1  0  0  0
 22 74  1  0  0  0
 23 24  1  0  0  0
 23 60  1  0  0  0
 23 61  1  0  0  0
 24 25  1  0  0  0
 24 26  1  0  0  0
 24 36  1  0  0  0
 26 27  1  0  0  0
 26 28  1  0  0  0
 26 34  1  0  0  0
 28 29  1  0  0  0
 28 30  1  0  0  0
 30 31  2  0  0  0
 30 32  1  0  0  0
 32 33  1  0  0  0
 33 62  1  0  0  0
 33 63  1  0  0  0
 33 64  1  0  0  0
 34 35  1  0  0  0
 35 65  1  0  0  0
 35 66  1  0  0  0
 35 67  1  0  0  0
 36 37  1  0  0  0
 37 38  2  0  0  0
 37 39  1  0  0  0
 39 44  2  0  0  0
 39 40  1  0  0  0
 40 41  2  0  0  0
 40 68  1  0  0  0
 41 42  1  0  0  0
 41 69  1  0  0  0
 42 43  2  0  0  0
 42 45  1  0  0  0
 43 44  1  0  0  0
 43 70  1  0  0  0
 44 71  1  0  0  0
 45 72  1  0  0  0
 45 73  1  0  0  0
 74 75  1  0  0  0
M  CHG  1  74   1
M  END
> <i_i_glide_confnum>
7

> <i_i_glide_lignum>
5528

> <i_i_glide_posenum>
178

> <i_i_glide_rotatable_bonds>
7

> <i_m_Source_File_Index>
1701

> <b_m_subgroup_collapsed>
0

> <r_i_docking_score>
-3.59558

> <r_i_glide_ecoul>
-3.96085

> <r_i_glide_eff_state_penalty>
0

> <r_i_glide_einternal>
6.21482

> <r_i_glide_emodel>
-38.8668

> <r_i_glide_energy>
-33.2759

> <r_i_glide_erotb>
0.288843

> <r_i_glide_esite>
-0.181738

> <r_i_glide_evdw>
-29.315

> <r_i_glide_gscore>
-3.59558

> <r_i_glide_hbond>
-0.161085

> <r_i_glide_ligand_efficiency>
-0.0921945

> <r_i_glide_ligand_efficiency_ln>
-0.770995

> <r_i_glide_ligand_efficiency_sa>
-0.312651

> <r_i_glide_lipo>
-1.3033

> <r_i_glide_metal>
0

> <r_i_glide_rewards>
-0.178426

> <s_i_glide_gridfile>
wee1_glide-grid

> <s_m_Source_File>
wee1_decoys_glide_SP.sdf

> <s_m_Source_Path>
/Users/zhangxujun/Desktop

> <s_m_entry_id>
1976

> <s_m_entry_name>
wee1_decoys_glide_SP.1701

> <s_m_subgroup_title>
wee1_decoys_glide_SP

> <s_m_subgroupid>
wee1_decoys_glide_SP


$$$$
