@<TRIPOS>MOLECULE
ZINC63472946_1258
64   70    1
SMALL
USER_CHARGES


@<TRIPOS>ATOM
      1 C1          4.1947   52.3385   29.7708 C.2       1 UNK         0.0000 
      2 C2          3.5069   52.0983   31.0357 C.2       1 UNK         0.0000 
      3 C3          2.1476   52.0983   31.1220 C.2       1 UNK         0.0000 
      4 C4          1.3664   52.2914   29.9725 C.2       1 UNK         0.0000 
      5 N5          0.0629   52.2924   29.8230 N.pl3     1 UNK         0.0000 
      6 C6         -0.2790   52.5223   28.4006 C.3       1 UNK         0.0000 
      7 C7          1.0899   52.6910   27.7717 C.2       1 UNK         0.0000 
      8 C8          1.9917   52.5142   28.7456 C.2       1 UNK         0.0000 
      9 C9          3.4535   52.5521   28.6740 C.2       1 UNK         0.0000 
     10 C10         1.3499   53.0045   26.3082 C.3       1 UNK         0.0000 
     11 C11         0.2914   52.5899   25.2692 C.3       1 UNK         0.0000 
     12 H12        -0.6384   53.0331   25.6175 H         1 UNK         0.0000 
     13 C13         0.5120   53.0582   23.8080 C.3       1 UNK         0.0000 
     14 H14         0.1294   54.0703   23.6817 H         1 UNK         0.0000 
     15 C15        -0.1759   52.0296   22.9521 C.3       1 UNK         0.0000 
     16 H16        -0.9357   52.4974   22.3248 H         1 UNK         0.0000 
     17 C17         0.9280   51.5218   22.0190 C.2       1 UNK         0.0000 
     18 O18         0.7196   50.6781   21.1485 O.2       1 UNK         0.0000 
     19 N19         2.0912   52.1821   22.2879 N.am      1 UNK         0.0000 
     20 C20         1.9639   53.0540   23.3315 C.2       1 UNK         0.0000 
     21 O21         2.8211   53.7834   23.8330 O.2       1 UNK         0.0000 
     22 C22         3.3888   51.8423   21.5950 C.3       1 UNK         0.0000 
     23 C23         3.3281   51.6357   20.0455 C.3       1 UNK         0.0000 
     24 C24         2.9989   52.9320   19.2831 C.3       1 UNK         0.0000 
     25 C25         4.0598   54.0163   19.5643 C.3       1 UNK         0.0000 
     26 C26         4.3494   54.1904   21.0716 C.3       1 UNK         0.0000 
     27 C27         4.5938   52.8279   21.7667 C.3       1 UNK         0.0000 
     28 C28        -0.8205   51.0285   23.9866 C.3       1 UNK         0.0000 
     29 N29         0.0270   51.1717   25.1707 N.3       1 UNK         0.0000 
     30 C30        -2.2914   51.2892   24.2048 C.ar      1 UNK         0.0000 
     31 C31        -2.9928   52.4631   24.4885 C.ar      1 UNK         0.0000 
     32 C32        -4.3813   52.4284   24.6346 C.ar      1 UNK         0.0000 
     33 C33        -5.0725   51.2179   24.4903 C.ar      1 UNK         0.0000 
     34 C34        -4.3751   50.0460   24.1887 C.ar      1 UNK         0.0000 
     35 C35        -2.9880   50.1052   24.0422 C.ar      1 UNK         0.0000 
     36 N36        -2.0998   49.0929   23.7167 N.am      1 UNK         0.0000 
     37 C37        -0.8223   49.5091   23.6340 C.2       1 UNK         0.0000 
     38 O38         0.1464   48.8014   23.3735 O.2       1 UNK         0.0000 
     39 Cl39       -5.2416   53.8869   24.9807 Cl        1 UNK         0.0000 
     40 H40         5.2684   52.3627   29.6826 H         1 UNK         0.0000 
     41 H41         4.0957   51.9454   31.9306 H         1 UNK         0.0000 
     42 H42         1.6856   51.9367   32.0878 H         1 UNK         0.0000 
     43 H43        -0.8324   51.6513   28.0448 H         1 UNK         0.0000 
     44 H44        -0.8914   53.4188   28.3310 H         1 UNK         0.0000 
     45 H45         3.9734   52.7289   27.7403 H         1 UNK         0.0000 
     46 H46         1.5043   54.0817   26.2420 H         1 UNK         0.0000 
     47 H47         2.3050   52.5451   26.0490 H         1 UNK         0.0000 
     48 H48         3.6851   50.8927   22.0451 H         1 UNK         0.0000 
     49 H49         4.3007   51.2966   19.6894 H         1 UNK         0.0000 
     50 H50         2.6630   50.8237   19.7537 H         1 UNK         0.0000 
     51 H51         2.9590   52.7257   18.2126 H         1 UNK         0.0000 
     52 H52         2.0091   53.2964   19.5568 H         1 UNK         0.0000 
     53 H53         4.9856   53.7432   19.0574 H         1 UNK         0.0000 
     54 H54         3.7478   54.9654   19.1298 H         1 UNK         0.0000 
     55 H55         5.2188   54.8359   21.2088 H         1 UNK         0.0000 
     56 H56         3.5139   54.7140   21.5356 H         1 UNK         0.0000 
     57 H57         4.8569   52.9606   22.8152 H         1 UNK         0.0000 
     58 H58         5.4889   52.3764   21.3384 H         1 UNK         0.0000 
     59 H59        -0.4440   50.8101   25.9897 H         1 UNK         0.0000 
     60 H60        -2.4805   53.4113   24.5764 H         1 UNK         0.0000 
     61 H61        -6.1473   51.1929   24.6002 H         1 UNK         0.0000 
     62 H62        -4.9164   49.1185   24.0666 H         1 UNK         0.0000 
     63 H63        -2.3584   48.1296   23.5777 H         1 UNK         0.0000 
     64 H64        -0.6145   52.1295   30.5693 H         1 UNK         0.0000 
@<TRIPOS>BOND
     1    1    9 2    
     2    1    2 1    
     3    1   40 1    
     4    2    3 2    
     5    2   41 1    
     6    3    4 1    
     7    3   42 1    
     8    4    8 1    
     9    4    5 2    
    10    5    6 1    
    11    5   64 1    
    12    6    7 1    
    13    6   43 1    
    14    6   44 1    
    15    7    8 2    
    16    7   10 1    
    17    8    9 1    
    18    9   45 1    
    19   10   11 1    
    20   10   46 1    
    21   10   47 1    
    22   11   12 1    
    23   11   29 1    
    24   11   13 1    
    25   13   14 1    
    26   13   20 1    
    27   13   15 1    
    28   15   16 1    
    29   15   17 1    
    30   15   28 1    
    31   17   18 2    
    32   17   19 am   BACKBONE|DICT|INTERRES
    33   19   20 am   BACKBONE|DICT|INTERRES
    34   19   22 1    
    35   20   21 2    
    36   22   27 1    
    37   22   23 1    
    38   22   48 1    
    39   23   24 1    
    40   23   49 1    
    41   23   50 1    
    42   24   25 1    
    43   24   51 1    
    44   24   52 1    
    45   25   26 1    
    46   25   53 1    
    47   25   54 1    
    48   26   27 1    
    49   26   55 1    
    50   26   56 1    
    51   27   57 1    
    52   27   58 1    
    53   28   37 1    
    54   28   29 1    
    55   28   30 1    
    56   29   59 1    
    57   30   35 ar   
    58   30   31 ar   
    59   31   32 ar   
    60   31   60 1    
    61   32   33 ar   
    62   32   39 1    
    63   33   34 ar   
    64   33   61 1    
    65   34   35 ar   
    66   34   62 1    
    67   35   36 1    
    68   36   37 am   BACKBONE|DICT|INTERRES
    69   36   63 1    
    70   37   38 2    
@<TRIPOS>SUBSTRUCTURE
     1 UNK         1 GROUP             0       ****    0 ROOT    
