@<TRIPOS>MOLECULE
ZINC38971821_1160
50   53    1
SMALL
USER_CHARGES


@<TRIPOS>ATOM
      1 C1          0.8452   51.7073   29.3945 C.3       1 UNK         0.0000 
      2 C2          1.4662   52.3883   28.1987 C.ar      1 UNK         0.0000 
      3 C3          2.5493   53.2444   28.3735 C.ar      1 UNK         0.0000 
      4 C4          3.1001   53.8926   27.2752 C.ar      1 UNK         0.0000 
      5 C5          2.5782   53.6959   25.9921 C.ar      1 UNK         0.0000 
      6 C6          1.5044   52.8004   25.7988 C.ar      1 UNK         0.0000 
      7 C7          0.9555   52.1647   26.9218 C.ar      1 UNK         0.0000 
      8 S8          0.6899   52.5002   24.2044 S.o2      1 UNK         0.0000 
      9 O9         -0.0636   51.2614   24.4404 O.2       1 UNK         0.0000 
     10 O10        -0.1419   53.6966   24.0802 O.2       1 UNK         0.0000 
     11 N11         2.0838   52.4174   23.1021 N.2       1 UNK         0.0000 
     12 C12         2.0774   51.5669   22.1487 C.2       1 UNK         0.0000 
     13 C13         3.2867   51.5511   21.1325 C.3       1 UNK         0.0000 
     14 H14         4.1372   51.1268   21.6620 H         1 UNK         0.0000 
     15 N15         3.1039   50.5712   19.9950 N.pl3     1 UNK         0.0000 
     16 C16         2.0721   49.7342   19.9036 C.2       1 UNK         0.0000 
     17 C17         1.9557   48.8288   18.8503 C.2       1 UNK         0.0000 
     18 C18         0.8943   47.9830   18.7909 C.2       1 UNK         0.0000 
     19 C19        -0.1553   47.9861   19.8088 C.2       1 UNK         0.0000 
     20 C20        -0.0831   48.8563   20.8433 C.2       1 UNK         0.0000 
     21 C21         1.0059   49.7976   20.9935 C.2       1 UNK         0.0000 
     22 N22         1.0592   50.6274   21.9630 N.2       1 UNK         0.0000 
     23 N23         3.6748   52.8841   20.6458 N.pl3     1 UNK         0.0000 
     24 C24         4.7394   53.6536   21.1541 C.ar      1 UNK         0.0000 
     25 C25         5.4100   53.3542   22.3471 C.ar      1 UNK         0.0000 
     26 C26         6.4219   54.1821   22.8340 C.ar      1 UNK         0.0000 
     27 C27         6.8145   55.2959   22.0953 C.ar      1 UNK         0.0000 
     28 C28         6.1754   55.5951   20.8925 C.ar      1 UNK         0.0000 
     29 C29         5.1373   54.7817   20.4313 C.ar      1 UNK         0.0000 
     30 Br30        6.7022   57.1294   19.8989 Br        1 UNK         0.0000 
     31 C31         3.1705   54.5346   24.8791 C.3       1 UNK         0.0000 
     32 H32        -0.1509   51.3116   29.1824 H         1 UNK         0.0000 
     33 H33         1.5041   50.8968   29.6818 H         1 UNK         0.0000 
     34 H34         0.7525   52.3956   30.2366 H         1 UNK         0.0000 
     35 H35         2.9568   53.4188   29.3580 H         1 UNK         0.0000 
     36 H36         3.9257   54.5720   27.4320 H         1 UNK         0.0000 
     37 H37         0.1102   51.4990   26.8169 H         1 UNK         0.0000 
     38 H38         2.7048   48.8074   18.0810 H         1 UNK         0.0000 
     39 H39         0.8220   47.2943   17.9600 H         1 UNK         0.0000 
     40 H40        -0.9870   47.2995   19.7306 H         1 UNK         0.0000 
     41 H41        -0.8722   48.8425   21.5828 H         1 UNK         0.0000 
     42 H42         3.0750   53.3239   19.9583 H         1 UNK         0.0000 
     43 H43         5.1379   52.4967   22.9285 H         1 UNK         0.0000 
     44 H44         6.9195   53.9468   23.7638 H         1 UNK         0.0000 
     45 H45         7.6165   55.9236   22.4577 H         1 UNK         0.0000 
     46 H46         4.6405   55.0345   19.5058 H         1 UNK         0.0000 
     47 H47         3.8979   53.9491   24.3302 H         1 UNK         0.0000 
     48 H48         2.4051   54.8971   24.1931 H         1 UNK         0.0000 
     49 H49         3.6771   55.4093   25.2823 H         1 UNK         0.0000 
     50 H50         3.8144   50.5482   19.2575 H         1 UNK         0.0000 
@<TRIPOS>BOND
     1    1    2 1    
     2    1   32 1    
     3    1   33 1    
     4    1   34 1    
     5    2    7 ar   
     6    2    3 ar   
     7    3    4 ar   
     8    3   35 1    
     9    4    5 ar   
    10    4   36 1    
    11    5    6 ar   
    12    5   31 1    
    13    6    7 ar   
    14    6    8 1    
    15    7   37 1    
    16    8    9 2    
    17    8   10 2    
    18    8   11 1    
    19   11   12 2    
    20   12   22 1    
    21   12   13 1    
    22   13   14 1    
    23   13   15 1    
    24   13   23 1    
    25   15   16 2    
    26   15   50 1    
    27   16   21 1    
    28   16   17 1    
    29   17   18 2    
    30   17   38 1    
    31   18   19 1    
    32   18   39 1    
    33   19   20 2    
    34   19   40 1    
    35   20   21 1    
    36   20   41 1    
    37   21   22 2    
    38   23   24 1    
    39   23   42 1    
    40   24   29 ar   
    41   24   25 ar   
    42   25   26 ar   
    43   25   43 1    
    44   26   27 ar   
    45   26   44 1    
    46   27   28 ar   
    47   27   45 1    
    48   28   29 ar   
    49   28   30 1    
    50   29   46 1    
    51   31   47 1    
    52   31   48 1    
    53   31   49 1    
@<TRIPOS>SUBSTRUCTURE
     1 UNK         1 GROUP             0       ****    0 ROOT    
