@<TRIPOS>MOLECULE
ZINC12710873_2398
50   54    1
SMALL
USER_CHARGES


@<TRIPOS>ATOM
      1 C1          6.7374   56.5040   19.8790 C.2       1 UNK         0.0000 
      2 C2          6.7037   55.8128   21.0960 C.2       1 UNK         0.0000 
      3 C3          5.8588   54.7034   21.1061 C.2       1 UNK         0.0000 
      4 S4          5.0951   54.5508   19.5394 S.3       1 UNK         0.0000 
      5 C5          5.9034   55.9487   18.9303 C.2       1 UNK         0.0000 
      6 C6          5.6093   53.7146   22.2379 C.3       1 UNK         0.0000 
      7 N7          4.1994   53.3096   22.3981 N.am      1 UNK         0.0000 
      8 C8          3.3599   54.2644   23.1639 C.3       1 UNK         0.0000 
      9 C9          3.3625   54.0753   24.6923 C.ar      1 UNK         0.0000 
     10 C10         2.3202   53.4788   25.3314 C.ar      1 UNK         0.0000 
     11 C11         2.3024   53.2966   26.7982 C.ar      1 UNK         0.0000 
     12 C12         1.2279   52.7096   27.4872 C.ar      1 UNK         0.0000 
     13 C13         1.3332   52.6213   28.8744 C.ar      1 UNK         0.0000 
     14 C14         2.4409   53.0619   29.5484 C.ar      1 UNK         0.0000 
     15 C15         3.5270   53.6338   28.8941 C.ar      1 UNK         0.0000 
     16 C16         3.4399   53.7545   27.5012 C.ar      1 UNK         0.0000 
     17 N17         4.4718   54.3692   26.7845 N.pl3     1 UNK         0.0000 
     18 H18         5.2679   54.7454   27.2717 H         1 UNK         0.0000 
     19 C19         4.5012   54.6192   25.4582 C.ar      1 UNK         0.0000 
     20 O20         5.4326   55.2957   25.0323 O.2       1 UNK         0.0000 
     21 O21         2.2818   52.8204   30.8763 O.3       1 UNK         0.0000 
     22 C22         0.9271   52.4897   31.0297 C.3       1 UNK         0.0000 
     23 O23         0.4500   52.0998   29.7676 O.3       1 UNK         0.0000 
     24 C24         3.7387   52.2375   21.6817 C.2       1 UNK         0.0000 
     25 O25         4.4869   51.5604   20.9726 O.2       1 UNK         0.0000 
     26 N26         2.4405   51.9159   21.8796 N.am      1 UNK         0.0000 
     27 C27         1.7337   50.8133   21.3624 C.ar      1 UNK         0.0000 
     28 C28         2.0706   50.1586   20.1646 C.ar      1 UNK         0.0000 
     29 C29         1.3208   49.0684   19.7327 C.ar      1 UNK         0.0000 
     30 C30         0.2288   48.6394   20.4820 C.ar      1 UNK         0.0000 
     31 C31        -0.1243   49.2956   21.6587 C.ar      1 UNK         0.0000 
     32 C32         0.6255   50.3842   22.0971 C.ar      1 UNK         0.0000 
     33 F33        -0.4941   47.5749   20.0672 F         1 UNK         0.0000 
     34 H34         7.3477   57.3717   19.6817 H         1 UNK         0.0000 
     35 H35         7.2959   56.0963   21.9546 H         1 UNK         0.0000 
     36 H36         5.7360   56.2778   17.9149 H         1 UNK         0.0000 
     37 H37         6.0083   54.0871   23.1739 H         1 UNK         0.0000 
     38 H38         6.2013   52.8145   22.0818 H         1 UNK         0.0000 
     39 H39         3.6498   55.2857   22.9202 H         1 UNK         0.0000 
     40 H40         2.3257   54.2203   22.8199 H         1 UNK         0.0000 
     41 H41         1.4859   53.1101   24.7520 H         1 UNK         0.0000 
     42 H42         0.3540   52.3462   26.9662 H         1 UNK         0.0000 
     43 H43         4.3971   53.9762   29.4334 H         1 UNK         0.0000 
     44 H44         0.7876   51.7131   31.7854 H         1 UNK         0.0000 
     45 H45         0.3693   53.3662   31.3675 H         1 UNK         0.0000 
     46 H46         1.9361   52.4826   22.5410 H         1 UNK         0.0000 
     47 H47         2.9010   50.4784   19.5501 H         1 UNK         0.0000 
     48 H48         1.5877   48.5610   18.8169 H         1 UNK         0.0000 
     49 H49        -0.9737   48.9543   22.2313 H         1 UNK         0.0000 
     50 H50         0.3482   50.8783   23.0170 H         1 UNK         0.0000 
@<TRIPOS>BOND
     1    1    5 2    
     2    1    2 1    
     3    1   34 1    
     4    2    3 2    
     5    2   35 1    
     6    3    4 1    
     7    3    6 1    
     8    4    5 1    
     9    5   36 1    
    10    6    7 1    
    11    6   37 1    
    12    6   38 1    
    13    7    8 1    
    14    7   24 am   BACKBONE|DICT|INTERRES
    15    8    9 1    
    16    8   39 1    
    17    8   40 1    
    18    9   19 ar   
    19    9   10 ar   
    20   10   11 ar   
    21   10   41 1    
    22   11   16 ar   
    23   11   12 ar   
    24   12   13 ar   
    25   12   42 1    
    26   13   23 1    
    27   13   14 ar   
    28   14   15 ar   
    29   14   21 1    
    30   15   16 ar   
    31   15   43 1    
    32   16   17 ar   
    33   17   18 1    
    34   17   19 ar   
    35   19   20 2    
    36   21   22 1    
    37   22   23 1    
    38   22   44 1    
    39   22   45 1    
    40   24   25 2    
    41   24   26 am   BACKBONE|DICT|INTERRES
    42   26   27 1    
    43   26   46 1    
    44   27   32 ar   
    45   27   28 ar   
    46   28   29 ar   
    47   28   47 1    
    48   29   30 ar   
    49   29   48 1    
    50   30   31 ar   
    51   30   33 1    
    52   31   32 ar   
    53   31   49 1    
    54   32   50 1    
@<TRIPOS>SUBSTRUCTURE
     1 UNK         1 GROUP             0       ****    0 ROOT    
