@<TRIPOS>MOLECULE
ZINC39485918_125
58   62    1
SMALL
USER_CHARGES


@<TRIPOS>ATOM
      1 C1         -6.6074   46.7738   27.8437 C.ar      1 UNK         0.0000 
      2 C2         -5.4223   47.0200   28.5372 C.ar      1 UNK         0.0000 
      3 C3         -4.2008   46.8964   27.8794 C.ar      1 UNK         0.0000 
      4 C4         -4.1602   46.5349   26.5297 C.ar      1 UNK         0.0000 
      5 C5         -5.3557   46.2714   25.8486 C.ar      1 UNK         0.0000 
      6 C6         -6.5782   46.3961   26.5040 C.ar      1 UNK         0.0000 
      7 C7         -2.8183   46.4027   25.8051 C.3       1 UNK         0.0000 
      8 C8         -2.3651   47.5925   24.9148 C.3       1 UNK         0.0000 
      9 H9         -1.5490   47.2687   24.2652 H         1 UNK         0.0000 
     10 N10        -3.4105   48.1993   24.1068 N.3       1 UNK         0.0000 
     11 N11        -3.9963   49.2175   24.9308 N.3       1 UNK         0.0000 
     12 C12        -2.8571   49.8879   25.5201 C.3       1 UNK         0.0000 
     13 H13        -2.4654   50.5552   24.7491 H         1 UNK         0.0000 
     14 N14        -1.7913   48.7920   25.6819 N.4       1 UNK         0.0000 
     15 C15        -0.3908   49.3468   25.3561 C.3       1 UNK         0.0000 
     16 C16         0.1283   50.4006   26.3677 C.3       1 UNK         0.0000 
     17 N17        -0.7251   51.5183   26.8159 N.3       1 UNK         0.0000 
     18 C18        -1.9377   51.1743   27.5720 C.3       1 UNK         0.0000 
     19 C19        -3.1686   50.7246   26.7613 C.3       1 UNK         0.0000 
     20 C20         0.0128   52.6748   27.3417 C.3       1 UNK         0.0000 
     21 C21         0.8967   52.3874   28.5880 C.3       1 UNK         0.0000 
     22 H22         1.4042   51.4254   28.5232 H         1 UNK         0.0000 
     23 C23         0.1371   52.4961   29.8801 C.2       1 UNK         0.0000 
     24 N24         0.5397   53.4463   30.6034 N.2       1 UNK         0.0000 
     25 N25         1.5492   54.0067   30.0819 N.2       1 UNK         0.0000 
     26 C26         1.8976   53.4571   28.9910 C.2       1 UNK         0.0000 
     27 C27         3.1548   53.7701   28.2676 C.ar      1 UNK         0.0000 
     28 C28         4.2562   54.2278   29.0077 C.ar      1 UNK         0.0000 
     29 C29         5.4694   54.4964   28.3838 C.ar      1 UNK         0.0000 
     30 C30         5.5970   54.3338   27.0097 C.ar      1 UNK         0.0000 
     31 C31         4.5143   53.8926   26.2570 C.ar      1 UNK         0.0000 
     32 C32         3.3051   53.5965   26.8842 C.ar      1 UNK         0.0000 
     33 Cl33        7.1002   54.6829   26.2369 Cl        1 UNK         0.0000 
     34 H34        -7.5560   46.8734   28.3525 H         1 UNK         0.0000 
     35 H35        -5.4454   47.3047   29.5788 H         1 UNK         0.0000 
     36 H36        -3.2956   47.0807   28.4341 H         1 UNK         0.0000 
     37 H37        -5.3439   45.9773   24.8105 H         1 UNK         0.0000 
     38 H38        -7.5010   46.2004   25.9740 H         1 UNK         0.0000 
     39 H39        -2.0368   46.1473   26.5234 H         1 UNK         0.0000 
     40 H40        -2.9047   45.5324   25.1639 H         1 UNK         0.0000 
     41 H41        -4.1618   47.5789   23.8336 H         1 UNK         0.0000 
     42 H42        -4.4576   48.7016   25.6733 H         1 UNK         0.0000 
     43 H43         0.2462   48.4606   25.3670 H         1 UNK         0.0000 
     44 H44        -0.4761   49.7371   24.3401 H         1 UNK         0.0000 
     45 H45         0.2922   49.8294   27.2817 H         1 UNK         0.0000 
     46 H46         1.0981   50.7731   26.0325 H         1 UNK         0.0000 
     47 H47        -1.7192   50.4971   28.3988 H         1 UNK         0.0000 
     48 H48        -2.2898   52.0960   28.0356 H         1 UNK         0.0000 
     49 H49        -3.7609   51.5935   26.4724 H         1 UNK         0.0000 
     50 H50        -3.8104   50.1555   27.4368 H         1 UNK         0.0000 
     51 H51         0.5885   53.0656   26.5112 H         1 UNK         0.0000 
     52 H52        -0.6902   53.4785   27.5686 H         1 UNK         0.0000 
     53 H53        -0.6788   51.8438   30.1808 H         1 UNK         0.0000 
     54 H54         4.1937   54.3689   30.0768 H         1 UNK         0.0000 
     55 H55         6.3041   54.8456   28.9685 H         1 UNK         0.0000 
     56 H56         4.6177   53.7556   25.1907 H         1 UNK         0.0000 
     57 H57         2.5191   53.2194   26.2595 H         1 UNK         0.0000 
     58 H58        -1.7560   48.5177   26.6693 H         1 UNK         0.0000 
@<TRIPOS>BOND
     1    1    6 ar   
     2    1    2 ar   
     3    1   34 1    
     4    2    3 ar   
     5    2   35 1    
     6    3    4 ar   
     7    3   36 1    
     8    4    5 ar   
     9    4    7 1    
    10    5    6 ar   
    11    5   37 1    
    12    6   38 1    
    13    7    8 1    
    14    7   39 1    
    15    7   40 1    
    16    8    9 1    
    17    8   14 1    
    18    8   10 1    
    19   10   11 1    
    20   10   41 1    
    21   11   12 1    
    22   11   42 1    
    23   12   13 1    
    24   12   19 1    
    25   12   14 1    
    26   14   15 1    
    27   14   58 1    
    28   15   16 1    
    29   15   43 1    
    30   15   44 1    
    31   16   17 1    
    32   16   45 1    
    33   16   46 1    
    34   17   18 1    
    35   17   20 1    
    36   18   19 1    
    37   18   47 1    
    38   18   48 1    
    39   19   49 1    
    40   19   50 1    
    41   20   21 1    
    42   20   51 1    
    43   20   52 1    
    44   21   22 1    
    45   21   26 1    
    46   21   23 1    
    47   23   24 2    
    48   23   53 1    
    49   24   25 1    
    50   25   26 2    
    51   26   27 1    
    52   27   32 ar   
    53   27   28 ar   
    54   28   29 ar   
    55   28   54 1    
    56   29   30 ar   
    57   29   55 1    
    58   30   31 ar   
    59   30   33 1    
    60   31   32 ar   
    61   31   56 1    
    62   32   57 1    
@<TRIPOS>SUBSTRUCTURE
     1 UNK         1 GROUP             0       ****    0 ROOT    
