@<TRIPOS>MOLECULE
ZINC39767639_3026
69   72    1
SMALL
USER_CHARGES


@<TRIPOS>ATOM
      1 C1         -0.6424   44.8706   18.7688 C.3       1 UNK         0.0000 
      2 C2         -1.8894   44.7258   19.6232 C.ar      1 UNK         0.0000 
      3 C3         -2.9181   43.8679   19.2273 C.ar      1 UNK         0.0000 
      4 C4         -4.0574   43.7329   20.0196 C.ar      1 UNK         0.0000 
      5 C5         -4.1716   44.4519   21.2060 C.ar      1 UNK         0.0000 
      6 C6         -3.1491   45.3199   21.6223 C.ar      1 UNK         0.0000 
      7 C7         -2.0036   45.4413   20.8174 C.ar      1 UNK         0.0000 
      8 C8         -3.2850   46.0661   22.9303 C.2       1 UNK         0.0000 
      9 O9         -4.0987   45.6967   23.7757 O.2       1 UNK         0.0000 
     10 N10        -2.4499   47.0998   23.1196 N.am      1 UNK         0.0000 
     11 C11        -2.2503   47.8485   24.3664 C.3       1 UNK         0.0000 
     12 H12        -3.2322   48.1815   24.7067 H         1 UNK         0.0000 
     13 C13        -1.5869   47.0107   25.4879 C.3       1 UNK         0.0000 
     14 O14        -2.4938   46.2012   26.2155 O.3       1 UNK         0.0000 
     15 C15        -1.3880   49.0682   24.0582 C.ar      1 UNK         0.0000 
     16 N16        -0.2255   49.0229   23.4497 N.2       1 UNK         0.0000 
     17 N17         0.2036   50.3330   23.2915 N.2       1 UNK         0.0000 
     18 C18        -0.7129   51.1232   23.8036 C.ar      1 UNK         0.0000 
     19 N19        -1.7270   50.3712   24.3720 N.pl3     1 UNK         0.0000 
     20 C20        -2.8962   50.8298   25.0111 C.ar      1 UNK         0.0000 
     21 C21        -3.1619   50.4378   26.3286 C.ar      1 UNK         0.0000 
     22 C22        -4.3181   50.8902   26.9569 C.ar      1 UNK         0.0000 
     23 C23        -5.1955   51.7293   26.2719 C.ar      1 UNK         0.0000 
     24 C24        -4.9329   52.1207   24.9588 C.ar      1 UNK         0.0000 
     25 C25        -3.7774   51.6705   24.3242 C.ar      1 UNK         0.0000 
     26 S26        -0.6593   52.8944   23.8025 S.3       1 UNK         0.0000 
     27 C27         1.0687   53.2211   23.2995 C.3       1 UNK         0.0000 
     28 C28         2.0343   53.3728   24.4774 C.2       1 UNK         0.0000 
     29 O29         1.7606   52.8988   25.5809 O.2       1 UNK         0.0000 
     30 N30         3.1816   54.0066   24.1768 N.am      1 UNK         0.0000 
     31 C31         4.3138   54.2113   24.9815 C.ar      1 UNK         0.0000 
     32 C32         4.2321   54.2961   26.3815 C.ar      1 UNK         0.0000 
     33 C33         5.3801   54.4738   27.1484 C.ar      1 UNK         0.0000 
     34 C34         6.6173   54.5703   26.5247 C.ar      1 UNK         0.0000 
     35 C35         6.7051   54.5129   25.1357 C.ar      1 UNK         0.0000 
     36 C36         5.5638   54.3443   24.3370 C.ar      1 UNK         0.0000 
     37 C37         5.6799   54.3233   22.7909 C.3       1 UNK         0.0000 
     38 C38         6.9449   55.0117   22.2288 C.3       1 UNK         0.0000 
     39 C39         5.5031   52.9168   22.1851 C.3       1 UNK         0.0000 
     40 H40        -0.4662   43.9752   18.1730 H         1 UNK         0.0000 
     41 H41        -0.7346   45.7288   18.1027 H         1 UNK         0.0000 
     42 H42         0.2402   45.0119   19.3935 H         1 UNK         0.0000 
     43 H43        -2.8414   43.3161   18.3031 H         1 UNK         0.0000 
     44 H44        -4.8567   43.0766   19.7110 H         1 UNK         0.0000 
     45 H45        -5.0648   44.3312   21.8033 H         1 UNK         0.0000 
     46 H46        -1.1844   46.0845   21.1119 H         1 UNK         0.0000 
     47 H47        -2.0108   47.4961   22.3034 H         1 UNK         0.0000 
     48 H48        -0.8158   46.3666   25.0630 H         1 UNK         0.0000 
     49 H49        -1.0652   47.6633   26.1880 H         1 UNK         0.0000 
     50 H50        -2.5343   46.5577   27.1112 H         1 UNK         0.0000 
     51 H51        -2.4859   49.7926   26.8740 H         1 UNK         0.0000 
     52 H52        -4.5314   50.5884   27.9723 H         1 UNK         0.0000 
     53 H53        -6.0932   52.0783   26.7628 H         1 UNK         0.0000 
     54 H54        -5.6243   52.7651   24.4353 H         1 UNK         0.0000 
     55 H55        -3.5739   51.9736   23.3078 H         1 UNK         0.0000 
     56 H56         1.0967   54.1504   22.7314 H         1 UNK         0.0000 
     57 H57         1.4432   52.4537   22.6243 H         1 UNK         0.0000 
     58 H58         3.3199   54.2420   23.2057 H         1 UNK         0.0000 
     59 H59         3.2844   54.2330   26.8955 H         1 UNK         0.0000 
     60 H60         5.3122   54.5320   28.2260 H         1 UNK         0.0000 
     61 H61         7.5044   54.6922   27.1283 H         1 UNK         0.0000 
     62 H62         7.6826   54.5971   24.6888 H         1 UNK         0.0000 
     63 H63         4.8453   54.9012   22.4046 H         1 UNK         0.0000 
     64 H64         7.0600   56.0182   22.6321 H         1 UNK         0.0000 
     65 H65         7.8544   54.4576   22.4659 H         1 UNK         0.0000 
     66 H66         6.8962   55.1018   21.1421 H         1 UNK         0.0000 
     67 H67         4.5530   52.4718   22.4738 H         1 UNK         0.0000 
     68 H68         5.5031   52.9573   21.0952 H         1 UNK         0.0000 
     69 H69         6.3010   52.2393   22.4832 H         1 UNK         0.0000 
@<TRIPOS>BOND
     1    1    2 1    
     2    1   40 1    
     3    1   41 1    
     4    1   42 1    
     5    2    7 ar   
     6    2    3 ar   
     7    3    4 ar   
     8    3   43 1    
     9    4    5 ar   
    10    4   44 1    
    11    5    6 ar   
    12    5   45 1    
    13    6    7 ar   
    14    6    8 1    
    15    7   46 1    
    16    8    9 2    
    17    8   10 am   BACKBONE|DICT|INTERRES
    18   10   11 1    
    19   10   47 1    
    20   11   12 1    
    21   11   13 1    
    22   11   15 1    
    23   13   14 1    
    24   13   48 1    
    25   13   49 1    
    26   14   50 1    
    27   15   19 ar   
    28   15   16 ar   
    29   16   17 ar   
    30   17   18 ar   
    31   18   19 ar   
    32   18   26 1    
    33   19   20 1    
    34   20   25 ar   
    35   20   21 ar   
    36   21   22 ar   
    37   21   51 1    
    38   22   23 ar   
    39   22   52 1    
    40   23   24 ar   
    41   23   53 1    
    42   24   25 ar   
    43   24   54 1    
    44   25   55 1    
    45   26   27 1    
    46   27   28 1    
    47   27   56 1    
    48   27   57 1    
    49   28   29 2    
    50   28   30 am   BACKBONE|DICT|INTERRES
    51   30   31 1    
    52   30   58 1    
    53   31   36 ar   
    54   31   32 ar   
    55   32   33 ar   
    56   32   59 1    
    57   33   34 ar   
    58   33   60 1    
    59   34   35 ar   
    60   34   61 1    
    61   35   36 ar   
    62   35   62 1    
    63   36   37 1    
    64   37   38 1    
    65   37   39 1    
    66   37   63 1    
    67   38   64 1    
    68   38   65 1    
    69   38   66 1    
    70   39   67 1    
    71   39   68 1    
    72   39   69 1    
@<TRIPOS>SUBSTRUCTURE
     1 UNK         1 GROUP             0       ****    0 ROOT    
