@<TRIPOS>MOLECULE
ZINC12037387_1169
71   75    1
SMALL
USER_CHARGES


@<TRIPOS>ATOM
      1 C1          7.0503   56.8419   18.0739 C.3       1 UNK         0.0000 
      2 C2          6.3824   55.7508   18.8914 C.ar      1 UNK         0.0000 
      3 C3          6.3084   55.8695   20.2779 C.ar      1 UNK         0.0000 
      4 C4          5.6854   54.8798   21.0304 C.ar      1 UNK         0.0000 
      5 C5          5.1039   53.7658   20.4086 C.ar      1 UNK         0.0000 
      6 C6          5.2110   53.6449   19.0153 C.ar      1 UNK         0.0000 
      7 C7          5.8358   54.6336   18.2600 C.ar      1 UNK         0.0000 
      8 C8          4.4151   52.6508   21.1733 C.2       1 UNK         0.0000 
      9 O9          4.7048   51.4893   20.8817 O.2       1 UNK         0.0000 
     10 N10         3.3756   52.9175   22.0145 N.am      1 UNK         0.0000 
     11 C11         3.1230   54.1744   22.7293 C.3       1 UNK         0.0000 
     12 C12         3.5123   54.1027   24.2074 C.ar      1 UNK         0.0000 
     13 C13         2.5065   54.0964   25.1692 C.ar      1 UNK         0.0000 
     14 C14         2.8177   54.0959   26.5249 C.ar      1 UNK         0.0000 
     15 C15         4.1424   54.1421   26.9404 C.ar      1 UNK         0.0000 
     16 C16         5.1632   54.1242   25.9800 C.ar      1 UNK         0.0000 
     17 C17         4.8476   54.0970   24.6221 C.ar      1 UNK         0.0000 
     18 O18         4.3479   54.2215   28.3007 O.3       1 UNK         0.0000 
     19 C19         5.6098   54.6761   28.7663 C.3       1 UNK         0.0000 
     20 C20         2.3486   51.8853   22.2829 C.3       1 UNK         0.0000 
     21 C21         1.1388   51.8621   21.3273 C.ar      1 UNK         0.0000 
     22 C22         1.3444   52.0880   19.9569 C.ar      1 UNK         0.0000 
     23 C23         0.3319   51.8017   19.0114 C.ar      1 UNK         0.0000 
     24 C24         0.4873   52.0356   17.6226 C.ar      1 UNK         0.0000 
     25 C25        -0.5520   51.7247   16.7419 C.ar      1 UNK         0.0000 
     26 C26        -1.7462   51.1736   17.2059 C.ar      1 UNK         0.0000 
     27 C27        -1.9320   50.9205   18.5630 C.ar      1 UNK         0.0000 
     28 C28        -0.8918   51.2326   19.4645 C.ar      1 UNK         0.0000 
     29 C29        -0.0949   51.3125   21.7381 C.ar      1 UNK         0.0000 
     30 N30        -0.4512   51.1383   23.1100 N.pl3     1 UNK         0.0000 
     31 C31        -0.4446   52.3204   24.0029 C.3       1 UNK         0.0000 
     32 C32        -0.0063   51.9315   25.4226 C.3       1 UNK         0.0000 
     33 C33        -0.8883   50.8222   25.9985 C.3       1 UNK         0.0000 
     34 C34        -0.9236   49.6254   25.0316 C.3       1 UNK         0.0000 
     35 C35        -1.3389   50.0532   23.5996 C.3       1 UNK         0.0000 
     36 O36        -0.4204   50.4967   27.2815 O.3       1 UNK         0.0000 
     37 F37        -2.7320   50.8774   16.3309 F         1 UNK         0.0000 
     38 H38         6.7337   56.8140   17.0311 H         1 UNK         0.0000 
     39 H39         6.7787   57.8273   18.4569 H         1 UNK         0.0000 
     40 H40         8.1348   56.7473   18.1205 H         1 UNK         0.0000 
     41 H41         6.7332   56.7256   20.7783 H         1 UNK         0.0000 
     42 H42         5.6762   55.0035   22.0972 H         1 UNK         0.0000 
     43 H43         4.8109   52.7772   18.5035 H         1 UNK         0.0000 
     44 H44         5.8993   54.5265   17.1875 H         1 UNK         0.0000 
     45 H45         2.0578   54.3983   22.6493 H         1 UNK         0.0000 
     46 H46         3.5947   55.0342   22.2676 H         1 UNK         0.0000 
     47 H47         1.4722   54.1468   24.8738 H         1 UNK         0.0000 
     48 H48         2.0244   54.1103   27.2579 H         1 UNK         0.0000 
     49 H49         6.2008   54.1210   26.2732 H         1 UNK         0.0000 
     50 H50         5.6547   54.0554   23.9103 H         1 UNK         0.0000 
     51 H51         5.5397   54.8968   29.8305 H         1 UNK         0.0000 
     52 H52         5.9043   55.6027   28.2664 H         1 UNK         0.0000 
     53 H53         6.3876   53.9221   28.6247 H         1 UNK         0.0000 
     54 H54         2.8006   50.8937   22.2197 H         1 UNK         0.0000 
     55 H55         2.0301   51.9627   23.3201 H         1 UNK         0.0000 
     56 H56         2.2871   52.4586   19.5836 H         1 UNK         0.0000 
     57 H57         1.4128   52.4547   17.2491 H         1 UNK         0.0000 
     58 H58        -0.4307   51.9057   15.6834 H         1 UNK         0.0000 
     59 H59        -2.8548   50.4832   18.9159 H         1 UNK         0.0000 
     60 H60         0.1724   53.1062   23.5711 H         1 UNK         0.0000 
     61 H61        -1.4585   52.7254   24.0081 H         1 UNK         0.0000 
     62 H62         1.0314   51.5895   25.3867 H         1 UNK         0.0000 
     63 H63        -0.0232   52.7989   26.0832 H         1 UNK         0.0000 
     64 H64        -1.9051   51.2139   26.0750 H         1 UNK         0.0000 
     65 H65        -1.5867   48.8495   25.4176 H         1 UNK         0.0000 
     66 H66         0.0710   49.1768   24.9805 H         1 UNK         0.0000 
     67 H67        -2.3684   50.4142   23.5697 H         1 UNK         0.0000 
     68 H68        -1.2691   49.2051   22.9147 H         1 UNK         0.0000 
     69 H69        -0.8963   49.7233   27.6363 H         1 UNK         0.0000 
     70 N70        -1.0231   51.0055   20.8106 N.pl3     1 UNK         0.0000 
     71 H71        -1.8890   50.6102   21.1419 H         1 UNK         0.0000 
@<TRIPOS>BOND
     1    1    2 1    
     2    1   38 1    
     3    1   39 1    
     4    1   40 1    
     5    2    7 ar   
     6    2    3 ar   
     7    3    4 ar   
     8    3   41 1    
     9    4    5 ar   
    10    4   42 1    
    11    5    6 ar   
    12    5    8 1    
    13    6    7 ar   
    14    6   43 1    
    15    7   44 1    
    16    8    9 2    
    17    8   10 am   BACKBONE|DICT|INTERRES
    18   10   11 1    
    19   10   20 1    
    20   11   12 1    
    21   11   45 1    
    22   11   46 1    
    23   12   17 ar   
    24   12   13 ar   
    25   13   14 ar   
    26   13   47 1    
    27   14   15 ar   
    28   14   48 1    
    29   15   16 ar   
    30   15   18 1    
    31   16   17 ar   
    32   16   49 1    
    33   17   50 1    
    34   18   19 1    
    35   19   51 1    
    36   19   52 1    
    37   19   53 1    
    38   20   21 1    
    39   20   54 1    
    40   20   55 1    
    41   21   29 ar   
    42   21   22 ar   
    43   22   23 ar   
    44   22   56 1    
    45   23   28 ar   
    46   23   24 ar   
    47   24   25 ar   
    48   24   57 1    
    49   25   26 ar   
    50   25   58 1    
    51   26   27 ar   
    52   26   37 1    
    53   27   28 ar   
    54   27   59 1    
    55   28   70 ar   
    56   29   30 1    
    57   29   70 ar   
    58   30   35 1    
    59   30   31 1    
    60   31   32 1    
    61   31   60 1    
    62   31   61 1    
    63   32   33 1    
    64   32   62 1    
    65   32   63 1    
    66   33   34 1    
    67   33   36 1    
    68   33   64 1    
    69   34   35 1    
    70   34   65 1    
    71   34   66 1    
    72   35   67 1    
    73   35   68 1    
    74   36   69 1    
    75   70   71 1    
@<TRIPOS>SUBSTRUCTURE
     1 UNK         1 GROUP             0       ****    0 ROOT    
