@<TRIPOS>MOLECULE
ZINC26456482_4335
58   62    1
SMALL
USER_CHARGES


@<TRIPOS>ATOM
      1 C1         -4.7000   51.5095   18.0717 C.3       1 UNK         0.0000 
      2 C2         -3.2424   51.7484   18.4125 C.ar      1 UNK         0.0000 
      3 C3         -2.3232   52.1439   17.4371 C.ar      1 UNK         0.0000 
      4 C4         -0.9909   52.3199   17.8156 C.ar      1 UNK         0.0000 
      5 C5         -0.6164   52.0969   19.1417 C.ar      1 UNK         0.0000 
      6 C6         -1.5911   51.7053   20.0649 C.ar      1 UNK         0.0000 
      7 N7         -2.8952   51.5412   19.7068 N.ar      1 UNK         0.0000 
      8 N8         -1.1595   51.5518   21.3901 N.am      1 UNK         0.0000 
      9 C9         -1.7642   50.9385   22.4316 C.2       1 UNK         0.0000 
     10 O10        -2.8884   50.4422   22.3357 O.2       1 UNK         0.0000 
     11 C11        -1.0044   50.9479   23.6941 C.2       1 UNK         0.0000 
     12 C12        -1.3148   50.0981   24.7211 C.2       1 UNK         0.0000 
     13 N13        -0.6519   50.1744   25.9227 N.pl3     1 UNK         0.0000 
     14 C14         0.3043   51.1061   26.2369 C.2       1 UNK         0.0000 
     15 C15         0.6569   52.0695   25.3455 C.2       1 UNK         0.0000 
     16 C16         0.1031   52.0465   23.8882 C.3       1 UNK         0.0000 
     17 H17        -0.3856   53.0128   23.7395 H         1 UNK         0.0000 
     18 C18         1.2568   52.0345   22.8656 C.ar      1 UNK         0.0000 
     19 C19         1.7419   53.2428   22.3563 C.ar      1 UNK         0.0000 
     20 C20         2.9056   53.2716   21.6055 C.ar      1 UNK         0.0000 
     21 C21         3.5437   52.0809   21.2933 C.ar      1 UNK         0.0000 
     22 C22         3.0056   50.8576   21.6814 C.ar      1 UNK         0.0000 
     23 C23         1.8742   50.8332   22.4954 C.ar      1 UNK         0.0000 
     24 Cl24        5.0515   52.1421   20.4813 Cl        1 UNK         0.0000 
     25 C25         1.6041   53.1490   25.7434 C.2       1 UNK         0.0000 
     26 O26         1.9001   54.0966   25.0226 O.2       1 UNK         0.0000 
     27 C27         2.2326   53.0740   27.1335 C.3       1 UNK         0.0000 
     28 C28         1.3101   52.4011   28.1610 C.3       1 UNK         0.0000 
     29 H29         0.4289   53.0417   28.2550 H         1 UNK         0.0000 
     30 C30         0.8491   51.0184   27.6576 C.3       1 UNK         0.0000 
     31 C31         1.9703   52.2993   29.5136 C.2       1 UNK         0.0000 
     32 C32         3.2876   52.2480   29.9497 C.2       1 UNK         0.0000 
     33 C33         3.2462   52.0974   31.3330 C.2       1 UNK         0.0000 
     34 C34         1.9044   52.0968   31.6816 C.2       1 UNK         0.0000 
     35 O35         1.1328   52.2090   30.5759 O.3       1 UNK         0.0000 
     36 C36        -2.3034   48.9324   24.7126 C.3       1 UNK         0.0000 
     37 H37        -4.9857   52.0397   17.1635 H         1 UNK         0.0000 
     38 H38        -5.3549   51.8430   18.8769 H         1 UNK         0.0000 
     39 H39        -4.8768   50.4455   17.9135 H         1 UNK         0.0000 
     40 H40        -2.6258   52.3011   16.4121 H         1 UNK         0.0000 
     41 H41        -0.2511   52.6217   17.0885 H         1 UNK         0.0000 
     42 H42         0.4142   52.2372   19.4383 H         1 UNK         0.0000 
     43 H43        -0.2039   51.8349   21.5532 H         1 UNK         0.0000 
     44 H44        -0.9014   49.5030   26.6429 H         1 UNK         0.0000 
     45 H45         1.2685   54.1794   22.6094 H         1 UNK         0.0000 
     46 H46         3.3118   54.2176   21.2775 H         1 UNK         0.0000 
     47 H47         3.5041   49.9372   21.4142 H         1 UNK         0.0000 
     48 H48         1.5067   49.8877   22.8704 H         1 UNK         0.0000 
     49 H49         2.5409   54.0730   27.4425 H         1 UNK         0.0000 
     50 H50         3.1493   52.4967   27.0303 H         1 UNK         0.0000 
     51 H51         0.0480   50.7163   28.3363 H         1 UNK         0.0000 
     52 H52         1.6405   50.2682   27.6812 H         1 UNK         0.0000 
     53 H53         4.1740   52.2932   29.3334 H         1 UNK         0.0000 
     54 H54         4.0902   52.0144   32.0043 H         1 UNK         0.0000 
     55 H55         1.3668   52.0120   32.6148 H         1 UNK         0.0000 
     56 H56        -2.3812   48.4684   23.7290 H         1 UNK         0.0000 
     57 H57        -2.0010   48.1366   25.3983 H         1 UNK         0.0000 
     58 H58        -3.2944   49.2751   25.0149 H         1 UNK         0.0000 
@<TRIPOS>BOND
     1    1    2 1    
     2    1   37 1    
     3    1   38 1    
     4    1   39 1    
     5    2    7 ar   
     6    2    3 ar   
     7    3    4 ar   
     8    3   40 1    
     9    4    5 ar   
    10    4   41 1    
    11    5    6 ar   
    12    5   42 1    
    13    6    7 ar   
    14    6    8 1    
    15    8    9 am   BACKBONE|DICT|INTERRES
    16    8   43 1    
    17    9   10 2    
    18    9   11 1    
    19   11   16 1    
    20   11   12 2    
    21   12   13 1    
    22   12   36 1    
    23   13   14 1    
    24   13   44 1    
    25   14   30 1    
    26   14   15 2    
    27   15   16 1    
    28   15   25 1    
    29   16   17 1    
    30   16   18 1    
    31   18   23 ar   
    32   18   19 ar   
    33   19   20 ar   
    34   19   45 1    
    35   20   21 ar   
    36   20   46 1    
    37   21   22 ar   
    38   21   24 1    
    39   22   23 ar   
    40   22   47 1    
    41   23   48 1    
    42   25   26 2    
    43   25   27 1    
    44   27   28 1    
    45   27   49 1    
    46   27   50 1    
    47   28   29 1    
    48   28   30 1    
    49   28   31 1    
    50   30   51 1    
    51   30   52 1    
    52   31   35 1    
    53   31   32 2    
    54   32   33 1    
    55   32   53 1    
    56   33   34 2    
    57   33   54 1    
    58   34   35 1    
    59   34   55 1    
    60   36   56 1    
    61   36   57 1    
    62   36   58 1    
@<TRIPOS>SUBSTRUCTURE
     1 UNK         1 GROUP             0       ****    0 ROOT    
