@<TRIPOS>MOLECULE
ZINC16134262_3447
53   57    1
SMALL
USER_CHARGES


@<TRIPOS>ATOM
      1 C1          2.5806   53.5793   27.4713 C.3       1 UNK         0.0000 
      2 C2          1.2791   52.8289   27.7371 C.ar      1 UNK         0.0000 
      3 C3          0.7946   52.7796   29.0496 C.ar      1 UNK         0.0000 
      4 C4         -0.3843   52.0966   29.3436 C.ar      1 UNK         0.0000 
      5 C5         -1.0917   51.4674   28.3240 C.ar      1 UNK         0.0000 
      6 C6         -0.6259   51.5142   27.0120 C.ar      1 UNK         0.0000 
      7 C7          0.5620   52.1958   26.7001 C.ar      1 UNK         0.0000 
      8 N8          1.1041   52.2468   25.3990 N.am      1 UNK         0.0000 
      9 C9          0.5540   51.9499   24.1975 C.2       1 UNK         0.0000 
     10 O10        -0.6225   51.6146   24.0286 O.2       1 UNK         0.0000 
     11 C11         1.5155   52.0640   23.0257 C.ar      1 UNK         0.0000 
     12 C12         2.4654   53.0837   23.0433 C.ar      1 UNK         0.0000 
     13 C13         3.3873   53.2534   22.0004 C.ar      1 UNK         0.0000 
     14 C14         4.3604   54.2793   22.0842 C.ar      1 UNK         0.0000 
     15 C15         5.2554   54.4981   21.0473 C.ar      1 UNK         0.0000 
     16 C16         5.2049   53.7080   19.9119 C.ar      1 UNK         0.0000 
     17 C17         4.2807   52.6753   19.8135 C.ar      1 UNK         0.0000 
     18 C18         3.3436   52.3909   20.8624 C.ar      1 UNK         0.0000 
     19 C19         2.3866   51.3027   20.8330 C.ar      1 UNK         0.0000 
     20 C20         1.4871   51.1776   21.9295 C.ar      1 UNK         0.0000 
     21 O21         0.5776   50.1431   21.9498 O.3       1 UNK         0.0000 
     22 C22         2.3848   50.3372   19.6849 C.2       1 UNK         0.0000 
     23 N23         1.7247   49.2531   19.6255 N.2       1 UNK         0.0000 
     24 N24         1.9036   48.4511   18.4825 N.pl3     1 UNK         0.0000 
     25 C25         1.2239   47.2813   18.2334 C.2       1 UNK         0.0000 
     26 N26         1.5087   46.4969   17.2369 N.2       1 UNK         0.0000 
     27 C27         0.7200   45.3907   17.2427 C.ar      1 UNK         0.0000 
     28 C28         0.8160   44.3425   16.3168 C.ar      1 UNK         0.0000 
     29 C29        -0.0492   43.2556   16.4487 C.ar      1 UNK         0.0000 
     30 C30        -0.9971   43.2084   17.4724 C.ar      1 UNK         0.0000 
     31 C31        -1.1155   44.2400   18.4058 C.ar      1 UNK         0.0000 
     32 C32        -0.2417   45.3291   18.2869 C.ar      1 UNK         0.0000 
     33 S33        -0.0891   46.7691   19.2809 S.3       1 UNK         0.0000 
     34 H34         3.3361   52.8994   27.0757 H         1 UNK         0.0000 
     35 H35         2.4201   54.3615   26.7296 H         1 UNK         0.0000 
     36 H36         2.9832   54.0494   28.3709 H         1 UNK         0.0000 
     37 H37         1.3333   53.2604   29.8535 H         1 UNK         0.0000 
     38 H38        -0.7448   52.0413   30.3620 H         1 UNK         0.0000 
     39 H39        -1.9931   50.9142   28.5520 H         1 UNK         0.0000 
     40 H40        -1.1929   50.9852   26.2628 H         1 UNK         0.0000 
     41 H41         2.0643   52.5524   25.3700 H         1 UNK         0.0000 
     42 H42         2.5112   53.7886   23.8644 H         1 UNK         0.0000 
     43 H43         4.4014   54.8963   22.9670 H         1 UNK         0.0000 
     44 H44         5.9876   55.2901   21.1158 H         1 UNK         0.0000 
     45 H45         5.8964   53.8846   19.0997 H         1 UNK         0.0000 
     46 H46         4.3094   52.0972   18.9048 H         1 UNK         0.0000 
     47 H47         0.6850   49.5826   21.1731 H         1 UNK         0.0000 
     48 H48         3.0049   50.6125   18.8410 H         1 UNK         0.0000 
     49 H49         2.6336   48.7728   17.8458 H         1 UNK         0.0000 
     50 H50         1.5476   44.3745   15.5243 H         1 UNK         0.0000 
     51 H51         0.0079   42.4391   15.7426 H         1 UNK         0.0000 
     52 H52        -1.6561   42.3541   17.5359 H         1 UNK         0.0000 
     53 H53        -1.8558   44.2018   19.1915 H         1 UNK         0.0000 
@<TRIPOS>BOND
     1    1    2 1    
     2    1   34 1    
     3    1   35 1    
     4    1   36 1    
     5    2    7 ar   
     6    2    3 ar   
     7    3    4 ar   
     8    3   37 1    
     9    4    5 ar   
    10    4   38 1    
    11    5    6 ar   
    12    5   39 1    
    13    6    7 ar   
    14    6   40 1    
    15    7    8 1    
    16    8    9 am   BACKBONE|DICT|INTERRES
    17    8   41 1    
    18    9   10 2    
    19    9   11 1    
    20   11   20 ar   
    21   11   12 ar   
    22   12   13 ar   
    23   12   42 1    
    24   13   18 ar   
    25   13   14 ar   
    26   14   15 ar   
    27   14   43 1    
    28   15   16 ar   
    29   15   44 1    
    30   16   17 ar   
    31   16   45 1    
    32   17   18 ar   
    33   17   46 1    
    34   18   19 ar   
    35   19   20 ar   
    36   19   22 1    
    37   20   21 1    
    38   21   47 1    
    39   22   23 2    
    40   22   48 1    
    41   23   24 1    
    42   24   25 1    
    43   24   49 1    
    44   25   33 1    
    45   25   26 2    
    46   26   27 1    
    47   27   32 ar   
    48   27   28 ar   
    49   28   29 ar   
    50   28   50 1    
    51   29   30 ar   
    52   29   51 1    
    53   30   31 ar   
    54   30   52 1    
    55   31   32 ar   
    56   31   53 1    
    57   32   33 1    
@<TRIPOS>SUBSTRUCTURE
     1 UNK         1 GROUP             0       ****    0 ROOT    
