ZINC01059993_1057
                    3D
 Schrodinger Suite 2024-2.
 75 79  0  0  1  0            999 V2000
    1.0733   50.5876   21.9026 C   0  0  0  0  0  0
   -0.1212   51.4740   22.3003 C   0  0  0  0  0  0
   -0.2507   51.5575   23.7169 O   0  0  0  0  0  0
    0.5222   52.3885   24.4586 C   0  0  0  0  0  0
    1.3108   53.2049   23.9750 O   0  0  0  0  0  0
    0.3024   52.2315   25.9137 C   0  0  0  0  0  0
    1.1600   52.8001   26.9054 C   0  0  0  0  0  0
    0.6961   52.6210   28.2182 C   0  0  0  0  0  0
   -0.7502   51.6965   28.2722 S   0  0  0  0  0  0
   -0.7436   51.5117   26.5472 C   0  0  0  0  0  0
   -1.7229   50.6871   25.9840 N   0  0  0  0  0  0
   -3.0604   51.1342   25.9149 C   0  0  0  0  0  0
   -4.0372   50.3392   25.3722 C   0  0  0  0  0  0
   -3.7638   48.8789   24.9381 C   0  0  1  0  0  0
   -4.0315   48.8112   23.8811 H   0  0  0  0  0  0
   -2.2812   48.5406   25.0500 C   0  0  0  0  0  0
   -1.3656   49.3960   25.5483 C   0  0  0  0  0  0
   -0.0417   49.0195   25.6818 N   0  0  0  0  0  0
   -1.9200   47.2066   24.7008 C   0  0  0  0  0  0
   -1.7059   46.1043   24.4338 N   0  0  0  0  0  0
   -4.6467   47.8203   25.6236 C   0  0  0  0  0  0
   -5.6145   47.1086   24.9089 C   0  0  0  0  0  0
   -6.3618   46.1113   25.5317 C   0  0  0  0  0  0
   -6.1544   45.7978   26.8852 C   0  0  0  0  0  0
   -5.1895   46.5105   27.6127 C   0  0  0  0  0  0
   -4.4500   47.5192   26.9742 C   0  0  0  0  0  0
   -5.0239   46.1673   28.9430 O   0  0  0  0  0  0
   -4.0002   46.8020   29.7042 C   0  0  0  0  0  0
   -6.8482   44.8078   27.5615 O   0  0  0  0  0  0
   -7.8292   44.0415   26.8710 C   0  0  0  0  0  0
   -5.4149   50.8360   25.1374 C   0  0  0  0  0  0
   -6.2730   50.1825   24.5454 O   0  0  0  0  0  0
   -5.7432   52.2484   25.6276 C   0  0  0  0  0  0
   -4.5385   53.2196   25.5781 C   0  0  0  0  0  0
   -3.3805   52.5761   26.3835 C   0  0  0  0  0  0
   -5.0090   54.5190   26.2494 C   0  0  0  0  0  0
   -4.0983   53.5057   24.1290 C   0  0  0  0  0  0
    1.3975   53.0918   29.4858 C   0  0  0  0  0  0
    2.4820   54.1247   29.1199 C   0  0  0  0  0  0
    3.3322   53.6496   27.9308 C   0  0  0  0  0  0
    2.4965   53.5103   26.6378 C   0  0  0  0  0  0
    1.1257   50.4742   20.8181 H   0  0  0  0  0  0
    2.0174   51.0239   22.2336 H   0  0  0  0  0  0
    0.9886   49.5926   22.3426 H   0  0  0  0  0  0
   -1.0396   51.0342   21.9081 H   0  0  0  0  0  0
   -0.0369   52.4661   21.8545 H   0  0  0  0  0  0
    0.1973   48.0362   25.7162 H   0  0  0  0  0  0
    0.6217   49.6474   26.1064 H   0  0  0  0  0  0
   -5.7909   47.3243   23.8642 H   0  0  0  0  0  0
   -7.0988   45.5889   24.9406 H   0  0  0  0  0  0
   -3.6955   48.0748   27.5124 H   0  0  0  0  0  0
   -4.0878   46.4997   30.7462 H   0  0  0  0  0  0
   -3.0135   46.4977   29.3501 H   0  0  0  0  0  0
   -4.0852   47.8899   29.6873 H   0  0  0  0  0  0
   -8.2515   43.3040   27.5541 H   0  0  0  0  0  0
   -7.3935   43.4993   26.0295 H   0  0  0  0  0  0
   -8.6451   44.6694   26.5105 H   0  0  0  0  0  0
   -6.0580   52.1229   26.6633 H   0  0  0  0  0  0
   -6.6100   52.6226   25.0814 H   0  0  0  0  0  0
   -3.6087   52.4964   27.4453 H   0  0  0  0  0  0
   -2.5412   53.2565   26.2386 H   0  0  0  0  0  0
   -5.8957   54.8967   25.7399 H   0  0  0  0  0  0
   -5.3064   54.3763   27.2816 H   0  0  0  0  0  0
   -4.2462   55.2965   26.2049 H   0  0  0  0  0  0
   -4.8772   54.1141   23.6816 H   0  0  0  0  0  0
   -3.1811   54.0944   24.0823 H   0  0  0  0  0  0
   -3.9533   52.6096   23.5264 H   0  0  0  0  0  0
    0.6906   53.5204   30.1969 H   0  0  0  0  0  0
    1.8648   52.2398   29.9809 H   0  0  0  0  0  0
    2.0163   55.0808   28.8750 H   0  0  0  0  0  0
    3.1189   54.3125   29.9844 H   0  0  0  0  0  0
    4.1548   54.3448   27.7602 H   0  0  0  0  0  0
    3.7947   52.6909   28.1743 H   0  0  0  0  0  0
    3.0872   52.9746   25.8936 H   0  0  0  0  0  0
    2.3073   54.4964   26.2179 H   0  0  0  0  0  0
  1  2  1  0  0  0
  1 42  1  0  0  0
  1 43  1  0  0  0
  1 44  1  0  0  0
  2  3  1  0  0  0
  2 45  1  0  0  0
  2 46  1  0  0  0
  3  4  1  0  0  0
  4  5  2  0  0  0
  4  6  1  0  0  0
  6 10  2  0  0  0
  6  7  1  0  0  0
  7 41  1  0  0  0
  7  8  2  0  0  0
  8  9  1  0  0  0
  8 38  1  0  0  0
  9 10  1  0  0  0
 10 11  1  0  0  0
 11 17  1  0  0  0
 11 12  1  0  0  0
 12 35  1  0  0  0
 12 13  2  0  0  0
 13 14  1  0  0  0
 13 31  1  0  0  0
 14 15  1  0  0  0
 14 16  1  0  0  0
 14 21  1  0  0  0
 16 17  2  0  0  0
 16 19  1  0  0  0
 17 18  1  0  0  0
 18 47  1  0  0  0
 18 48  1  0  0  0
 19 20  3  0  0  0
 21 26  2  0  0  0
 21 22  1  0  0  0
 22 23  2  0  0  0
 22 49  1  0  0  0
 23 24  1  0  0  0
 23 50  1  0  0  0
 24 25  2  0  0  0
 24 29  1  0  0  0
 25 26  1  0  0  0
 25 27  1  0  0  0
 26 51  1  0  0  0
 27 28  1  0  0  0
 28 52  1  0  0  0
 28 53  1  0  0  0
 28 54  1  0  0  0
 29 30  1  0  0  0
 30 55  1  0  0  0
 30 56  1  0  0  0
 30 57  1  0  0  0
 31 32  2  0  0  0
 31 33  1  0  0  0
 33 34  1  0  0  0
 33 58  1  0  0  0
 33 59  1  0  0  0
 34 35  1  0  0  0
 34 36  1  0  0  0
 34 37  1  0  0  0
 35 60  1  0  0  0
 35 61  1  0  0  0
 36 62  1  0  0  0
 36 63  1  0  0  0
 36 64  1  0  0  0
 37 65  1  0  0  0
 37 66  1  0  0  0
 37 67  1  0  0  0
 38 39  1  0  0  0
 38 68  1  0  0  0
 38 69  1  0  0  0
 39 40  1  0  0  0
 39 70  1  0  0  0
 39 71  1  0  0  0
 40 41  1  0  0  0
 40 72  1  0  0  0
 40 73  1  0  0  0
 41 74  1  0  0  0
 41 75  1  0  0  0
M  END
> <i_i_glide_confnum>
19

> <i_i_glide_lignum>
1058

> <i_i_glide_posenum>
279

> <i_i_glide_rotatable_bonds>
8

> <i_m_Source_File_Index>
2789

> <b_m_subgroup_collapsed>
0

> <r_i_docking_score>
-4.55836

> <r_i_glide_ecoul>
-4.92063

> <r_i_glide_eff_state_penalty>
0

> <r_i_glide_einternal>
2.00146

> <r_i_glide_emodel>
-51.1928

> <r_i_glide_energy>
-40.6027

> <r_i_glide_erotb>
0.182342

> <r_i_glide_esite>
-0.209871

> <r_i_glide_evdw>
-35.6821

> <r_i_glide_gscore>
-4.55836

> <r_i_glide_hbond>
-0.38623

> <r_i_glide_ligand_efficiency>
-0.113959

> <r_i_glide_ligand_efficiency_ln>
-0.972164

> <r_i_glide_ligand_efficiency_sa>
-0.389734

> <r_i_glide_lipo>
-1.46547

> <r_i_glide_metal>
0

> <r_i_glide_rewards>
-0.156932

> <s_i_glide_gridfile>
wee1_glide-grid

> <s_m_Source_File>
wee1_decoys_glide_SP.sdf

> <s_m_Source_Path>
/Users/zhangxujun/Desktop

> <s_m_entry_id>
3064

> <s_m_entry_name>
wee1_decoys_glide_SP.2789

> <s_m_subgroup_title>
wee1_decoys_glide_SP

> <s_m_subgroupid>
wee1_decoys_glide_SP


$$$$
