ZINC63830752_4101
                    3D
 Schrodinger Suite 2024-2.
 69 73  0  0  1  0            999 V2000
   -0.9245   47.4999   19.9640 C   0  0  0  0  0  0
   -2.2285   46.6928   19.7530 C   0  0  2  0  0  0
   -1.9589   45.6346   19.7624 H   0  0  0  0  0  0
   -2.7678   46.9798   18.3262 C   0  0  0  0  0  0
   -4.0037   46.1343   17.9589 C   0  0  0  0  0  0
   -5.1239   46.2879   19.0013 C   0  0  0  0  0  0
   -4.5953   45.9816   20.4134 C   0  0  0  0  0  0
   -3.3810   46.8775   20.8046 C   0  0  1  0  0  0
   -2.8786   46.4329   22.1782 C   0  0  0  0  0  0
   -2.4957   45.2977   22.4815 O   0  0  0  0  0  0
   -2.8870   47.5505   22.9405 N   0  0  0  0  0  0
   -3.4719   48.6261   22.3453 C   0  0  0  0  0  0
   -3.9160   49.6366   22.8943 O   0  0  0  0  0  0
   -3.7125   48.2470   21.0865 N   0  0  0  0  0  0
   -2.3096   47.5790   24.3066 C   0  0  0  0  0  0
   -1.0950   48.5232   24.4270 C   0  0  0  0  0  0
   -0.5703   49.0476   23.4446 O   0  0  0  0  0  0
   -0.6994   48.7638   25.6816 N   0  0  0  0  0  0
    0.2747   49.7651   26.1168 C   0  0  0  0  0  0
   -0.4229   50.9500   26.8372 C   0  0  1  0  0  0
   -1.0396   50.4967   27.6121 H   0  0  0  0  0  0
    0.5444   51.8627   27.5939 C   0  0  0  0  0  0
    0.4012   52.0235   28.9758 C   0  0  0  0  0  0
    1.3224   52.7790   29.6948 C   0  0  0  0  0  0
    2.4061   53.3742   29.0522 C   0  0  0  0  0  0
    2.5287   53.2471   27.6593 C   0  0  0  0  0  0
    1.6015   52.4993   26.9360 C   0  0  0  0  0  0
    3.3027   54.0518   29.8583 O   0  0  0  0  0  0
    4.5305   54.5028   29.2920 C   0  0  0  0  0  0
   -1.4166   51.6911   25.9493 C   0  0  0  0  0  0
   -2.7541   51.8083   26.0621 C   0  0  0  0  0  0
   -3.6777   51.2915   27.0843 C   0  0  0  0  0  0
   -5.0019   51.5199   26.9945 C   0  0  0  0  0  0
   -5.4866   52.2931   25.8578 C   0  0  0  0  0  0
   -4.6472   52.7680   24.9005 C   0  0  0  0  0  0
   -3.2710   52.5228   24.9778 C   0  0  0  0  0  0
   -2.3114   52.8642   24.1534 N   0  3  0  0  0  0
   -1.0167   52.3695   24.6510 C   0  0  0  0  0  0
   -1.0976   48.5752   19.8897 H   0  0  0  0  0  0
   -0.4990   47.3075   20.9487 H   0  0  0  0  0  0
   -0.1640   47.2361   19.2253 H   0  0  0  0  0  0
   -1.9813   46.7904   17.5929 H   0  0  0  0  0  0
   -2.9919   48.0418   18.2179 H   0  0  0  0  0  0
   -3.7170   45.0852   17.8836 H   0  0  0  0  0  0
   -4.3706   46.4214   16.9737 H   0  0  0  0  0  0
   -5.9517   45.6197   18.7588 H   0  0  0  0  0  0
   -5.5293   47.2996   18.9647 H   0  0  0  0  0  0
   -5.4148   46.1637   21.1128 H   0  0  0  0  0  0
   -4.3737   44.9214   20.5417 H   0  0  0  0  0  0
   -3.8611   48.9096   20.3396 H   0  0  0  0  0  0
   -3.0785   47.9128   25.0045 H   0  0  0  0  0  0
   -1.9956   46.5853   24.6294 H   0  0  0  0  0  0
   -1.1177   48.2360   26.4446 H   0  0  0  0  0  0
    0.9674   49.2701   26.7979 H   0  0  0  0  0  0
    0.8824   50.1220   25.2828 H   0  0  0  0  0  0
   -0.4082   51.5433   29.5055 H   0  0  0  0  0  0
    1.2083   52.8767   30.7654 H   0  0  0  0  0  0
    3.3474   53.7039   27.1244 H   0  0  0  0  0  0
    1.7281   52.3896   25.8687 H   0  0  0  0  0  0
    5.1541   54.9199   30.0815 H   0  0  0  0  0  0
    5.0889   53.6842   28.8341 H   0  0  0  0  0  0
    4.3646   55.2827   28.5484 H   0  0  0  0  0  0
   -3.3243   50.7019   27.9198 H   0  0  0  0  0  0
   -5.6860   51.1278   27.7332 H   0  0  0  0  0  0
   -6.5470   52.4883   25.7725 H   0  0  0  0  0  0
   -5.0719   53.3304   24.0815 H   0  0  0  0  0  0
   -0.3448   53.2170   24.7719 H   0  0  0  0  0  0
   -0.6118   51.6781   23.9098 H   0  0  0  0  0  0
   -2.4329   53.3796   23.2857 H   0  0  0  0  0  0
  1  2  1  0  0  0
  1 39  1  0  0  0
  1 40  1  0  0  0
  1 41  1  0  0  0
  2  3  1  0  0  0
  2  8  1  0  0  0
  2  4  1  0  0  0
  4  5  1  0  0  0
  4 42  1  0  0  0
  4 43  1  0  0  0
  5  6  1  0  0  0
  5 44  1  0  0  0
  5 45  1  0  0  0
  6  7  1  0  0  0
  6 46  1  0  0  0
  6 47  1  0  0  0
  7  8  1  0  0  0
  7 48  1  0  0  0
  7 49  1  0  0  0
  8 14  1  0  0  0
  8  9  1  0  0  0
  9 10  2  0  0  0
  9 11  1  0  0  0
 11 12  1  0  0  0
 11 15  1  0  0  0
 12 13  2  0  0  0
 12 14  1  0  0  0
 14 50  1  0  0  0
 15 16  1  0  0  0
 15 51  1  0  0  0
 15 52  1  0  0  0
 16 17  2  0  0  0
 16 18  1  0  0  0
 18 19  1  0  0  0
 18 53  1  0  0  0
 19 20  1  0  0  0
 19 54  1  0  0  0
 19 55  1  0  0  0
 20 21  1  0  0  0
 20 22  1  0  0  0
 20 30  1  0  0  0
 22 27  2  0  0  0
 22 23  1  0  0  0
 23 24  2  0  0  0
 23 56  1  0  0  0
 24 25  1  0  0  0
 24 57  1  0  0  0
 25 26  2  0  0  0
 25 28  1  0  0  0
 26 27  1  0  0  0
 26 58  1  0  0  0
 27 59  1  0  0  0
 28 29  1  0  0  0
 29 60  1  0  0  0
 29 61  1  0  0  0
 29 62  1  0  0  0
 30 38  1  0  0  0
 30 31  2  0  0  0
 31 36  1  0  0  0
 31 32  1  0  0  0
 32 33  2  0  0  0
 32 63  1  0  0  0
 33 34  1  0  0  0
 33 64  1  0  0  0
 34 35  2  0  0  0
 34 65  1  0  0  0
 35 36  1  0  0  0
 35 66  1  0  0  0
 36 37  2  0  0  0
 37 38  1  0  0  0
 37 69  1  0  0  0
 38 67  1  0  0  0
 38 68  1  0  0  0
M  CHG  1  37   1
M  END
> <i_i_glide_confnum>
66

> <i_i_glide_lignum>
4102

> <i_i_glide_posenum>
372

> <i_i_glide_rotatable_bonds>
8

> <i_m_Source_File_Index>
1924

> <b_m_subgroup_collapsed>
0

> <r_i_docking_score>
-4.13886

> <r_i_glide_ecoul>
-7.42578

> <r_i_glide_eff_state_penalty>
0

> <r_i_glide_einternal>
3.78708

> <r_i_glide_emodel>
-51.6836

> <r_i_glide_energy>
-39.8434

> <r_i_glide_erotb>
0.594139

> <r_i_glide_esite>
-0.153989

> <r_i_glide_evdw>
-32.4176

> <r_i_glide_gscore>
-4.13886

> <r_i_glide_hbond>
-0.543348

> <r_i_glide_ligand_efficiency>
-0.114968

> <r_i_glide_ligand_efficiency_ln>
-0.902988

> <r_i_glide_ligand_efficiency_sa>
-0.379617

> <r_i_glide_lipo>
-1.2328

> <r_i_glide_metal>
0

> <r_i_glide_rewards>
-0.068121

> <s_i_glide_gridfile>
wee1_glide-grid

> <s_m_Source_File>
wee1_decoys_glide_SP.sdf

> <s_m_Source_Path>
/Users/zhangxujun/Desktop

> <s_m_entry_id>
2199

> <s_m_entry_name>
wee1_decoys_glide_SP.1924

> <s_m_subgroup_title>
wee1_decoys_glide_SP

> <s_m_subgroupid>
wee1_decoys_glide_SP


$$$$
