@<TRIPOS>MOLECULE
ZINC38719662_1678
35   36    1
SMALL
USER_CHARGES


@<TRIPOS>ATOM
      1 C1          2.0375   53.6294   24.2693 C.3       1 UNK         0.0000 
      2 C2          3.4516   53.9702   24.7259 C.ar      1 UNK         0.0000 
      3 C3          4.4518   54.1186   23.7603 C.ar      1 UNK         0.0000 
      4 C4          5.7523   54.4517   24.1344 C.ar      1 UNK         0.0000 
      5 C5          6.0698   54.6110   25.4815 C.ar      1 UNK         0.0000 
      6 C6          5.0820   54.4519   26.4537 C.ar      1 UNK         0.0000 
      7 C7          3.7699   54.1261   26.0875 C.ar      1 UNK         0.0000 
      8 N8          2.7555   54.0294   27.0499 N.pl3     1 UNK         0.0000 
      9 S9          2.8700   52.9967   28.4861 S.o2      1 UNK         0.0000 
     10 O10         4.2261   53.0870   29.0366 O.2       1 UNK         0.0000 
     11 O11         2.3008   51.7045   28.0991 O.2       1 UNK         0.0000 
     12 C12         1.7582   53.7634   29.6628 C.2       1 UNK         0.0000 
     13 C13         1.5375   55.0651   29.8553 C.2       1 UNK         0.0000 
     14 N14         0.6820   55.2298   30.8821 N.2       1 UNK         0.0000 
     15 N15         0.3045   54.1115   31.3644 N.2       1 UNK         0.0000 
     16 C16         0.9159   53.0252   30.6597 C.3       1 UNK         0.0000 
     17 H17         1.5195   52.4553   31.3684 H         1 UNK         0.0000 
     18 C18        -0.1882   52.1335   30.0551 C.3       1 UNK         0.0000 
     19 C19         2.1341   56.3158   29.2504 C.3       1 UNK         0.0000 
     20 N20         6.7231   54.6386   23.1550 N.pl3     1 UNK         0.0000 
     21 H21         1.9885   53.4174   23.1995 H         1 UNK         0.0000 
     22 H22         1.6753   52.7438   24.7939 H         1 UNK         0.0000 
     23 H23         1.3555   54.4517   24.4906 H         1 UNK         0.0000 
     24 H24         4.2114   53.9978   22.7137 H         1 UNK         0.0000 
     25 H25         7.0752   54.8647   25.7793 H         1 UNK         0.0000 
     26 H26         5.3441   54.6070   27.4896 H         1 UNK         0.0000 
     27 H27         1.8496   53.9256   26.6213 H         1 UNK         0.0000 
     28 H28         0.2240   51.2968   29.4929 H         1 UNK         0.0000 
     29 H29        -0.8114   51.7040   30.8434 H         1 UNK         0.0000 
     30 H30        -0.8462   52.6865   29.3833 H         1 UNK         0.0000 
     31 H31         3.1001   56.0959   28.8001 H         1 UNK         0.0000 
     32 H32         1.4720   56.7205   28.4868 H         1 UNK         0.0000 
     33 H33         2.2879   57.0803   30.0131 H         1 UNK         0.0000 
     34 H34         6.4695   54.5296   22.1839 H         1 UNK         0.0000 
     35 H35         7.6709   54.8926   23.4158 H         1 UNK         0.0000 
@<TRIPOS>BOND
     1    1    2 1    
     2    1   21 1    
     3    1   22 1    
     4    1   23 1    
     5    2    7 ar   
     6    2    3 ar   
     7    3    4 ar   
     8    3   24 1    
     9    4    5 ar   
    10    4   20 1    
    11    5    6 ar   
    12    5   25 1    
    13    6    7 ar   
    14    6   26 1    
    15    7    8 1    
    16    8    9 1    
    17    8   27 1    
    18    9   10 2    
    19    9   11 2    
    20    9   12 1    
    21   12   16 1    
    22   12   13 2    
    23   13   14 1    
    24   13   19 1    
    25   14   15 2    
    26   15   16 1    
    27   16   17 1    
    28   16   18 1    
    29   18   28 1    
    30   18   29 1    
    31   18   30 1    
    32   19   31 1    
    33   19   32 1    
    34   19   33 1    
    35   20   34 1    
    36   20   35 1    
@<TRIPOS>SUBSTRUCTURE
     1 UNK         1 GROUP             0       ****    0 ROOT    
