@<TRIPOS>MOLECULE
ZINC20600085_2192
71   75    1
SMALL
USER_CHARGES


@<TRIPOS>ATOM
      1 C1          5.3580   54.3463   28.0420 C.3       1 UNK         0.0000 
      2 C2          5.2199   54.2452   26.5336 C.ar      1 UNK         0.0000 
      3 C3          3.9581   54.2018   25.9451 C.ar      1 UNK         0.0000 
      4 C4          3.8391   54.1100   24.5600 C.ar      1 UNK         0.0000 
      5 C5          4.9762   54.0968   23.7308 C.ar      1 UNK         0.0000 
      6 C6          6.2376   54.0982   24.3528 C.ar      1 UNK         0.0000 
      7 C7          6.3590   54.1917   25.7363 C.ar      1 UNK         0.0000 
      8 C8          4.8503   53.9629   22.1767 C.3       1 UNK         0.0000 
      9 C9          3.4414   54.3465   21.6205 C.3       1 UNK         0.0000 
     10 C10         2.6479   53.0735   21.2880 C.3       1 UNK         0.0000 
     11 C11         3.4691   51.9274   21.8443 C.3       1 UNK         0.0000 
     12 C12         4.9153   52.4556   21.7969 C.3       1 UNK         0.0000 
     13 C13         5.9032   54.8041   21.3888 C.2       1 UNK         0.0000 
     14 N14         5.9702   54.7479   20.0668 N.2       1 UNK         0.0000 
     15 C15         6.8428   55.6710   19.7777 C.2       1 UNK         0.0000 
     16 O16         7.3636   56.2800   20.8639 O.3       1 UNK         0.0000 
     17 N17         6.7046   55.6962   21.9385 N.2       1 UNK         0.0000 
     18 C18         7.3295   56.0994   18.4077 C.3       1 UNK         0.0000 
     19 N19         8.0904   55.0388   17.7406 N.3       1 UNK         0.0000 
     20 C20         8.1056   55.2115   16.2828 C.3       1 UNK         0.0000 
     21 C21         8.7643   53.9936   15.5957 C.3       1 UNK         0.0000 
     22 C22        10.2096   53.7045   16.1192 C.3       1 UNK         0.0000 
     23 C23        10.1026   53.6245   17.6812 C.3       1 UNK         0.0000 
     24 C24         9.4373   54.8731   18.3035 C.3       1 UNK         0.0000 
     25 C25        11.2097   54.8329   15.6664 C.2       1 UNK         0.0000 
     26 O26        11.1942   55.2622   14.5174 O.2       1 UNK         0.0000 
     27 N27        12.0870   55.3494   16.5316 N.am      1 UNK         0.0000 
     28 N28        10.7349   52.3261   15.5426 N.4       1 UNK         0.0000 
     29 C29        10.1396   51.0526   16.2281 C.3       1 UNK         0.0000 
     30 C30        10.7825   49.7720   15.6567 C.3       1 UNK         0.0000 
     31 C31        10.6650   49.6729   14.1304 C.3       1 UNK         0.0000 
     32 C32        11.2061   50.9455   13.4675 C.3       1 UNK         0.0000 
     33 C33        10.5070   52.1994   14.0025 C.3       1 UNK         0.0000 
     34 H34         5.4040   53.3535   28.4905 H         1 UNK         0.0000 
     35 H35         6.2624   54.8918   28.3134 H         1 UNK         0.0000 
     36 H36         4.5231   54.8926   28.4784 H         1 UNK         0.0000 
     37 H37         3.0677   54.2212   26.5552 H         1 UNK         0.0000 
     38 H38         2.8419   54.0398   24.1559 H         1 UNK         0.0000 
     39 H39         7.1440   54.0126   23.7724 H         1 UNK         0.0000 
     40 H40         7.3385   54.1945   26.1895 H         1 UNK         0.0000 
     41 H41         2.8853   55.0139   22.2724 H         1 UNK         0.0000 
     42 H42         3.5069   54.8967   20.6840 H         1 UNK         0.0000 
     43 H43         1.6394   53.0994   21.7066 H         1 UNK         0.0000 
     44 H44         2.5435   52.9643   20.2062 H         1 UNK         0.0000 
     45 H45         3.1044   51.7282   22.8550 H         1 UNK         0.0000 
     46 H46         3.3464   51.0095   21.2657 H         1 UNK         0.0000 
     47 H47         5.2863   52.3142   20.7806 H         1 UNK         0.0000 
     48 H48         5.5857   51.8839   22.4406 H         1 UNK         0.0000 
     49 H49         7.9294   57.0091   18.4716 H         1 UNK         0.0000 
     50 H50         6.4608   56.3706   17.8059 H         1 UNK         0.0000 
     51 H51         8.5954   56.1508   16.0128 H         1 UNK         0.0000 
     52 H52         7.0764   55.2880   15.9269 H         1 UNK         0.0000 
     53 H53         8.7843   54.2369   14.5327 H         1 UNK         0.0000 
     54 H54         8.1043   53.1305   15.6879 H         1 UNK         0.0000 
     55 H55         9.4862   52.7986   18.0303 H         1 UNK         0.0000 
     56 H56        11.0923   53.5111   18.1201 H         1 UNK         0.0000 
     57 H57        10.0187   55.7845   18.1591 H         1 UNK         0.0000 
     58 H58         9.3704   54.7307   19.3826 H         1 UNK         0.0000 
     59 H59        12.7097   56.0734   16.2081 H         1 UNK         0.0000 
     60 H60        12.1021   55.0744   17.5023 H         1 UNK         0.0000 
     61 H61         9.0531   51.0722   16.1257 H         1 UNK         0.0000 
     62 H62        10.4214   51.0761   17.2812 H         1 UNK         0.0000 
     63 H63        10.3154   48.8986   16.1152 H         1 UNK         0.0000 
     64 H64        11.8341   49.7310   15.9482 H         1 UNK         0.0000 
     65 H65        11.2146   48.8035   13.7624 H         1 UNK         0.0000 
     66 H66         9.6227   49.5157   13.8430 H         1 UNK         0.0000 
     67 H67        12.2849   51.0180   13.6194 H         1 UNK         0.0000 
     68 H68        11.0626   50.8968   12.3875 H         1 UNK         0.0000 
     69 H69         9.4358   52.1751   13.8005 H         1 UNK         0.0000 
     70 H70        10.9573   53.0604   13.5111 H         1 UNK         0.0000 
     71 H71        11.7348   52.3151   15.6938 H         1 UNK         0.0000 
@<TRIPOS>BOND
     1    1    2 1    
     2    1   34 1    
     3    1   35 1    
     4    1   36 1    
     5    2    7 ar   
     6    2    3 ar   
     7    3    4 ar   
     8    3   37 1    
     9    4    5 ar   
    10    4   38 1    
    11    5    6 ar   
    12    5    8 1    
    13    6    7 ar   
    14    6   39 1    
    15    7   40 1    
    16    8   12 1    
    17    8    9 1    
    18    8   13 1    
    19    9   10 1    
    20    9   41 1    
    21    9   42 1    
    22   10   11 1    
    23   10   43 1    
    24   10   44 1    
    25   11   12 1    
    26   11   45 1    
    27   11   46 1    
    28   12   47 1    
    29   12   48 1    
    30   13   17 2    
    31   13   14 1    
    32   14   15 2    
    33   15   16 1    
    34   15   18 1    
    35   16   17 1    
    36   18   19 1    
    37   18   49 1    
    38   18   50 1    
    39   19   24 1    
    40   19   20 1    
    41   20   21 1    
    42   20   51 1    
    43   20   52 1    
    44   21   22 1    
    45   21   53 1    
    46   21   54 1    
    47   22   23 1    
    48   22   25 1    
    49   22   28 1    
    50   23   24 1    
    51   23   55 1    
    52   23   56 1    
    53   24   57 1    
    54   24   58 1    
    55   25   26 2    
    56   25   27 am   BACKBONE|DICT|INTERRES
    57   27   59 1    
    58   27   60 1    
    59   28   33 1    
    60   28   29 1    
    61   28   71 1    
    62   29   30 1    
    63   29   61 1    
    64   29   62 1    
    65   30   31 1    
    66   30   63 1    
    67   30   64 1    
    68   31   32 1    
    69   31   65 1    
    70   31   66 1    
    71   32   33 1    
    72   32   67 1    
    73   32   68 1    
    74   33   69 1    
    75   33   70 1    
@<TRIPOS>SUBSTRUCTURE
     1 UNK         1 GROUP             0       ****    0 ROOT    
