@<TRIPOS>MOLECULE
ZINC39677059_3690
71   74    1
SMALL
USER_CHARGES


@<TRIPOS>ATOM
      1 C1          6.4687   54.6950   23.1025 C.3       1 UNK         0.0000 
      2 C2          5.0751   54.0953   23.0540 C.ar      1 UNK         0.0000 
      3 C3          4.0971   54.4937   23.9593 C.ar      1 UNK         0.0000 
      4 C4          2.8181   53.9500   23.8975 C.ar      1 UNK         0.0000 
      5 C5          2.4933   52.9331   22.9821 C.ar      1 UNK         0.0000 
      6 C6          3.4858   52.5569   22.0387 C.ar      1 UNK         0.0000 
      7 C7          4.7519   53.1534   22.0818 C.ar      1 UNK         0.0000 
      8 C8          3.2725   51.4721   20.9857 C.3       1 UNK         0.0000 
      9 C9          1.1174   52.2728   22.9943 C.2       1 UNK         0.0000 
     10 O10         0.5769   52.0021   21.9199 O.2       1 UNK         0.0000 
     11 N11         0.5248   51.9257   24.1720 N.am      1 UNK         0.0000 
     12 C12         0.9702   52.2426   25.5306 C.3       1 UNK         0.0000 
     13 C13         0.0878   51.3594   26.4460 C.3       1 UNK         0.0000 
     14 H14         0.5686   50.3910   26.6076 H         1 UNK         0.0000 
     15 C15        -1.2340   51.1901   25.6369 C.3       1 UNK         0.0000 
     16 C16        -0.6840   51.0969   24.1953 C.3       1 UNK         0.0000 
     17 C17        -2.2314   52.3844   25.7646 C.3       1 UNK         0.0000 
     18 C18        -3.4684   52.2471   24.8478 C.3       1 UNK         0.0000 
     19 N19        -4.1731   50.9071   25.1727 N.4       1 UNK         0.0000 
     20 C20        -3.2372   49.6765   25.1530 C.3       1 UNK         0.0000 
     21 C21        -2.0505   49.9640   26.0955 C.3       1 UNK         0.0000 
     22 C22        -0.0741   52.0730   27.8126 C.2       1 UNK         0.0000 
     23 O23        -0.0957   53.2968   27.8717 O.2       1 UNK         0.0000 
     24 N24        -0.1275   51.3307   28.9310 N.am      1 UNK         0.0000 
     25 C25        -0.3235   51.8875   30.2862 C.3       1 UNK         0.0000 
     26 C26         0.9679   52.3309   31.0306 C.3       1 UNK         0.0000 
     27 C27         1.9374   53.2050   30.2310 C.ar      1 UNK         0.0000 
     28 C28         3.0592   52.6065   29.6403 C.ar      1 UNK         0.0000 
     29 C29         3.9644   53.3651   28.8971 C.ar      1 UNK         0.0000 
     30 C30         3.7277   54.7207   28.7028 C.ar      1 UNK         0.0000 
     31 C31         2.6210   55.3309   29.2838 C.ar      1 UNK         0.0000 
     32 C32         1.7366   54.5907   30.0733 C.ar      1 UNK         0.0000 
     33 C33         0.5953   55.3204   30.7580 C.3       1 UNK         0.0000 
     34 C34         5.2240   52.7463   28.3302 C.3       1 UNK         0.0000 
     35 H35         6.4961   55.6198   23.6811 H         1 UNK         0.0000 
     36 H36         7.1755   53.9866   23.5348 H         1 UNK         0.0000 
     37 H37         6.8159   54.9385   22.0977 H         1 UNK         0.0000 
     38 H38         4.3179   55.2475   24.7008 H         1 UNK         0.0000 
     39 H39         2.0905   54.3438   24.5864 H         1 UNK         0.0000 
     40 H40         5.5032   52.8565   21.3650 H         1 UNK         0.0000 
     41 H41         4.1992   51.1689   20.4967 H         1 UNK         0.0000 
     42 H42         2.8523   50.5743   21.4399 H         1 UNK         0.0000 
     43 H43         2.5783   51.8133   20.2167 H         1 UNK         0.0000 
     44 H44         0.6959   53.2906   25.6614 H         1 UNK         0.0000 
     45 H45         2.0338   52.0967   25.7138 H         1 UNK         0.0000 
     46 H46        -0.3541   50.0698   24.0338 H         1 UNK         0.0000 
     47 H47        -1.4135   51.2999   23.4132 H         1 UNK         0.0000 
     48 H48        -2.5501   52.5398   26.7963 H         1 UNK         0.0000 
     49 H49        -1.7151   53.2967   25.4786 H         1 UNK         0.0000 
     50 H50        -4.2045   53.0299   25.0357 H         1 UNK         0.0000 
     51 H51        -3.2398   52.2370   23.7812 H         1 UNK         0.0000 
     52 H52        -4.5678   50.9758   26.1024 H         1 UNK         0.0000 
     53 H53        -3.8352   48.8290   25.4922 H         1 UNK         0.0000 
     54 H54        -2.9408   49.5120   24.1147 H         1 UNK         0.0000 
     55 H55        -1.4155   49.0756   26.0858 H         1 UNK         0.0000 
     56 H56        -2.3716   50.0938   27.1355 H         1 UNK         0.0000 
     57 H57        -0.1872   50.3246   28.8358 H         1 UNK         0.0000 
     58 H58        -0.8953   51.1708   30.8811 H         1 UNK         0.0000 
     59 H59        -0.9572   52.7652   30.1750 H         1 UNK         0.0000 
     60 H60         1.5164   51.4648   31.3914 H         1 UNK         0.0000 
     61 H61         0.6867   52.8430   31.9510 H         1 UNK         0.0000 
     62 H62         3.2377   51.5508   29.7644 H         1 UNK         0.0000 
     63 H63         4.4226   55.2968   28.1146 H         1 UNK         0.0000 
     64 H64         2.4712   56.3918   29.1410 H         1 UNK         0.0000 
     65 H65        -0.3633   54.8840   30.4841 H         1 UNK         0.0000 
     66 H66         0.7040   55.2464   31.8393 H         1 UNK         0.0000 
     67 H67         0.5670   56.3776   30.4903 H         1 UNK         0.0000 
     68 H68         6.0636   53.4367   28.4200 H         1 UNK         0.0000 
     69 H69         5.0949   52.4973   27.2776 H         1 UNK         0.0000 
     70 H70         5.5036   51.8491   28.8815 H         1 UNK         0.0000 
     71 H71        -4.9505   50.7602   24.5424 H         1 UNK         0.0000 
@<TRIPOS>BOND
     1    1    2 1    
     2    1   35 1    
     3    1   36 1    
     4    1   37 1    
     5    2    7 ar   
     6    2    3 ar   
     7    3    4 ar   
     8    3   38 1    
     9    4    5 ar   
    10    4   39 1    
    11    5    6 ar   
    12    5    9 1    
    13    6    7 ar   
    14    6    8 1    
    15    7   40 1    
    16    8   41 1    
    17    8   42 1    
    18    8   43 1    
    19    9   10 2    
    20    9   11 am   BACKBONE|DICT|INTERRES
    21   11   16 1    
    22   11   12 1    
    23   12   13 1    
    24   12   44 1    
    25   12   45 1    
    26   13   14 1    
    27   13   15 1    
    28   13   22 1    
    29   15   21 1    
    30   15   16 1    
    31   15   17 1    
    32   16   46 1    
    33   16   47 1    
    34   17   18 1    
    35   17   48 1    
    36   17   49 1    
    37   18   19 1    
    38   18   50 1    
    39   18   51 1    
    40   19   20 1    
    41   19   52 1    
    42   19   71 1    
    43   20   21 1    
    44   20   53 1    
    45   20   54 1    
    46   21   55 1    
    47   21   56 1    
    48   22   23 2    
    49   22   24 am   BACKBONE|DICT|INTERRES
    50   24   25 1    
    51   24   57 1    
    52   25   26 1    
    53   25   58 1    
    54   25   59 1    
    55   26   27 1    
    56   26   60 1    
    57   26   61 1    
    58   27   32 ar   
    59   27   28 ar   
    60   28   29 ar   
    61   28   62 1    
    62   29   30 ar   
    63   29   34 1    
    64   30   31 ar   
    65   30   63 1    
    66   31   32 ar   
    67   31   64 1    
    68   32   33 1    
    69   33   65 1    
    70   33   66 1    
    71   33   67 1    
    72   34   68 1    
    73   34   69 1    
    74   34   70 1    
@<TRIPOS>SUBSTRUCTURE
     1 UNK         1 GROUP             0       ****    0 ROOT    
