@<TRIPOS>MOLECULE
ZINC00866988_4953
56   59    1
SMALL
USER_CHARGES


@<TRIPOS>ATOM
      1 C1         11.5728   53.9368   17.1036 C.3       1 UNK         0.0000 
      2 C2         10.4504   54.9293   16.7679 C.3       1 UNK         0.0000 
      3 H3         10.6467   55.3597   15.7840 H         1 UNK         0.0000 
      4 C4          9.0797   54.2496   16.7212 C.ar      1 UNK         0.0000 
      5 C5          8.7109   53.5257   15.5823 C.ar      1 UNK         0.0000 
      6 C6          7.4897   52.8548   15.5339 C.ar      1 UNK         0.0000 
      7 C7          6.6234   52.9007   16.6249 C.ar      1 UNK         0.0000 
      8 C8          6.9639   53.6286   17.7666 C.ar      1 UNK         0.0000 
      9 C9          8.1992   54.2967   17.8107 C.ar      1 UNK         0.0000 
     10 N10         6.0772   53.5697   18.8573 N.am      1 UNK         0.0000 
     11 C11         5.9044   54.4980   19.8278 C.2       1 UNK         0.0000 
     12 O12         6.4578   55.6001   19.8293 O.2       1 UNK         0.0000 
     13 C13         5.0446   54.0894   20.9235 C.ar      1 UNK         0.0000 
     14 C14         5.2710   54.3819   22.2267 C.ar      1 UNK         0.0000 
     15 C15         4.1486   53.8776   22.9551 C.ar      1 UNK         0.0000 
     16 N16         3.8292   54.1058   24.1725 N.2       1 UNK         0.0000 
     17 C17         2.5378   53.6377   24.7107 C.3       1 UNK         0.0000 
     18 H18         1.8715   54.4995   24.6898 H         1 UNK         0.0000 
     19 C19         1.8519   52.5309   23.8386 C.3       1 UNK         0.0000 
     20 C20         2.0124   52.7870   22.3128 C.3       1 UNK         0.0000 
     21 H21         1.5035   53.7225   22.0748 H         1 UNK         0.0000 
     22 N22         3.4392   53.0344   22.0582 N.pl3     1 UNK         0.0000 
     23 N23         3.8652   53.3735   20.7430 N.pl3     1 UNK         0.0000 
     24 C24         1.3879   51.6548   21.4541 C.3       1 UNK         0.0000 
     25 F25         1.9979   50.4857   21.6584 F         1 UNK         0.0000 
     26 F26         0.0989   51.4889   21.7541 F         1 UNK         0.0000 
     27 F27         1.4488   51.9186   20.1484 F         1 UNK         0.0000 
     28 C28         2.6061   53.3067   26.2220 C.ar      1 UNK         0.0000 
     29 C29         1.5152   52.6920   26.8524 C.ar      1 UNK         0.0000 
     30 C30         1.5794   52.3326   28.1967 C.ar      1 UNK         0.0000 
     31 C31         2.7240   52.5915   28.9487 C.ar      1 UNK         0.0000 
     32 C32         3.7958   53.2643   28.3448 C.ar      1 UNK         0.0000 
     33 C33         3.7338   53.6205   26.9995 C.ar      1 UNK         0.0000 
     34 O34         2.7164   52.1503   30.2590 O.3       1 UNK         0.0000 
     35 C35         3.9046   52.2554   31.0353 C.3       1 UNK         0.0000 
     36 Cl36        6.6110   55.2924   22.9509 Cl        1 UNK         0.0000 
     37 O37        10.5301   56.0067   17.6815 O.3       1 UNK         0.0000 
     38 H38        11.6147   53.1298   16.3713 H         1 UNK         0.0000 
     39 H39        12.5497   54.4219   17.1082 H         1 UNK         0.0000 
     40 H40        11.4205   53.4799   18.0808 H         1 UNK         0.0000 
     41 H41         9.3791   53.4684   14.7351 H         1 UNK         0.0000 
     42 H42         7.2192   52.2862   14.6563 H         1 UNK         0.0000 
     43 H43         5.6911   52.3540   16.5808 H         1 UNK         0.0000 
     44 H44         8.5018   54.8245   18.7022 H         1 UNK         0.0000 
     45 H45         5.5060   52.7374   18.8802 H         1 UNK         0.0000 
     46 H46         2.3041   51.5691   24.0840 H         1 UNK         0.0000 
     47 H47         0.7937   52.4551   24.0873 H         1 UNK         0.0000 
     48 H48         3.7945   52.5346   20.1796 H         1 UNK         0.0000 
     49 H49         0.6147   52.4605   26.3045 H         1 UNK         0.0000 
     50 H50         0.7410   51.8283   28.6553 H         1 UNK         0.0000 
     51 H51         4.6944   53.4989   28.8942 H         1 UNK         0.0000 
     52 H52         4.5886   54.1162   26.5647 H         1 UNK         0.0000 
     53 H53         4.7244   51.6970   30.5825 H         1 UNK         0.0000 
     54 H54         4.2128   53.2930   31.1631 H         1 UNK         0.0000 
     55 H55         3.7280   51.8399   32.0280 H         1 UNK         0.0000 
     56 H56        11.0733   55.7396   18.4331 H         1 UNK         0.0000 
@<TRIPOS>BOND
     1    1    2 1    
     2    1   38 1    
     3    1   39 1    
     4    1   40 1    
     5    2    3 1    
     6    2    4 1    
     7    2   37 1    
     8    4    9 ar   
     9    4    5 ar   
    10    5    6 ar   
    11    5   41 1    
    12    6    7 ar   
    13    6   42 1    
    14    7    8 ar   
    15    7   43 1    
    16    8    9 ar   
    17    8   10 1    
    18    9   44 1    
    19   10   11 am   BACKBONE|DICT|INTERRES
    20   10   45 1    
    21   11   12 2    
    22   11   13 1    
    23   13   23 ar   
    24   13   14 ar   
    25   14   15 ar   
    26   14   36 1    
    27   15   22 ar   
    28   15   16 2    
    29   16   17 1    
    30   17   18 1    
    31   17   19 1    
    32   17   28 1    
    33   19   20 1    
    34   19   46 1    
    35   19   47 1    
    36   20   21 1    
    37   20   22 1    
    38   20   24 1    
    39   22   23 1    
    40   23   48 1    
    41   24   25 1    
    42   24   26 1    
    43   24   27 1    
    44   28   33 ar   
    45   28   29 ar   
    46   29   30 ar   
    47   29   49 1    
    48   30   31 ar   
    49   30   50 1    
    50   31   32 ar   
    51   31   34 1    
    52   32   33 ar   
    53   32   51 1    
    54   33   52 1    
    55   34   35 1    
    56   35   53 1    
    57   35   54 1    
    58   35   55 1    
    59   37   56 1    
@<TRIPOS>SUBSTRUCTURE
     1 UNK         1 GROUP             0       ****    0 ROOT    
