ZINC37835134_1634
                    3D
 Schrodinger Suite 2024-2.
 44 45  0  0  1  0            999 V2000
    5.1264   54.3709   25.6898 C   0  0  0  0  0  0
    6.1069   54.4896   26.8809 C   0  0  0  0  0  0
    5.7304   53.5096   28.0077 C   0  0  0  0  0  0
    4.2694   53.7667   28.4546 C   0  0  1  0  0  0
    4.2059   54.8027   28.7959 H   0  0  0  0  0  0
    3.2883   53.5168   27.2641 C   0  0  2  0  0  0
    3.4104   52.5135   26.8665 H   0  0  0  0  0  0
    3.6384   54.4967   26.1046 C   0  0  0  0  0  0
    1.8027   53.7427   27.6875 C   0  0  0  0  0  0
    1.4491   54.8957   27.9520 O   0  0  0  0  0  0
    0.9268   52.7018   27.7126 N   0  0  0  0  0  0
    1.3092   51.2822   27.6863 C   0  0  0  0  0  0
    0.6798   50.6764   26.4136 C   0  0  0  0  0  0
   -0.8625   50.8333   26.4100 C   0  0  0  0  0  0
   -1.2136   52.3204   26.6542 C   0  0  0  0  0  0
   -0.5152   52.9145   27.9048 C   0  0  0  0  0  0
   -1.5657   50.2898   25.1341 C   0  0  0  0  0  0
   -1.2512   48.8392   24.7400 C   0  0  0  0  0  0
   -0.9858   48.5503   23.5770 O   0  0  0  0  0  0
   -1.2956   47.9029   25.6817 N   0  0  0  0  0  0
    3.9089   52.8900   29.6770 C   0  0  0  0  0  0
    4.2817   51.6967   29.7033 O   0  0  0  0  0  0
    3.1044   53.3974   30.4817 O   0  5  0  0  0  0
    5.3654   55.1273   24.9410 H   0  0  0  0  0  0
    5.2798   53.4084   25.2000 H   0  0  0  0  0  0
    6.1079   55.5105   27.2646 H   0  0  0  0  0  0
    7.1243   54.2909   26.5431 H   0  0  0  0  0  0
    6.4269   53.6353   28.8391 H   0  0  0  0  0  0
    5.8452   52.4967   27.6249 H   0  0  0  0  0  0
    3.0492   54.2752   25.2128 H   0  0  0  0  0  0
    3.5057   55.5344   26.4082 H   0  0  0  0  0  0
    0.8472   50.8381   28.5682 H   0  0  0  0  0  0
    2.3646   51.0768   27.8394 H   0  0  0  0  0  0
    0.9532   49.6237   26.3294 H   0  0  0  0  0  0
    1.1044   51.1494   25.5265 H   0  0  0  0  0  0
   -1.2363   50.2949   27.2817 H   0  0  0  0  0  0
   -0.9388   52.8967   25.7713 H   0  0  0  0  0  0
   -2.2944   52.4385   26.7371 H   0  0  0  0  0  0
   -0.8182   52.3690   28.8001 H   0  0  0  0  0  0
   -0.7744   53.9592   28.0817 H   0  0  0  0  0  0
   -1.2982   50.9224   24.2865 H   0  0  0  0  0  0
   -2.6473   50.3737   25.2409 H   0  0  0  0  0  0
   -1.4039   48.1380   26.6730 H   0  0  0  0  0  0
   -1.0469   46.9567   25.4488 H   0  0  0  0  0  0
  1  8  1  0  0  0
  1  2  1  0  0  0
  1 24  1  0  0  0
  1 25  1  0  0  0
  2  3  1  0  0  0
  2 26  1  0  0  0
  2 27  1  0  0  0
  3  4  1  0  0  0
  3 28  1  0  0  0
  3 29  1  0  0  0
  4  5  1  0  0  0
  4  6  1  0  0  0
  4 21  1  0  0  0
  6  7  1  0  0  0
  6  8  1  0  0  0
  6  9  1  0  0  0
  8 30  1  0  0  0
  8 31  1  0  0  0
  9 10  2  0  0  0
  9 11  1  0  0  0
 11 16  1  0  0  0
 11 12  1  0  0  0
 12 13  1  0  0  0
 12 32  1  0  0  0
 12 33  1  0  0  0
 13 14  1  0  0  0
 13 34  1  0  0  0
 13 35  1  0  0  0
 14 15  1  0  0  0
 14 17  1  0  0  0
 14 36  1  0  0  0
 15 16  1  0  0  0
 15 37  1  0  0  0
 15 38  1  0  0  0
 16 39  1  0  0  0
 16 40  1  0  0  0
 17 18  1  0  0  0
 17 41  1  0  0  0
 17 42  1  0  0  0
 18 19  2  0  0  0
 18 20  1  0  0  0
 20 43  1  0  0  0
 20 44  1  0  0  0
 21 22  2  0  0  0
 21 23  1  0  0  0
M  CHG  1  23  -1
M  END
> <i_i_glide_confnum>
7

> <i_i_glide_lignum>
1635

> <i_i_glide_posenum>
19

> <i_i_glide_rotatable_bonds>
5

> <i_m_Source_File_Index>
2706

> <b_m_subgroup_collapsed>
0

> <r_i_docking_score>
-6.59545

> <r_i_glide_ecoul>
-11.4027

> <r_i_glide_eff_state_penalty>
0

> <r_i_glide_einternal>
3.24238

> <r_i_glide_emodel>
-50.4329

> <r_i_glide_energy>
-35.042

> <r_i_glide_erotb>
0.629445

> <r_i_glide_esite>
-0.147106

> <r_i_glide_evdw>
-23.6393

> <r_i_glide_gscore>
-6.59545

> <r_i_glide_hbond>
-0.345709

> <r_i_glide_ligand_efficiency>
-0.314069

> <r_i_glide_ligand_efficiency_ln>
-1.63071

> <r_i_glide_ligand_efficiency_sa>
-0.866493

> <r_i_glide_lipo>
-1.68663

> <r_i_glide_metal>
0

> <r_i_glide_rewards>
-2.15308

> <s_i_glide_gridfile>
wee1_glide-grid

> <s_m_Source_File>
wee1_decoys_glide_SP.sdf

> <s_m_Source_Path>
/Users/zhangxujun/Desktop

> <s_m_entry_id>
2981

> <s_m_entry_name>
wee1_decoys_glide_SP.2706

> <s_m_subgroup_title>
wee1_decoys_glide_SP

> <s_m_subgroupid>
wee1_decoys_glide_SP


$$$$
