@<TRIPOS>MOLECULE
ZINC51994043_4752
36   37    1
SMALL
USER_CHARGES


@<TRIPOS>ATOM
      1 C1          0.2004   51.5053   27.2141 C.ar      1 UNK         0.0000 
      2 C2          1.4007   51.9314   27.7774 C.ar      1 UNK         0.0000 
      3 C3          1.4692   52.3119   29.1211 C.ar      1 UNK         0.0000 
      4 C4          0.3226   52.1837   29.9230 C.ar      1 UNK         0.0000 
      5 C5         -0.8634   51.7145   29.3625 C.ar      1 UNK         0.0000 
      6 C6         -0.9400   51.4167   28.0049 C.ar      1 UNK         0.0000 
      7 Br7        -2.6001   50.8978   27.2338 Br        1 UNK         0.0000 
      8 N8          0.3256   52.4978   31.2821 N.pl3     1 UNK         0.0000 
      9 S9          3.0077   52.9446   29.8032 S.o2      1 UNK         0.0000 
     10 O10         2.7954   54.3687   30.0806 O.2       1 UNK         0.0000 
     11 O11         3.3755   52.0292   30.8878 O.2       1 UNK         0.0000 
     12 N12         4.2681   52.8054   28.5820 N.pl3     1 UNK         0.0000 
     13 C13         4.7120   53.9600   27.7579 C.3       1 UNK         0.0000 
     14 H14         4.5317   54.9107   28.2613 H         1 UNK         0.0000 
     15 C15         3.8165   53.9584   26.4911 C.3       1 UNK         0.0000 
     16 C16         4.3214   54.8965   25.3809 C.3       1 UNK         0.0000 
     17 C17         5.8014   54.6603   25.0417 C.3       1 UNK         0.0000 
     18 C18         6.6721   54.7002   26.3072 C.3       1 UNK         0.0000 
     19 C19         6.1903   53.6963   27.3696 C.3       1 UNK         0.0000 
     20 H20         6.2447   52.7019   26.9318 H         1 UNK         0.0000 
     21 O21         7.0632   53.7011   28.4811 O.3       1 UNK         0.0000 
     22 H22         0.1534   51.2369   26.1690 H         1 UNK         0.0000 
     23 H23         2.2726   51.9608   27.1537 H         1 UNK         0.0000 
     24 H24        -1.7309   51.5785   29.9839 H         1 UNK         0.0000 
     25 H25         1.2172   52.6579   31.7282 H         1 UNK         0.0000 
     26 H26        -0.4501   52.1657   31.8631 H         1 UNK         0.0000 
     27 H27         5.0324   52.1806   28.8530 H         1 UNK         0.0000 
     28 H28         3.8017   52.9570   26.0584 H         1 UNK         0.0000 
     29 H29         2.7862   54.2064   26.7499 H         1 UNK         0.0000 
     30 H30         4.1959   55.9310   25.6881 H         1 UNK         0.0000 
     31 H31         3.7110   54.7752   24.4845 H         1 UNK         0.0000 
     32 H32         6.1459   55.4082   24.3266 H         1 UNK         0.0000 
     33 H33         5.9154   53.6932   24.5482 H         1 UNK         0.0000 
     34 H34         6.6461   55.7061   26.7246 H         1 UNK         0.0000 
     35 H35         7.7032   54.4976   26.0391 H         1 UNK         0.0000 
     36 H36         7.1047   54.5926   28.8528 H         1 UNK         0.0000 
@<TRIPOS>BOND
     1    1    6 ar   
     2    1    2 ar   
     3    1   22 1    
     4    2    3 ar   
     5    2   23 1    
     6    3    4 ar   
     7    3    9 1    
     8    4    5 ar   
     9    4    8 1    
    10    5    6 ar   
    11    5   24 1    
    12    6    7 1    
    13    8   25 1    
    14    8   26 1    
    15    9   10 2    
    16    9   11 2    
    17    9   12 1    
    18   12   13 1    
    19   12   27 1    
    20   13   14 1    
    21   13   19 1    
    22   13   15 1    
    23   15   16 1    
    24   15   28 1    
    25   15   29 1    
    26   16   17 1    
    27   16   30 1    
    28   16   31 1    
    29   17   18 1    
    30   17   32 1    
    31   17   33 1    
    32   18   19 1    
    33   18   34 1    
    34   18   35 1    
    35   19   20 1    
    36   19   21 1    
    37   21   36 1    
@<TRIPOS>SUBSTRUCTURE
     1 UNK         1 GROUP             0       ****    0 ROOT    
