ZINC31991958_2873
                    3D
 Schrodinger Suite 2024-2.
 66 68  0  0  1  0            999 V2000
    7.7638   58.6393   17.8652 C   0  0  0  0  0  0
    6.6241   57.8217   17.2791 C   0  0  0  0  0  0
    5.5927   58.4961   16.6202 C   0  0  0  0  0  0
    4.4971   57.8063   16.1083 C   0  0  0  0  0  0
    4.4186   56.4098   16.2116 C   0  0  0  0  0  0
    5.4806   55.7377   16.8341 C   0  0  0  0  0  0
    6.5634   56.4216   17.3939 C   0  0  0  0  0  0
    7.8152   55.4641   18.2747 S   0  0  0  0  0  0
    7.5507   54.0374   18.0540 O   0  0  0  0  0  0
    9.1286   56.0321   17.9575 O   0  0  0  0  0  0
    7.5349   55.7973   19.9990 N   0  0  0  0  0  0
    6.5552   55.1590   20.7739 C   0  0  0  0  0  0
    5.4556   54.5072   20.2040 C   0  0  0  0  0  0
    4.5320   53.8416   21.0003 C   0  0  0  0  0  0
    4.6872   53.8306   22.3816 C   0  0  0  0  0  0
    5.7672   54.4967   22.9920 C   0  0  0  0  0  0
    6.6989   55.1522   22.1648 C   0  0  0  0  0  0
    5.9265   54.5368   24.5000 C   0  0  0  0  0  0
    6.9674   54.9706   24.9980 O   0  0  0  0  0  0
    4.8501   54.1138   25.2081 N   0  0  0  0  0  0
    4.6073   54.0742   26.5992 C   0  0  0  0  0  0
    5.5403   54.5561   27.5261 C   0  0  0  0  0  0
    5.2802   54.4966   28.8816 C   0  0  0  0  0  0
    4.1104   53.9215   29.3441 C   0  0  0  0  0  0
    3.1468   53.4218   28.4620 C   0  0  0  0  0  0
    3.3839   53.5207   27.0614 C   0  0  0  0  0  0
    2.3645   52.9848   26.0393 C   0  0  0  0  0  0
    1.9374   52.7660   29.0985 C   0  0  0  0  0  0
    2.0746   52.0969   30.1254 O   0  0  0  0  0  0
    0.7398   52.9896   28.5332 N   0  0  0  0  0  0
   -0.4984   52.3703   28.9955 C   0  0  0  0  0  0
    3.2060   55.6009   15.6904 C   0  0  0  0  0  0
    2.0759   56.4936   15.1120 C   0  0  0  0  0  0
    2.5900   54.7764   16.8515 C   0  0  0  0  0  0
    3.6668   54.6401   14.5680 C   0  0  0  0  0  0
    7.5117   59.6972   17.9146 H   0  0  0  0  0  0
    7.9880   58.3218   18.8817 H   0  0  0  0  0  0
    8.6666   58.5216   17.2634 H   0  0  0  0  0  0
    5.6206   59.5722   16.5087 H   0  0  0  0  0  0
    3.7207   58.3864   15.6337 H   0  0  0  0  0  0
    5.4484   54.6601   16.8994 H   0  0  0  0  0  0
    8.2663   56.3056   20.4690 H   0  0  0  0  0  0
    5.3061   54.4856   19.1416 H   0  0  0  0  0  0
    3.6934   53.3356   20.5418 H   0  0  0  0  0  0
    3.9445   53.2998   22.9561 H   0  0  0  0  0  0
    7.5444   55.6606   22.6071 H   0  0  0  0  0  0
    4.0770   53.7854   24.6552 H   0  0  0  0  0  0
    6.4770   55.0055   27.2448 H   0  0  0  0  0  0
    5.9918   54.8960   29.5853 H   0  0  0  0  0  0
    3.9662   53.8644   30.4133 H   0  0  0  0  0  0
    1.8533   52.0968   26.4078 H   0  0  0  0  0  0
    1.6188   53.7461   25.8057 H   0  0  0  0  0  0
    2.8218   52.6485   25.1093 H   0  0  0  0  0  0
    0.6867   53.5988   27.7318 H   0  0  0  0  0  0
   -1.2890   52.4964   28.2538 H   0  0  0  0  0  0
   -0.3672   51.3005   29.1630 H   0  0  0  0  0  0
   -0.8270   52.8200   29.9307 H   0  0  0  0  0  0
    1.2303   55.8958   14.7678 H   0  0  0  0  0  0
    2.4161   57.0759   14.2534 H   0  0  0  0  0  0
    1.6891   57.1898   15.8589 H   0  0  0  0  0  0
    3.2865   54.0380   17.2536 H   0  0  0  0  0  0
    2.2858   55.4202   17.6809 H   0  0  0  0  0  0
    1.7043   54.2279   16.5268 H   0  0  0  0  0  0
    4.4084   53.9203   14.9199 H   0  0  0  0  0  0
    2.8341   54.0630   14.1636 H   0  0  0  0  0  0
    4.1140   55.1885   13.7366 H   0  0  0  0  0  0
  1  2  1  0  0  0
  1 36  1  0  0  0
  1 37  1  0  0  0
  1 38  1  0  0  0
  2  7  2  0  0  0
  2  3  1  0  0  0
  3  4  2  0  0  0
  3 39  1  0  0  0
  4  5  1  0  0  0
  4 40  1  0  0  0
  5  6  2  0  0  0
  5 32  1  0  0  0
  6  7  1  0  0  0
  6 41  1  0  0  0
  7  8  1  0  0  0
  8  9  2  0  0  0
  8 10  2  0  0  0
  8 11  1  0  0  0
 11 12  1  0  0  0
 11 42  1  0  0  0
 12 17  2  0  0  0
 12 13  1  0  0  0
 13 14  2  0  0  0
 13 43  1  0  0  0
 14 15  1  0  0  0
 14 44  1  0  0  0
 15 16  2  0  0  0
 15 45  1  0  0  0
 16 17  1  0  0  0
 16 18  1  0  0  0
 17 46  1  0  0  0
 18 19  2  0  0  0
 18 20  1  0  0  0
 20 21  1  0  0  0
 20 47  1  0  0  0
 21 26  2  0  0  0
 21 22  1  0  0  0
 22 23  2  0  0  0
 22 48  1  0  0  0
 23 24  1  0  0  0
 23 49  1  0  0  0
 24 25  2  0  0  0
 24 50  1  0  0  0
 25 26  1  0  0  0
 25 28  1  0  0  0
 26 27  1  0  0  0
 27 51  1  0  0  0
 27 52  1  0  0  0
 27 53  1  0  0  0
 28 29  2  0  0  0
 28 30  1  0  0  0
 30 31  1  0  0  0
 30 54  1  0  0  0
 31 55  1  0  0  0
 31 56  1  0  0  0
 31 57  1  0  0  0
 32 33  1  0  0  0
 32 34  1  0  0  0
 32 35  1  0  0  0
 33 58  1  0  0  0
 33 59  1  0  0  0
 33 60  1  0  0  0
 34 61  1  0  0  0
 34 62  1  0  0  0
 34 63  1  0  0  0
 35 64  1  0  0  0
 35 65  1  0  0  0
 35 66  1  0  0  0
M  END
> <i_i_glide_confnum>
137

> <i_i_glide_lignum>
2874

> <i_i_glide_posenum>
348

> <i_i_glide_rotatable_bonds>
9

> <i_m_Source_File_Index>
197

> <b_m_subgroup_collapsed>
0

> <r_i_docking_score>
-5.664

> <r_i_glide_ecoul>
-4.19543

> <r_i_glide_eff_state_penalty>
0

> <r_i_glide_einternal>
3.02387

> <r_i_glide_emodel>
-68.1858

> <r_i_glide_energy>
-51.4967

> <r_i_glide_erotb>
0.585282

> <r_i_glide_esite>
-0.00163679

> <r_i_glide_evdw>
-47.3013

> <r_i_glide_gscore>
-5.664

> <r_i_glide_hbond>
-0.389409

> <r_i_glide_ligand_efficiency>
-0.161829

> <r_i_glide_ligand_efficiency_ln>
-1.24337

> <r_i_glide_ligand_efficiency_sa>
-0.529352

> <r_i_glide_lipo>
-2.24256

> <r_i_glide_metal>
0

> <r_i_glide_rewards>
-0.6213

> <s_i_glide_gridfile>
wee1_glide-grid

> <s_m_Source_File>
wee1_decoys_glide_SP.sdf

> <s_m_Source_Path>
/Users/zhangxujun/Desktop

> <s_m_entry_id>
472

> <s_m_entry_name>
wee1_decoys_glide_SP.197

> <s_m_subgroup_title>
wee1_decoys_glide_SP

> <s_m_subgroupid>
wee1_decoys_glide_SP


$$$$
