@<TRIPOS>MOLECULE
ZINC40038601_4149
71   74    1
SMALL
USER_CHARGES


@<TRIPOS>ATOM
      1 C1          9.6879   61.4321   17.0938 C.3       1 UNK         0.0000 
      2 C2          9.5417   60.1073   17.8573 C.3       1 UNK         0.0000 
      3 C3          9.9011   58.8892   16.9793 C.3       1 UNK         0.0000 
      4 C4          9.8766   57.5343   17.7196 C.3       1 UNK         0.0000 
      5 C5          8.5417   56.7496   17.6719 C.3       1 UNK         0.0000 
      6 C6          7.3345   57.5161   18.2691 C.3       1 UNK         0.0000 
      7 C7          6.0312   56.6808   18.2915 C.3       1 UNK         0.0000 
      8 C8          6.1388   55.2432   18.8785 C.3       1 UNK         0.0000 
      9 C9          7.3936   54.5476   18.2827 C.3       1 UNK         0.0000 
     10 C10         8.6998   55.3661   18.3456 C.3       1 UNK         0.0000 
     11 C11         6.2663   55.3050   20.4268 C.2       1 UNK         0.0000 
     12 O12         7.1114   56.0302   20.9554 O.2       1 UNK         0.0000 
     13 N13         5.3785   54.5563   21.1197 N.am      1 UNK         0.0000 
     14 C14         5.2691   54.4212   22.5060 C.2       1 UNK         0.0000 
     15 C15         4.1329   53.9716   23.2044 C.2       1 UNK         0.0000 
     16 C16         4.2863   54.0965   24.6096 C.2       1 UNK         0.0000 
     17 C17         5.5832   54.4889   24.9741 C.2       1 UNK         0.0000 
     18 S18         6.5746   54.8120   23.6003 S.3       1 UNK         0.0000 
     19 C19         6.0899   54.6423   26.4024 C.3       1 UNK         0.0000 
     20 C20         5.1509   53.8576   27.3478 C.3       1 UNK         0.0000 
     21 H21         5.3123   52.7901   27.1845 H         1 UNK         0.0000 
     22 C22         3.6826   54.2300   27.0636 C.3       1 UNK         0.0000 
     23 C23         3.2177   53.7750   25.6657 C.3       1 UNK         0.0000 
     24 C24         5.5216   54.1408   28.8127 C.3       1 UNK         0.0000 
     25 C25         2.9175   53.4980   22.5820 C.2       1 UNK         0.0000 
     26 O26         1.8093   53.9146   22.9177 O.2       1 UNK         0.0000 
     27 N27         3.1159   52.5229   21.6742 N.am      1 UNK         0.0000 
     28 C28         2.0647   51.8057   20.9495 C.3       1 UNK         0.0000 
     29 H29         1.4385   52.4900   20.3711 H         1 UNK         0.0000 
     30 C30         1.1493   51.0063   21.9179 C.3       1 UNK         0.0000 
     31 C31         0.2600   50.0582   21.1051 C.3       1 UNK         0.0000 
     32 S32         1.3708   49.4435   19.7327 S.o2      1 UNK         0.0000 
     33 O33         1.9051   48.1243   20.0834 O.2       1 UNK         0.0000 
     34 O34         0.6822   49.6569   18.4571 O.2       1 UNK         0.0000 
     35 C35         2.6838   50.7581   20.0027 C.3       1 UNK         0.0000 
     36 H36         9.3249   62.2750   17.6839 H         1 UNK         0.0000 
     37 H37         9.1130   61.4170   16.1637 H         1 UNK         0.0000 
     38 H38        10.7318   61.6261   16.8353 H         1 UNK         0.0000 
     39 H39        10.1832   60.1152   18.7409 H         1 UNK         0.0000 
     40 H40         8.5205   60.0327   18.2328 H         1 UNK         0.0000 
     41 H41         9.2519   58.8474   16.1013 H         1 UNK         0.0000 
     42 H42        10.9100   59.0427   16.5878 H         1 UNK         0.0000 
     43 H43        10.6468   56.9028   17.2726 H         1 UNK         0.0000 
     44 H44        10.1928   57.6694   18.7559 H         1 UNK         0.0000 
     45 H45         8.2894   56.5503   16.6276 H         1 UNK         0.0000 
     46 H46         7.5769   57.8372   19.2803 H         1 UNK         0.0000 
     47 H47         7.1604   58.4387   17.7151 H         1 UNK         0.0000 
     48 H48         5.2020   57.2179   18.7550 H         1 UNK         0.0000 
     49 H49         5.6384   56.5852   17.2772 H         1 UNK         0.0000 
     50 H50         5.2323   54.6729   18.6668 H         1 UNK         0.0000 
     51 H51         7.1626   54.2995   17.2453 H         1 UNK         0.0000 
     52 H52         7.5050   53.5430   18.6900 H         1 UNK         0.0000 
     53 H53         9.5100   54.8094   17.8709 H         1 UNK         0.0000 
     54 H54         9.0306   55.4876   19.3786 H         1 UNK         0.0000 
     55 H55         4.6133   54.1697   20.5867 H         1 UNK         0.0000 
     56 H56         7.1122   54.2733   26.4963 H         1 UNK         0.0000 
     57 H57         6.1051   55.6963   26.6725 H         1 UNK         0.0000 
     58 H58         3.0360   53.7684   27.8113 H         1 UNK         0.0000 
     59 H59         3.5283   55.2966   27.2056 H         1 UNK         0.0000 
     60 H60         2.2710   54.2623   25.4351 H         1 UNK         0.0000 
     61 H61         3.0165   52.7048   25.6751 H         1 UNK         0.0000 
     62 H62         5.3924   55.1938   29.0695 H         1 UNK         0.0000 
     63 H63         4.8993   53.5538   29.4888 H         1 UNK         0.0000 
     64 H64         6.5638   53.8816   29.0022 H         1 UNK         0.0000 
     65 H65         4.0645   52.2518   21.4663 H         1 UNK         0.0000 
     66 H66         1.7606   50.4408   22.6246 H         1 UNK         0.0000 
     67 H67         0.5440   51.6704   22.5367 H         1 UNK         0.0000 
     68 H68        -0.2129   49.2252   21.6246 H         1 UNK         0.0000 
     69 H69        -0.5244   50.6497   20.6335 H         1 UNK         0.0000 
     70 H70         3.1959   51.0667   19.0912 H         1 UNK         0.0000 
     71 H71         3.4264   50.2136   20.5838 H         1 UNK         0.0000 
@<TRIPOS>BOND
     1    1    2 1    
     2    1   36 1    
     3    1   37 1    
     4    1   38 1    
     5    2    3 1    
     6    2   39 1    
     7    2   40 1    
     8    3    4 1    
     9    3   41 1    
    10    3   42 1    
    11    4    5 1    
    12    4   43 1    
    13    4   44 1    
    14    5   10 1    
    15    5    6 1    
    16    5   45 1    
    17    6    7 1    
    18    6   46 1    
    19    6   47 1    
    20    7    8 1    
    21    7   48 1    
    22    7   49 1    
    23    8    9 1    
    24    8   11 1    
    25    8   50 1    
    26    9   10 1    
    27    9   51 1    
    28    9   52 1    
    29   10   53 1    
    30   10   54 1    
    31   11   12 2    
    32   11   13 am   BACKBONE|DICT|INTERRES
    33   13   14 am   BACKBONE|DICT|INTERRES
    34   13   55 1    
    35   14   18 1    
    36   14   15 2    
    37   15   16 1    
    38   15   25 1    
    39   16   23 1    
    40   16   17 2    
    41   17   18 1    
    42   17   19 1    
    43   19   20 1    
    44   19   56 1    
    45   19   57 1    
    46   20   21 1    
    47   20   22 1    
    48   20   24 1    
    49   22   23 1    
    50   22   58 1    
    51   22   59 1    
    52   23   60 1    
    53   23   61 1    
    54   24   62 1    
    55   24   63 1    
    56   24   64 1    
    57   25   26 2    
    58   25   27 am   BACKBONE|DICT|INTERRES
    59   27   28 1    
    60   27   65 1    
    61   28   29 1    
    62   28   35 1    
    63   28   30 1    
    64   30   31 1    
    65   30   66 1    
    66   30   67 1    
    67   31   32 1    
    68   31   68 1    
    69   31   69 1    
    70   32   33 2    
    71   32   34 2    
    72   32   35 1    
    73   35   70 1    
    74   35   71 1    
@<TRIPOS>SUBSTRUCTURE
     1 UNK         1 GROUP             0       ****    0 ROOT    
