@<TRIPOS>MOLECULE
ZINC58376881_2784
58   61    1
SMALL
USER_CHARGES


@<TRIPOS>ATOM
      1 C1          5.1823   54.7179   29.2818 C.3       1 UNK         0.0000 
      2 C2          4.0265   53.7738   29.6813 C.3       1 UNK         0.0000 
      3 H3          4.3050   53.2191   30.5756 H         1 UNK         0.0000 
      4 C4          3.5823   52.7497   28.6162 C.3       1 UNK         0.0000 
      5 N5          3.0354   53.4103   27.4172 N.pl3     1 UNK         0.0000 
      6 C6          1.8665   54.1854   27.9033 C.3       1 UNK         0.0000 
      7 C7          2.2756   55.2070   29.0102 C.3       1 UNK         0.0000 
      8 H8          2.9663   55.9523   28.6220 H         1 UNK         0.0000 
      9 O9          2.8606   54.4751   30.0816 O.3       1 UNK         0.0000 
     10 C10         1.1068   55.9724   29.6173 C.3       1 UNK         0.0000 
     11 C11         3.8150   53.7658   26.3067 C.ar      1 UNK         0.0000 
     12 C12         5.2186   53.6967   26.3567 C.ar      1 UNK         0.0000 
     13 C13         6.0199   54.0966   25.2933 C.ar      1 UNK         0.0000 
     14 C14         5.4405   54.4906   24.0947 C.ar      1 UNK         0.0000 
     15 C15         4.0406   54.4964   23.9885 C.ar      1 UNK         0.0000 
     16 C16         3.2405   54.1203   25.0707 C.ar      1 UNK         0.0000 
     17 F17         1.9002   54.0966   24.8839 F         1 UNK         0.0000 
     18 N18         6.3303   54.8969   23.0833 N.am      1 UNK         0.0000 
     19 C19         6.1993   54.9159   21.7428 C.2       1 UNK         0.0000 
     20 O20         7.0490   55.4983   21.0731 O.2       1 UNK         0.0000 
     21 N21         5.1446   54.2511   21.2279 N.am      1 UNK         0.0000 
     22 C22         4.7436   54.1405   19.8879 C.ar      1 UNK         0.0000 
     23 C23         5.1016   55.0498   18.8781 C.ar      1 UNK         0.0000 
     24 C24         4.6429   54.8700   17.5726 C.ar      1 UNK         0.0000 
     25 C25         3.8582   53.7530   17.2577 C.ar      1 UNK         0.0000 
     26 C26         3.4550   52.8856   18.2725 C.ar      1 UNK         0.0000 
     27 C27         3.8909   53.0782   19.5815 C.ar      1 UNK         0.0000 
     28 C28         2.4606   51.8947   17.7456 C.3       1 UNK         0.0000 
     29 C29         2.5494   52.0966   16.2415 C.3       1 UNK         0.0000 
     30 N30         3.2490   53.3723   16.0444 N.am      1 UNK         0.0000 
     31 C31         3.5277   53.8423   14.7992 C.2       1 UNK         0.0000 
     32 O32         4.2169   54.8398   14.5870 O.2       1 UNK         0.0000 
     33 C33         2.9548   53.1107   13.5807 C.3       1 UNK         0.0000 
     34 H34         6.1103   54.1667   29.1391 H         1 UNK         0.0000 
     35 H35         4.9971   55.2967   28.3824 H         1 UNK         0.0000 
     36 H36         5.3894   55.4256   30.0817 H         1 UNK         0.0000 
     37 H37         2.7824   52.1436   29.0461 H         1 UNK         0.0000 
     38 H38         4.3547   52.0060   28.4376 H         1 UNK         0.0000 
     39 H39         1.4104   54.6998   27.0663 H         1 UNK         0.0000 
     40 H40         1.1403   53.4713   28.2964 H         1 UNK         0.0000 
     41 H41         0.7044   56.6669   28.8826 H         1 UNK         0.0000 
     42 H42         0.3217   55.2970   29.9625 H         1 UNK         0.0000 
     43 H43         1.4316   56.5677   30.4719 H         1 UNK         0.0000 
     44 H44         5.7269   53.3172   27.2245 H         1 UNK         0.0000 
     45 H45         7.0947   54.0520   25.3973 H         1 UNK         0.0000 
     46 H46         3.5444   54.8175   23.0851 H         1 UNK         0.0000 
     47 H47         7.2354   55.2034   23.4096 H         1 UNK         0.0000 
     48 H48         4.6192   53.6868   21.8765 H         1 UNK         0.0000 
     49 H49         5.7163   55.9112   19.0883 H         1 UNK         0.0000 
     50 H50         4.9234   55.5952   16.8242 H         1 UNK         0.0000 
     51 H51         3.5647   52.4008   20.3571 H         1 UNK         0.0000 
     52 H52         1.4575   52.1474   18.0898 H         1 UNK         0.0000 
     53 H53         2.6481   50.8540   18.0165 H         1 UNK         0.0000 
     54 H54         1.6224   51.9375   15.6895 H         1 UNK         0.0000 
     55 H55         3.2394   51.3345   15.8720 H         1 UNK         0.0000 
     56 H56         3.3353   52.0903   13.5319 H         1 UNK         0.0000 
     57 H57         3.2425   53.6193   12.6601 H         1 UNK         0.0000 
     58 H58         1.8659   53.0831   13.6227 H         1 UNK         0.0000 
@<TRIPOS>BOND
     1    1    2 1    
     2    1   34 1    
     3    1   35 1    
     4    1   36 1    
     5    2    3 1    
     6    2    9 1    
     7    2    4 1    
     8    4    5 1    
     9    4   37 1    
    10    4   38 1    
    11    5    6 1    
    12    5   11 1    
    13    6    7 1    
    14    6   39 1    
    15    6   40 1    
    16    7    8 1    
    17    7    9 1    
    18    7   10 1    
    19   10   41 1    
    20   10   42 1    
    21   10   43 1    
    22   11   16 ar   
    23   11   12 ar   
    24   12   13 ar   
    25   12   44 1    
    26   13   14 ar   
    27   13   45 1    
    28   14   15 ar   
    29   14   18 1    
    30   15   16 ar   
    31   15   46 1    
    32   16   17 1    
    33   18   19 am   BACKBONE|DICT|INTERRES
    34   18   47 1    
    35   19   20 2    
    36   19   21 am   BACKBONE|DICT|INTERRES
    37   21   22 1    
    38   21   48 1    
    39   22   27 ar   
    40   22   23 ar   
    41   23   24 ar   
    42   23   49 1    
    43   24   25 ar   
    44   24   50 1    
    45   25   30 1    
    46   25   26 ar   
    47   26   27 ar   
    48   26   28 1    
    49   27   51 1    
    50   28   29 1    
    51   28   52 1    
    52   28   53 1    
    53   29   30 1    
    54   29   54 1    
    55   29   55 1    
    56   30   31 am   BACKBONE|DICT|INTERRES
    57   31   32 2    
    58   31   33 1    
    59   33   56 1    
    60   33   57 1    
    61   33   58 1    
@<TRIPOS>SUBSTRUCTURE
     1 UNK         1 GROUP             0       ****    0 ROOT    
