@<TRIPOS>MOLECULE
ZINC06281018_67
59   63    1
SMALL
USER_CHARGES


@<TRIPOS>ATOM
      1 C1         -6.2537   43.5844   25.6820 C.3       1 UNK         0.0000 
      2 C2         -5.2950   44.7595   25.7249 C.ar      1 UNK         0.0000 
      3 C3         -5.1946   45.6572   24.6588 C.ar      1 UNK         0.0000 
      4 C4         -4.2903   46.7195   24.7311 C.ar      1 UNK         0.0000 
      5 C5         -3.5046   46.8708   25.8892 C.ar      1 UNK         0.0000 
      6 N6         -3.6020   46.0009   26.9268 N.ar      1 UNK         0.0000 
      7 C7         -4.4836   44.9727   26.8400 C.ar      1 UNK         0.0000 
      8 N8         -2.5349   47.8718   26.0816 N.am      1 UNK         0.0000 
      9 C9         -2.1828   48.9002   25.2788 C.2       1 UNK         0.0000 
     10 O10        -2.7922   49.2133   24.2535 O.2       1 UNK         0.0000 
     11 C11        -0.9294   49.7158   25.7134 C.3       1 UNK         0.0000 
     12 C12         0.0010   50.0943   24.5251 C.2       1 UNK         0.0000 
     13 N13         0.6589   51.1920   24.4816 N.2       1 UNK         0.0000 
     14 C14         0.7730   51.9959   25.5779 C.2       1 UNK         0.0000 
     15 C15        -0.0495   51.9158   26.6650 C.2       1 UNK         0.0000 
     16 C16        -1.2887   50.9946   26.5787 C.3       1 UNK         0.0000 
     17 H17        -1.5164   50.6348   27.5865 H         1 UNK         0.0000 
     18 C18        -2.5531   51.7611   26.1310 C.ar      1 UNK         0.0000 
     19 C19        -2.5569   52.4956   24.9377 C.ar      1 UNK         0.0000 
     20 C20        -3.7043   53.1651   24.5214 C.ar      1 UNK         0.0000 
     21 C21        -4.8594   53.0984   25.2957 C.ar      1 UNK         0.0000 
     22 C22        -4.8709   52.3687   26.4818 C.ar      1 UNK         0.0000 
     23 C23        -3.7224   51.6965   26.8971 C.ar      1 UNK         0.0000 
     24 O24        -5.9964   53.7448   24.8876 O.3       1 UNK         0.0000 
     25 C25         0.2236   52.6733   27.9100 C.2       1 UNK         0.0000 
     26 O26        -0.4956   52.5957   28.9024 O.2       1 UNK         0.0000 
     27 C27         1.4639   53.5902   27.9251 C.3       1 UNK         0.0000 
     28 C28         2.5712   53.0699   26.9839 C.3       1 UNK         0.0000 
     29 H29         2.8208   52.0782   27.3471 H         1 UNK         0.0000 
     30 C30         2.0078   52.8967   25.5558 C.3       1 UNK         0.0000 
     31 C31         3.8968   53.8080   27.0551 C.2       1 UNK         0.0000 
     32 C32         4.5757   54.4898   28.0560 C.2       1 UNK         0.0000 
     33 C33         5.8435   54.7957   27.5559 C.2       1 UNK         0.0000 
     34 C34         5.8761   54.3263   26.2578 C.2       1 UNK         0.0000 
     35 O35         4.7028   53.7173   25.9620 O.3       1 UNK         0.0000 
     36 C36         0.2203   49.1443   23.3542 C.3       1 UNK         0.0000 
     37 H37        -6.9016   43.5979   26.5595 H         1 UNK         0.0000 
     38 H38        -5.7024   42.6437   25.7001 H         1 UNK         0.0000 
     39 H39        -6.8899   43.6037   24.7961 H         1 UNK         0.0000 
     40 H40        -5.8077   45.5357   23.7775 H         1 UNK         0.0000 
     41 H41        -4.2251   47.3917   23.8913 H         1 UNK         0.0000 
     42 H42        -4.4995   44.2954   27.6817 H         1 UNK         0.0000 
     43 H43        -2.0918   47.8658   27.0091 H         1 UNK         0.0000 
     44 H44        -0.3523   49.0341   26.3424 H         1 UNK         0.0000 
     45 H45        -1.6721   52.5498   24.3227 H         1 UNK         0.0000 
     46 H46        -3.6889   53.7320   23.6032 H         1 UNK         0.0000 
     47 H47        -5.7720   52.3147   27.0743 H         1 UNK         0.0000 
     48 H48        -3.7451   51.1224   27.8127 H         1 UNK         0.0000 
     49 H49        -5.9941   53.9785   23.9554 H         1 UNK         0.0000 
     50 H50         1.8076   53.6987   28.9536 H         1 UNK         0.0000 
     51 H51         1.1491   54.5793   27.5949 H         1 UNK         0.0000 
     52 H52         2.7684   52.4966   24.8842 H         1 UNK         0.0000 
     53 H53         1.7252   53.8616   25.1337 H         1 UNK         0.0000 
     54 H54         4.2121   54.7007   29.0501 H         1 UNK         0.0000 
     55 H55         6.6416   55.2966   28.0810 H         1 UNK         0.0000 
     56 H56         6.6242   54.3228   25.4788 H         1 UNK         0.0000 
     57 H57         0.5316   48.1645   23.7164 H         1 UNK         0.0000 
     58 H58        -0.6881   49.0166   22.7670 H         1 UNK         0.0000 
     59 H59         0.9964   49.4963   22.6722 H         1 UNK         0.0000 
@<TRIPOS>BOND
     1    1    2 1    
     2    1   37 1    
     3    1   38 1    
     4    1   39 1    
     5    2    7 ar   
     6    2    3 ar   
     7    3    4 ar   
     8    3   40 1    
     9    4    5 ar   
    10    4   41 1    
    11    5    6 ar   
    12    5    8 1    
    13    6    7 ar   
    14    7   42 1    
    15    8    9 am   BACKBONE|DICT|INTERRES
    16    8   43 1    
    17    9   10 2    
    18    9   11 1    
    19   11   16 1    
    20   11   12 1    
    21   11   44 1    
    22   12   36 1    
    23   12   13 2    
    24   13   14 1    
    25   14   30 1    
    26   14   15 2    
    27   15   16 1    
    28   15   25 1    
    29   16   17 1    
    30   16   18 1    
    31   18   23 ar   
    32   18   19 ar   
    33   19   20 ar   
    34   19   45 1    
    35   20   21 ar   
    36   20   46 1    
    37   21   22 ar   
    38   21   24 1    
    39   22   23 ar   
    40   22   47 1    
    41   23   48 1    
    42   24   49 1    
    43   25   26 2    
    44   25   27 1    
    45   27   28 1    
    46   27   50 1    
    47   27   51 1    
    48   28   29 1    
    49   28   30 1    
    50   28   31 1    
    51   30   52 1    
    52   30   53 1    
    53   31   35 1    
    54   31   32 2    
    55   32   33 1    
    56   32   54 1    
    57   33   34 2    
    58   33   55 1    
    59   34   35 1    
    60   34   56 1    
    61   36   57 1    
    62   36   58 1    
    63   36   59 1    
@<TRIPOS>SUBSTRUCTURE
     1 UNK         1 GROUP             0       ****    0 ROOT    
