@<TRIPOS>MOLECULE
ZINC02401950_2184
67   70    1
SMALL
USER_CHARGES


@<TRIPOS>ATOM
      1 C1          5.2617   54.7438   17.2207 C.3       1 UNK         0.0000 
      2 C2          4.7037   54.1697   18.5099 C.ar      1 UNK         0.0000 
      3 C3          3.6123   53.2998   18.4661 C.ar      1 UNK         0.0000 
      4 C4          3.1044   52.7598   19.6434 C.ar      1 UNK         0.0000 
      5 C5          3.6901   53.0917   20.8706 C.ar      1 UNK         0.0000 
      6 C6          4.7918   53.9476   20.9115 C.ar      1 UNK         0.0000 
      7 C7          5.2958   54.4915   19.7322 C.ar      1 UNK         0.0000 
      8 N8          3.2641   52.5364   22.0824 N.am      1 UNK         0.0000 
      9 C9          2.0036   52.2649   22.4832 C.2       1 UNK         0.0000 
     10 O10         0.9903   52.5744   21.8554 O.2       1 UNK         0.0000 
     11 C11         1.9061   51.5320   23.8375 C.3       1 UNK         0.0000 
     12 C12        -0.2859   50.3229   23.5897 C.3       1 UNK         0.0000 
     13 C13        -1.7484   50.2650   24.0517 C.3       1 UNK         0.0000 
     14 C14        -1.8738   49.8870   25.5439 C.3       1 UNK         0.0000 
     15 C15        -3.3510   49.7484   25.9965 C.3       1 UNK         0.0000 
     16 C16        -4.1039   51.0933   26.0201 C.3       1 UNK         0.0000 
     17 C17        -3.3634   52.1309   26.8815 C.3       1 UNK         0.0000 
     18 C18        -1.9018   52.3147   26.4301 C.3       1 UNK         0.0000 
     19 C19        -1.1207   50.9713   26.3841 C.3       1 UNK         0.0000 
     20 H20        -1.1213   50.5891   27.4079 H         1 UNK         0.0000 
     21 C21         0.3732   51.1290   25.9462 C.3       1 UNK         0.0000 
     22 H22         0.8626   50.1562   26.0359 H         1 UNK         0.0000 
     23 C23         1.1713   52.0947   26.8618 C.ar      1 UNK         0.0000 
     24 C24         1.5835   53.3650   26.4476 C.ar      1 UNK         0.0000 
     25 C25         2.3700   54.1630   27.2747 C.ar      1 UNK         0.0000 
     26 C26         2.7209   53.7481   28.5571 C.ar      1 UNK         0.0000 
     27 C27         2.2589   52.5096   29.0234 C.ar      1 UNK         0.0000 
     28 C28         1.5025   51.6967   28.1687 C.ar      1 UNK         0.0000 
     29 O29         2.4843   52.0851   30.3159 O.3       1 UNK         0.0000 
     30 C30         3.8412   52.0123   30.7462 C.3       1 UNK         0.0000 
     31 O31         3.4787   54.5678   29.3604 O.3       1 UNK         0.0000 
     32 C32         4.8260   54.7404   28.9283 C.3       1 UNK         0.0000 
     33 O33        -1.2771   48.6119   25.6818 O.3       1 UNK         0.0000 
     34 H34         5.2812   53.9792   16.4430 H         1 UNK         0.0000 
     35 H35         6.2884   55.0913   17.3425 H         1 UNK         0.0000 
     36 H36         4.6441   55.5714   16.8699 H         1 UNK         0.0000 
     37 H37         3.1624   53.0315   17.5217 H         1 UNK         0.0000 
     38 H38         2.2689   52.0774   19.5910 H         1 UNK         0.0000 
     39 H39         5.2642   54.1984   21.8500 H         1 UNK         0.0000 
     40 H40         6.1478   55.1526   19.7702 H         1 UNK         0.0000 
     41 H41         3.9987   52.4120   22.7607 H         1 UNK         0.0000 
     42 H42         2.2924   50.5130   23.7655 H         1 UNK         0.0000 
     43 H43         2.5243   52.0590   24.5575 H         1 UNK         0.0000 
     44 H44        -0.2690   50.5905   22.5341 H         1 UNK         0.0000 
     45 H45         0.2448   49.3781   23.7290 H         1 UNK         0.0000 
     46 H46        -2.2224   51.2249   23.8538 H         1 UNK         0.0000 
     47 H47        -2.3314   49.5726   23.4431 H         1 UNK         0.0000 
     48 H48        -3.8943   49.0939   25.3130 H         1 UNK         0.0000 
     49 H49        -3.3953   49.3181   26.9998 H         1 UNK         0.0000 
     50 H50        -5.1107   50.9434   26.4127 H         1 UNK         0.0000 
     51 H51        -4.2342   51.4724   25.0058 H         1 UNK         0.0000 
     52 H52        -3.3827   51.8079   27.9243 H         1 UNK         0.0000 
     53 H53        -3.8884   53.0865   26.8474 H         1 UNK         0.0000 
     54 H54        -1.3963   53.0120   27.0986 H         1 UNK         0.0000 
     55 H55        -1.8782   52.8060   25.4572 H         1 UNK         0.0000 
     56 H56         1.3171   53.7417   25.4709 H         1 UNK         0.0000 
     57 H57         2.7051   55.1258   26.9282 H         1 UNK         0.0000 
     58 H58         1.1618   50.7438   28.5399 H         1 UNK         0.0000 
     59 H59         3.9234   51.2967   31.5625 H         1 UNK         0.0000 
     60 H60         4.5199   51.6965   29.9543 H         1 UNK         0.0000 
     61 H61         4.1835   52.9672   31.1383 H         1 UNK         0.0000 
     62 H62         5.3820   55.2977   29.6818 H         1 UNK         0.0000 
     63 H63         5.3345   53.7841   28.7913 H         1 UNK         0.0000 
     64 H64         4.8846   55.2967   27.9918 H         1 UNK         0.0000 
     65 H65        -1.2956   48.3863   26.6327 H         1 UNK         0.0000 
     66 N66         0.4529   51.4292   24.3998 N.4       1 UNK         0.0000 
     67 H67        -0.0465   52.2909   24.2240 H         1 UNK         0.0000 
@<TRIPOS>BOND
     1    1    2 1    
     2    1   34 1    
     3    1   35 1    
     4    1   36 1    
     5    2    7 ar   
     6    2    3 ar   
     7    3    4 ar   
     8    3   37 1    
     9    4    5 ar   
    10    4   38 1    
    11    5    6 ar   
    12    5    8 1    
    13    6    7 ar   
    14    6   39 1    
    15    7   40 1    
    16    8    9 am   BACKBONE|DICT|INTERRES
    17    8   41 1    
    18    9   10 2    
    19    9   11 1    
    20   11   42 1    
    21   11   43 1    
    22   11   66 1    
    23   12   13 1    
    24   12   44 1    
    25   12   45 1    
    26   12   66 1    
    27   13   14 1    
    28   13   46 1    
    29   13   47 1    
    30   14   19 1    
    31   14   15 1    
    32   14   33 1    
    33   15   16 1    
    34   15   48 1    
    35   15   49 1    
    36   16   17 1    
    37   16   50 1    
    38   16   51 1    
    39   17   18 1    
    40   17   52 1    
    41   17   53 1    
    42   18   19 1    
    43   18   54 1    
    44   18   55 1    
    45   19   20 1    
    46   19   21 1    
    47   21   22 1    
    48   21   23 1    
    49   21   66 1    
    50   23   28 ar   
    51   23   24 ar   
    52   24   25 ar   
    53   24   56 1    
    54   25   26 ar   
    55   25   57 1    
    56   26   27 ar   
    57   26   31 1    
    58   27   28 ar   
    59   27   29 1    
    60   28   58 1    
    61   29   30 1    
    62   30   59 1    
    63   30   60 1    
    64   30   61 1    
    65   31   32 1    
    66   32   62 1    
    67   32   63 1    
    68   32   64 1    
    69   33   65 1    
    70   66   67 1    
@<TRIPOS>SUBSTRUCTURE
     1 UNK         1 GROUP             0       ****    0 ROOT    
