@<TRIPOS>MOLECULE
ZINC05149619_4594
49   52    1
SMALL
USER_CHARGES


@<TRIPOS>ATOM
      1 C1         -1.9803   51.8689   25.6829 C.3       1 UNK         0.0000 
      2 C2         -0.9024   52.3524   24.7068 C.3       1 UNK         0.0000 
      3 O3          0.2966   52.5771   25.4412 O.3       1 UNK         0.0000 
      4 C4          1.3949   53.1188   24.8016 C.ar      1 UNK         0.0000 
      5 C5          2.5257   53.3298   25.5858 C.ar      1 UNK         0.0000 
      6 C6          3.7011   53.8102   25.0164 C.ar      1 UNK         0.0000 
      7 C7          3.7709   54.0956   23.6448 C.ar      1 UNK         0.0000 
      8 C8          2.6071   53.9615   22.8840 C.ar      1 UNK         0.0000 
      9 C9          1.4393   53.4531   23.4428 C.ar      1 UNK         0.0000 
     10 C10         5.0793   54.4944   23.0046 C.ar      1 UNK         0.0000 
     11 C11         5.4298   54.5938   21.6192 C.ar      1 UNK         0.0000 
     12 C12         6.7305   55.0505   21.6737 C.ar      1 UNK         0.0000 
     13 N13         7.1043   55.1450   22.9677 N.pl3     1 UNK         0.0000 
     14 H14         8.0545   55.3481   23.2822 H         1 UNK         0.0000 
     15 N15         6.1127   54.8018   23.7836 N.2       1 UNK         0.0000 
     16 O16         7.6050   55.3012   20.6513 O.3       1 UNK         0.0000 
     17 C17         7.1005   55.0217   19.4208 C.2       1 UNK         0.0000 
     18 C18         5.8603   54.5430   19.1435 C.2       1 UNK         0.0000 
     19 C19         4.7913   54.2919   20.2395 C.3       1 UNK         0.0000 
     20 H20         4.0105   55.0282   20.0626 H         1 UNK         0.0000 
     21 C21         4.0320   52.9644   20.0855 C.ar      1 UNK         0.0000 
     22 C22         3.0966   52.8336   19.0506 C.ar      1 UNK         0.0000 
     23 C23         2.3359   51.6758   18.9200 C.ar      1 UNK         0.0000 
     24 C24         2.4907   50.6450   19.8453 C.ar      1 UNK         0.0000 
     25 C25         3.4036   50.7751   20.8870 C.ar      1 UNK         0.0000 
     26 C26         4.1998   51.9105   20.9889 C.ar      1 UNK         0.0000 
     27 S27         1.5453   49.1524   19.7285 S.3       1 UNK         0.0000 
     28 C28         1.0437   48.9609   17.9952 C.3       1 UNK         0.0000 
     29 C29         5.5069   54.3190   17.7772 C.1       1 UNK         0.0000 
     30 N30         5.2430   54.1763   16.6604 N.1       1 UNK         0.0000 
     31 N31         8.0941   55.2808   18.5174 N.pl3     1 UNK         0.0000 
     32 H32        -2.9164   51.6644   25.1627 H         1 UNK         0.0000 
     33 H33        -1.6713   50.9534   26.1910 H         1 UNK         0.0000 
     34 H34        -2.1789   52.6211   26.4465 H         1 UNK         0.0000 
     35 H35        -1.2395   53.2720   24.2235 H         1 UNK         0.0000 
     36 H36        -0.7332   51.6035   23.9317 H         1 UNK         0.0000 
     37 H37         2.5027   53.0816   26.6354 H         1 UNK         0.0000 
     38 H38         4.5716   53.9094   25.6482 H         1 UNK         0.0000 
     39 H39         2.6053   54.2112   21.8363 H         1 UNK         0.0000 
     40 H40         0.5870   53.3006   22.8002 H         1 UNK         0.0000 
     41 H41         2.9422   53.6382   18.3463 H         1 UNK         0.0000 
     42 H42         1.6284   51.5973   18.1096 H         1 UNK         0.0000 
     43 H43         3.5043   49.9801   21.6092 H         1 UNK         0.0000 
     44 H44         4.9124   51.9788   21.7962 H         1 UNK         0.0000 
     45 H45         0.6223   47.9691   17.8374 H         1 UNK         0.0000 
     46 H46         1.9040   49.0773   17.3350 H         1 UNK         0.0000 
     47 H47         0.2897   49.7006   17.7273 H         1 UNK         0.0000 
     48 H48         7.9229   55.1790   17.5285 H         1 UNK         0.0000 
     49 H49         9.0582   55.3103   18.8182 H         1 UNK         0.0000 
@<TRIPOS>BOND
     1    1    2 1    
     2    1   32 1    
     3    1   33 1    
     4    1   34 1    
     5    2    3 1    
     6    2   35 1    
     7    2   36 1    
     8    3    4 1    
     9    4    9 ar   
    10    4    5 ar   
    11    5    6 ar   
    12    5   37 1    
    13    6    7 ar   
    14    6   38 1    
    15    7    8 ar   
    16    7   10 1    
    17    8    9 ar   
    18    8   39 1    
    19    9   40 1    
    20   10   15 ar   
    21   10   11 ar   
    22   11   19 1    
    23   11   12 ar   
    24   12   13 ar   
    25   12   16 1    
    26   13   14 1    
    27   13   15 ar   
    28   16   17 1    
    29   17   18 2    
    30   17   31 1    
    31   18   19 1    
    32   18   29 1    
    33   19   20 1    
    34   19   21 1    
    35   21   26 ar   
    36   21   22 ar   
    37   22   23 ar   
    38   22   41 1    
    39   23   24 ar   
    40   23   42 1    
    41   24   25 ar   
    42   24   27 1    
    43   25   26 ar   
    44   25   43 1    
    45   26   44 1    
    46   27   28 1    
    47   28   45 1    
    48   28   46 1    
    49   28   47 1    
    50   29   30 3    
    51   31   48 1    
    52   31   49 1    
@<TRIPOS>SUBSTRUCTURE
     1 UNK         1 GROUP             0       ****    0 ROOT    
