ZINC39609212_3662
                    3D
 Schrodinger Suite 2024-2.
 68 71  0  0  1  0            999 V2000
    4.4265   53.4168   28.7065 C   0  0  0  0  0  0
    4.8167   53.8554   27.3071 C   0  0  0  0  0  0
    6.1639   54.0903   27.0179 C   0  0  0  0  0  0
    6.5561   54.4297   25.7271 C   0  0  0  0  0  0
    5.6188   54.5391   24.7014 C   0  0  0  0  0  0
    4.2630   54.3433   25.0007 C   0  0  0  0  0  0
    3.8574   53.9944   26.2924 C   0  0  0  0  0  0
    2.3773   53.7539   26.5589 C   0  0  0  0  0  0
    6.1236   54.8959   23.3043 C   0  0  0  0  0  0
    5.2187   54.4957   22.1132 C   0  0  0  0  0  0
    5.5044   55.0561   20.7891 N   0  0  0  0  0  0
    6.5597   55.7743   20.3560 C   0  0  0  0  0  0
    7.4976   56.0959   21.0812 O   0  0  0  0  0  0
    6.5675   56.3034   18.8944 C   0  0  2  0  0  0
    6.5440   57.3933   18.9608 H   0  0  0  0  0  0
    5.2780   55.8980   18.1442 C   0  0  0  0  0  0
    5.6821   55.9619   16.7399 N   0  0  0  0  0  0
    7.1345   56.0273   16.5790 C   0  0  0  0  0  0
    7.7283   55.7899   17.9942 C   0  0  0  0  0  0
    9.0593   56.5411   18.2518 C   0  0  0  0  0  0
   10.1466   56.1335   17.2414 C   0  0  0  0  0  0
   10.4011   54.6172   17.3939 N   0  3  0  0  0  0
    9.1324   53.7431   17.2616 C   0  0  0  0  0  0
    8.0609   54.2804   18.2296 C   0  0  0  0  0  0
    4.8258   56.1087   15.7004 C   0  0  0  0  0  0
    5.2024   56.2400   14.5337 O   0  0  0  0  0  0
    3.3493   56.1152   16.0025 C   0  0  0  0  0  0
    2.6140   57.2948   15.8411 C   0  0  0  0  0  0
    1.2481   57.3180   16.1158 C   0  0  0  0  0  0
    0.5870   56.1668   16.5578 C   0  0  0  0  0  0
    1.3221   54.9795   16.7000 C   0  0  0  0  0  0
    2.6873   54.9492   16.4173 C   0  0  0  0  0  0
    3.3571   53.7804   16.5646 F   0  0  0  0  0  0
   -0.9010   56.2286   16.9034 C   0  0  0  0  0  0
   -1.6090   56.3300   15.7801 F   0  0  0  0  0  0
   -1.3151   55.1434   17.5626 F   0  0  0  0  0  0
   -1.1608   57.2936   17.6661 F   0  0  0  0  0  0
    3.8849   54.2122   29.2239 H   0  0  0  0  0  0
    3.7862   52.5327   28.6630 H   0  0  0  0  0  0
    5.3117   53.1382   29.2815 H   0  0  0  0  0  0
    6.9130   53.9915   27.7912 H   0  0  0  0  0  0
    7.6000   54.5859   25.5077 H   0  0  0  0  0  0
    3.5035   54.4472   24.2408 H   0  0  0  0  0  0
    1.7572   53.9728   25.6857 H   0  0  0  0  0  0
    2.2113   52.7131   26.8425 H   0  0  0  0  0  0
    2.0325   54.3860   27.3796 H   0  0  0  0  0  0
    6.3069   55.9686   23.3075 H   0  0  0  0  0  0
    7.1005   54.4365   23.1518 H   0  0  0  0  0  0
    5.1119   53.4096   22.0706 H   0  0  0  0  0  0
    4.2028   54.8342   22.3127 H   0  0  0  0  0  0
    4.7836   54.8792   20.1076 H   0  0  0  0  0  0
    5.0419   54.8481   18.3294 H   0  0  0  0  0  0
    4.4547   56.5687   18.4028 H   0  0  0  0  0  0
    7.3561   57.0580   16.2972 H   0  0  0  0  0  0
    7.5526   55.4033   15.7911 H   0  0  0  0  0  0
    8.8906   57.6134   18.1370 H   0  0  0  0  0  0
    9.4060   56.4120   19.2785 H   0  0  0  0  0  0
    9.8625   56.3109   16.2013 H   0  0  0  0  0  0
   11.0996   56.6205   17.4448 H   0  0  0  0  0  0
   11.0931   54.3167   16.7217 H   0  0  0  0  0  0
    8.8306   53.7662   16.2137 H   0  0  0  0  0  0
    9.4385   52.7272   17.5137 H   0  0  0  0  0  0
    8.3774   54.0968   19.2572 H   0  0  0  0  0  0
    7.1598   53.6769   18.0927 H   0  0  0  0  0  0
    3.0994   58.2077   15.5176 H   0  0  0  0  0  0
    0.7054   58.2477   16.0058 H   0  0  0  0  0  0
    0.8410   54.0733   17.0357 H   0  0  0  0  0  0
   10.8077   54.4620   18.3068 H   0  0  0  0  0  0
  1  2  1  0  0  0
  1 38  1  0  0  0
  1 39  1  0  0  0
  1 40  1  0  0  0
  2  7  2  0  0  0
  2  3  1  0  0  0
  3  4  2  0  0  0
  3 41  1  0  0  0
  4  5  1  0  0  0
  4 42  1  0  0  0
  5  6  2  0  0  0
  5  9  1  0  0  0
  6  7  1  0  0  0
  6 43  1  0  0  0
  7  8  1  0  0  0
  8 44  1  0  0  0
  8 45  1  0  0  0
  8 46  1  0  0  0
  9 10  1  0  0  0
  9 47  1  0  0  0
  9 48  1  0  0  0
 10 11  1  0  0  0
 10 49  1  0  0  0
 10 50  1  0  0  0
 11 12  1  0  0  0
 11 51  1  0  0  0
 12 13  2  0  0  0
 12 14  1  0  0  0
 14 15  1  0  0  0
 14 19  1  0  0  0
 14 16  1  0  0  0
 16 17  1  0  0  0
 16 52  1  0  0  0
 16 53  1  0  0  0
 17 18  1  0  0  0
 17 25  1  0  0  0
 18 19  1  0  0  0
 18 54  1  0  0  0
 18 55  1  0  0  0
 19 24  1  0  0  0
 19 20  1  0  0  0
 20 21  1  0  0  0
 20 56  1  0  0  0
 20 57  1  0  0  0
 21 22  1  0  0  0
 21 58  1  0  0  0
 21 59  1  0  0  0
 22 23  1  0  0  0
 22 60  1  0  0  0
 22 68  1  0  0  0
 23 24  1  0  0  0
 23 61  1  0  0  0
 23 62  1  0  0  0
 24 63  1  0  0  0
 24 64  1  0  0  0
 25 26  2  0  0  0
 25 27  1  0  0  0
 27 32  2  0  0  0
 27 28  1  0  0  0
 28 29  2  0  0  0
 28 65  1  0  0  0
 29 30  1  0  0  0
 29 66  1  0  0  0
 30 31  2  0  0  0
 30 34  1  0  0  0
 31 32  1  0  0  0
 31 67  1  0  0  0
 32 33  1  0  0  0
 34 35  1  0  0  0
 34 36  1  0  0  0
 34 37  1  0  0  0
M  CHG  1  22   1
M  END
> <i_i_glide_confnum>
95

> <i_i_glide_lignum>
3663

> <i_i_glide_posenum>
118

> <i_i_glide_rotatable_bonds>
8

> <i_m_Source_File_Index>
2911

> <b_m_subgroup_collapsed>
0

> <r_i_docking_score>
-5.58584

> <r_i_glide_ecoul>
-4.0356

> <r_i_glide_eff_state_penalty>
0

> <r_i_glide_einternal>
8.64519

> <r_i_glide_emodel>
-55.7109

> <r_i_glide_energy>
-43.1952

> <r_i_glide_erotb>
0.55817

> <r_i_glide_esite>
-0.0333531

> <r_i_glide_evdw>
-39.1596

> <r_i_glide_gscore>
-5.58584

> <r_i_glide_hbond>
-0.108963

> <r_i_glide_ligand_efficiency>
-0.155162

> <r_i_glide_ligand_efficiency_ln>
-1.21868

> <r_i_glide_ligand_efficiency_sa>
-0.512334

> <r_i_glide_lipo>
-3.01536

> <r_i_glide_metal>
0

> <r_i_glide_rewards>
-0.423007

> <s_i_glide_gridfile>
wee1_glide-grid

> <s_m_Source_File>
wee1_decoys_glide_SP.sdf

> <s_m_Source_Path>
/Users/zhangxujun/Desktop

> <s_m_entry_id>
3186

> <s_m_entry_name>
wee1_decoys_glide_SP.2911

> <s_m_subgroup_title>
wee1_decoys_glide_SP

> <s_m_subgroupid>
wee1_decoys_glide_SP


$$$$
