@<TRIPOS>MOLECULE
ZINC26817032_448
60   66    1
SMALL
USER_CHARGES


@<TRIPOS>ATOM
      1 C1         -3.1690   51.4610   19.2767 C.3       1 UNK         0.0000 
      2 C2         -2.6264   50.5222   20.3393 C.ar      1 UNK         0.0000 
      3 C3         -2.8023   49.1378   20.2172 C.ar      1 UNK         0.0000 
      4 C4         -2.2552   48.2697   21.1640 C.ar      1 UNK         0.0000 
      5 C5         -1.5273   48.8042   22.2259 C.ar      1 UNK         0.0000 
      6 C6         -1.3536   50.1689   22.3707 C.ar      1 UNK         0.0000 
      7 C7         -1.9139   51.0382   21.4287 C.ar      1 UNK         0.0000 
      8 C8         -0.4562   50.4028   23.5655 C.3       1 UNK         0.0000 
      9 C9          0.8974   51.0938   23.3100 C.3       1 UNK         0.0000 
     10 H10         1.6268   50.7063   24.0294 H         1 UNK         0.0000 
     11 C11         0.5015   52.4938   23.4807 C.3       1 UNK         0.0000 
     12 H12        -0.2460   52.8926   22.7911 H         1 UNK         0.0000 
     13 C13        -0.1816   52.4634   24.8384 C.3       1 UNK         0.0000 
     14 H14        -0.8698   53.2987   24.9361 H         1 UNK         0.0000 
     15 N15        -0.9801   51.2323   24.6834 N.3       1 UNK         0.0000 
     16 C16         0.8194   52.4956   26.0249 C.3       1 UNK         0.0000 
     17 C17         0.2553   52.4097   27.4249 C.ar      1 UNK         0.0000 
     18 C18        -0.5224   51.4187   28.0002 C.ar      1 UNK         0.0000 
     19 N19        -0.7366   51.6968   29.3255 N.pl3     1 UNK         0.0000 
     20 H20        -1.2649   51.0797   29.9318 H         1 UNK         0.0000 
     21 C21        -0.0955   52.8665   29.6649 C.ar      1 UNK         0.0000 
     22 C22         0.5362   53.3448   28.4801 C.ar      1 UNK         0.0000 
     23 C23         1.2790   54.5369   28.5465 C.ar      1 UNK         0.0000 
     24 C24         1.3443   55.2333   29.7499 C.ar      1 UNK         0.0000 
     25 C25         0.7000   54.7479   30.8818 C.ar      1 UNK         0.0000 
     26 C26        -0.0099   53.5470   30.8797 C.ar      1 UNK         0.0000 
     27 C27         1.7682   53.2069   23.0945 C.2       1 UNK         0.0000 
     28 O28         2.1429   54.2834   23.5548 O.2       1 UNK         0.0000 
     29 N29         2.2927   52.4353   22.0770 N.am      1 UNK         0.0000 
     30 C30         1.6733   51.2007   22.0144 C.2       1 UNK         0.0000 
     31 O31         1.7809   50.2999   21.1825 O.2       1 UNK         0.0000 
     32 C32         3.3265   52.8748   21.1966 C.ar      1 UNK         0.0000 
     33 C33         4.3599   53.7129   21.6570 C.ar      1 UNK         0.0000 
     34 C34         5.3340   54.1861   20.7850 C.ar      1 UNK         0.0000 
     35 C35         5.3038   53.8129   19.4471 C.ar      1 UNK         0.0000 
     36 C36         4.3047   52.9701   18.9730 C.ar      1 UNK         0.0000 
     37 C37         3.3211   52.5044   19.8398 C.ar      1 UNK         0.0000 
     38 F38         6.2586   54.2660   18.6041 F         1 UNK         0.0000 
     39 C39        -0.2783   48.9697   24.1206 C.2       1 UNK         0.0000 
     40 O40         0.3045   48.6589   25.1555 O.2       1 UNK         0.0000 
     41 N41        -0.8964   48.1402   23.2637 N.am      1 UNK         0.0000 
     42 H42        -2.3713   52.1187   18.9265 H         1 UNK         0.0000 
     43 H43        -3.5542   50.9218   18.4085 H         1 UNK         0.0000 
     44 H44        -3.9566   52.0927   19.6803 H         1 UNK         0.0000 
     45 H45        -3.3499   48.7287   19.3804 H         1 UNK         0.0000 
     46 H46        -2.3907   47.2039   21.0573 H         1 UNK         0.0000 
     47 H47        -1.7797   52.1044   21.5079 H         1 UNK         0.0000 
     48 H48        -0.9002   50.7076   25.5452 H         1 UNK         0.0000 
     49 H49         1.4105   53.4064   25.9350 H         1 UNK         0.0000 
     50 H50         1.5414   51.6968   25.9267 H         1 UNK         0.0000 
     51 H51        -0.9240   50.4985   27.5934 H         1 UNK         0.0000 
     52 H52         1.7834   54.9216   27.6749 H         1 UNK         0.0000 
     53 H53         1.8911   56.1652   29.8048 H         1 UNK         0.0000 
     54 H54         0.7476   55.3161   31.7987 H         1 UNK         0.0000 
     55 H55        -0.4949   53.1799   31.7735 H         1 UNK         0.0000 
     56 H56         4.4233   54.0067   22.6945 H         1 UNK         0.0000 
     57 H57         6.1187   54.8362   21.1445 H         1 UNK         0.0000 
     58 H58         4.3023   52.6631   17.9376 H         1 UNK         0.0000 
     59 H59         2.5508   51.8677   19.4314 H         1 UNK         0.0000 
     60 H60        -0.9344   47.1449   23.4175 H         1 UNK         0.0000 
@<TRIPOS>BOND
     1    1    2 1    
     2    1   42 1    
     3    1   43 1    
     4    1   44 1    
     5    2    7 ar   
     6    2    3 ar   
     7    3    4 ar   
     8    3   45 1    
     9    4    5 ar   
    10    4   46 1    
    11    5   41 1    
    12    5    6 ar   
    13    6    7 ar   
    14    6    8 1    
    15    7   47 1    
    16    8   15 1    
    17    8    9 1    
    18    8   39 1    
    19    9   10 1    
    20    9   30 1    
    21    9   11 1    
    22   11   12 1    
    23   11   13 1    
    24   11   27 1    
    25   13   14 1    
    26   13   15 1    
    27   13   16 1    
    28   15   48 1    
    29   16   17 1    
    30   16   49 1    
    31   16   50 1    
    32   17   22 ar   
    33   17   18 ar   
    34   18   19 ar   
    35   18   51 1    
    36   19   20 1    
    37   19   21 ar   
    38   21   26 ar   
    39   21   22 ar   
    40   22   23 ar   
    41   23   24 ar   
    42   23   52 1    
    43   24   25 ar   
    44   24   53 1    
    45   25   26 ar   
    46   25   54 1    
    47   26   55 1    
    48   27   28 2    
    49   27   29 am   BACKBONE|DICT|INTERRES
    50   29   30 am   BACKBONE|DICT|INTERRES
    51   29   32 1    
    52   30   31 2    
    53   32   37 ar   
    54   32   33 ar   
    55   33   34 ar   
    56   33   56 1    
    57   34   35 ar   
    58   34   57 1    
    59   35   36 ar   
    60   35   38 1    
    61   36   37 ar   
    62   36   58 1    
    63   37   59 1    
    64   39   40 2    
    65   39   41 am   BACKBONE|DICT|INTERRES
    66   41   60 1    
@<TRIPOS>SUBSTRUCTURE
     1 UNK         1 GROUP             0       ****    0 ROOT    
