@<TRIPOS>MOLECULE
ZINC09490775_3160
63   68    1
SMALL
USER_CHARGES


@<TRIPOS>ATOM
      1 C1         -2.4865   50.7058   21.8034 C.ar      1 UNK         0.0000 
      2 C2         -1.6993   51.2349   20.7104 C.ar      1 UNK         0.0000 
      3 C3         -0.4373   50.7782   20.5396 C.ar      1 UNK         0.0000 
      4 N4          0.1123   49.7740   21.3589 N.pl3     1 UNK         0.0000 
      5 C5         -0.5711   49.2963   22.4621 C.ar      1 UNK         0.0000 
      6 O6         -0.1179   48.4966   23.2818 O.2       1 UNK         0.0000 
      7 C7         -1.9291   49.7977   22.6285 C.ar      1 UNK         0.0000 
      8 C8          1.4100   49.0970   21.0650 C.3       1 UNK         0.0000 
      9 C9          2.2702   49.7331   19.9383 C.3       1 UNK         0.0000 
     10 H10         2.8857   48.9730   19.4525 H         1 UNK         0.0000 
     11 C11         1.3443   50.2830   18.8471 C.3       1 UNK         0.0000 
     12 C12         0.4821   51.3881   19.4743 C.3       1 UNK         0.0000 
     13 H13        -0.1076   51.8392   18.6752 H         1 UNK         0.0000 
     14 C14         1.3662   52.4963   20.1102 C.3       1 UNK         0.0000 
     15 N15         2.3162   51.9560   21.0908 N.pl3     1 UNK         0.0000 
     16 C16         3.1337   50.9052   20.4655 C.3       1 UNK         0.0000 
     17 C17         2.8007   52.7414   22.1254 C.ar      1 UNK         0.0000 
     18 C18         2.0224   52.7977   23.2827 C.ar      1 UNK         0.0000 
     19 C19         2.4875   53.4404   24.4247 C.ar      1 UNK         0.0000 
     20 C20         3.7524   54.0470   24.4372 C.ar      1 UNK         0.0000 
     21 C21         4.4795   54.0967   23.2380 C.ar      1 UNK         0.0000 
     22 C22         4.0114   53.4625   22.0744 C.ar      1 UNK         0.0000 
     23 N23         4.6964   53.5298   20.8456 N.am      1 UNK         0.0000 
     24 C24         5.5037   54.4977   20.3668 C.2       1 UNK         0.0000 
     25 O25         5.9060   55.4724   21.0041 O.2       1 UNK         0.0000 
     26 C26         5.9322   54.2802   19.0070 C.2       1 UNK         0.0000 
     27 C27         7.0558   54.8315   18.3898 C.2       1 UNK         0.0000 
     28 C28         7.1855   54.4603   17.0472 C.2       1 UNK         0.0000 
     29 C29         6.1423   53.6555   16.6116 C.2       1 UNK         0.0000 
     30 S30         4.9797   53.3588   17.8615 S.3       1 UNK         0.0000 
     31 C31         4.3531   54.5930   25.7142 C.2       1 UNK         0.0000 
     32 O32         5.2956   55.3854   25.6825 O.2       1 UNK         0.0000 
     33 N33         3.8332   54.1069   26.8578 N.am      1 UNK         0.0000 
     34 C34         4.2068   54.4645   28.2265 C.3       1 UNK         0.0000 
     35 C35         2.9615   54.7563   29.0415 C.2       1 UNK         0.0000 
     36 C36         2.0286   53.9516   29.6818 C.2       1 UNK         0.0000 
     37 C37         1.0997   54.8000   30.2850 C.2       1 UNK         0.0000 
     38 C38         1.5119   56.0908   30.0064 C.2       1 UNK         0.0000 
     39 O39         2.6488   56.0620   29.2652 O.3       1 UNK         0.0000 
     40 H40        -3.5025   51.0384   21.9638 H         1 UNK         0.0000 
     41 H41        -2.0925   52.0188   20.0820 H         1 UNK         0.0000 
     42 H42        -2.5017   49.4021   23.4547 H         1 UNK         0.0000 
     43 H43         1.2107   48.0547   20.8229 H         1 UNK         0.0000 
     44 H44         2.0073   49.0447   21.9781 H         1 UNK         0.0000 
     45 H45         1.9378   50.6819   18.0218 H         1 UNK         0.0000 
     46 H46         0.7243   49.4921   18.4208 H         1 UNK         0.0000 
     47 H47         0.7268   53.2485   20.5764 H         1 UNK         0.0000 
     48 H48         1.9500   53.0016   19.3392 H         1 UNK         0.0000 
     49 H49         3.7901   51.2898   19.6850 H         1 UNK         0.0000 
     50 H50         3.8015   50.4996   21.2272 H         1 UNK         0.0000 
     51 H51         1.0716   52.2851   23.3205 H         1 UNK         0.0000 
     52 H52         1.8664   53.4133   25.3085 H         1 UNK         0.0000 
     53 H53         5.4403   54.5912   23.2282 H         1 UNK         0.0000 
     54 H54         4.3912   52.8478   20.1669 H         1 UNK         0.0000 
     55 H55         7.7672   55.4653   18.9001 H         1 UNK         0.0000 
     56 H56         8.0059   54.7730   16.4166 H         1 UNK         0.0000 
     57 H57         5.9967   53.2307   15.6286 H         1 UNK         0.0000 
     58 H58         3.1405   53.3778   26.7720 H         1 UNK         0.0000 
     59 H59         4.9132   55.2965   28.2556 H         1 UNK         0.0000 
     60 H60         4.7230   53.6067   28.6600 H         1 UNK         0.0000 
     61 H61         2.0161   52.8717   29.6976 H         1 UNK         0.0000 
     62 H62         0.2357   54.5065   30.8634 H         1 UNK         0.0000 
     63 H63         1.1367   57.0712   30.2651 H         1 UNK         0.0000 
@<TRIPOS>BOND
     1    1    7 ar   
     2    1    2 ar   
     3    1   40 1    
     4    2    3 ar   
     5    2   41 1    
     6    3   12 1    
     7    3    4 ar   
     8    4    5 ar   
     9    4    8 1    
    10    5    6 2    
    11    5    7 ar   
    12    7   42 1    
    13    8    9 1    
    14    8   43 1    
    15    8   44 1    
    16    9   10 1    
    17    9   16 1    
    18    9   11 1    
    19   11   12 1    
    20   11   45 1    
    21   11   46 1    
    22   12   13 1    
    23   12   14 1    
    24   14   15 1    
    25   14   47 1    
    26   14   48 1    
    27   15   16 1    
    28   15   17 1    
    29   16   49 1    
    30   16   50 1    
    31   17   22 ar   
    32   17   18 ar   
    33   18   19 ar   
    34   18   51 1    
    35   19   20 ar   
    36   19   52 1    
    37   20   21 ar   
    38   20   31 1    
    39   21   22 ar   
    40   21   53 1    
    41   22   23 1    
    42   23   24 am   BACKBONE|DICT|INTERRES
    43   23   54 1    
    44   24   25 2    
    45   24   26 1    
    46   26   30 1    
    47   26   27 2    
    48   27   28 1    
    49   27   55 1    
    50   28   29 2    
    51   28   56 1    
    52   29   30 1    
    53   29   57 1    
    54   31   32 2    
    55   31   33 am   BACKBONE|DICT|INTERRES
    56   33   34 1    
    57   33   58 1    
    58   34   35 1    
    59   34   59 1    
    60   34   60 1    
    61   35   39 1    
    62   35   36 2    
    63   36   37 1    
    64   36   61 1    
    65   37   38 2    
    66   37   62 1    
    67   38   39 1    
    68   38   63 1    
@<TRIPOS>SUBSTRUCTURE
     1 UNK         1 GROUP             0       ****    0 ROOT    
