ZINC07738543_2661
                    3D
 Schrodinger Suite 2024-2.
 51 55  0  0  1  0            999 V2000
   -7.2953   53.2868   28.0302 C   0  0  0  0  0  0
   -6.6857   52.1869   28.9067 C   0  0  0  0  0  0
   -6.4753   52.4907   30.0848 O   0  0  0  0  0  0
   -6.3842   50.9680   28.3574 N   0  0  0  0  0  0
   -6.4138   50.8069   26.8864 C   0  0  0  0  0  0
   -5.0513   50.2034   26.4472 C   0  0  2  0  0  0
   -5.1027   49.9657   25.3842 H   0  0  0  0  0  0
   -4.6888   49.0025   27.1445 O   0  0  0  0  0  0
   -5.0439   48.9331   28.4775 C   0  0  0  0  0  0
   -5.8762   49.8763   29.1157 C   0  0  0  0  0  0
   -6.2741   49.6044   30.4384 C   0  0  0  0  0  0
   -5.8000   48.4794   31.1127 C   0  0  0  0  0  0
   -4.9304   47.5947   30.4763 C   0  0  0  0  0  0
   -4.5577   47.8183   29.1562 C   0  0  0  0  0  0
   -3.8770   51.2152   26.4925 C   0  0  0  0  0  0
   -4.0282   52.3203   25.9638 O   0  0  0  0  0  0
   -2.7241   50.8287   27.0808 N   0  0  0  0  0  0
   -1.4943   51.4919   26.9943 C   0  0  0  0  0  0
   -0.9997   51.9361   25.7646 C   0  0  0  0  0  0
    0.2696   52.4963   25.6927 C   0  0  0  0  0  0
    1.0503   52.6432   26.8459 C   0  0  0  0  0  0
    0.5445   52.1961   28.0742 C   0  0  0  0  0  0
   -0.7185   51.6122   28.1462 C   0  0  0  0  0  0
    2.4151   53.2537   26.7382 C   0  0  0  0  0  0
    3.3152   53.3108   27.7814 N   0  0  0  0  0  0
    3.1145   52.9731   28.7091 H   0  0  0  0  0  0
    4.4877   53.8359   27.2946 C   0  0  0  0  0  0
    5.7367   54.0970   27.8598 C   0  0  0  0  0  0
    6.7041   54.6310   27.0074 C   0  0  0  0  0  0
    6.4456   54.8994   25.6607 C   0  0  0  0  0  0
    5.1933   54.6388   25.1033 C   0  0  0  0  0  0
    4.2016   54.0966   25.9327 C   0  0  0  0  0  0
    2.9170   53.7406   25.6247 N   0  0  0  0  0  0
   -6.5440   53.7025   27.3581 H   0  0  0  0  0  0
   -8.1342   52.9080   27.4465 H   0  0  0  0  0  0
   -7.6775   54.0954   28.6508 H   0  0  0  0  0  0
   -6.6618   51.6887   26.2968 H   0  0  0  0  0  0
   -7.1387   50.0235   26.6617 H   0  0  0  0  0  0
   -6.9615   50.2538   30.9587 H   0  0  0  0  0  0
   -6.1032   48.2983   32.1338 H   0  0  0  0  0  0
   -4.5500   46.7329   31.0014 H   0  0  0  0  0  0
   -3.8871   47.1324   28.6583 H   0  0  0  0  0  0
   -2.7225   49.9681   27.6229 H   0  0  0  0  0  0
   -1.5818   51.8231   24.8615 H   0  0  0  0  0  0
    0.6408   52.8215   24.7317 H   0  0  0  0  0  0
    1.1263   52.2819   28.9787 H   0  0  0  0  0  0
   -1.0870   51.2413   29.0931 H   0  0  0  0  0  0
    5.9565   53.8950   28.8960 H   0  0  0  0  0  0
    7.6795   54.8409   27.4194 H   0  0  0  0  0  0
    7.2240   55.3087   25.0315 H   0  0  0  0  0  0
    4.9954   54.8386   24.0605 H   0  0  0  0  0  0
  1  2  1  0  0  0
  1 34  1  0  0  0
  1 35  1  0  0  0
  1 36  1  0  0  0
  2  3  2  0  0  0
  2  4  1  0  0  0
  4 10  1  0  0  0
  4  5  1  0  0  0
  5  6  1  0  0  0
  5 37  1  0  0  0
  5 38  1  0  0  0
  6  7  1  0  0  0
  6  8  1  0  0  0
  6 15  1  0  0  0
  8  9  1  0  0  0
  9 14  2  0  0  0
  9 10  1  0  0  0
 10 11  2  0  0  0
 11 12  1  0  0  0
 11 39  1  0  0  0
 12 13  2  0  0  0
 12 40  1  0  0  0
 13 14  1  0  0  0
 13 41  1  0  0  0
 14 42  1  0  0  0
 15 16  2  0  0  0
 15 17  1  0  0  0
 17 18  1  0  0  0
 17 43  1  0  0  0
 18 23  2  0  0  0
 18 19  1  0  0  0
 19 20  2  0  0  0
 19 44  1  0  0  0
 20 21  1  0  0  0
 20 45  1  0  0  0
 21 22  2  0  0  0
 21 24  1  0  0  0
 22 23  1  0  0  0
 22 46  1  0  0  0
 23 47  1  0  0  0
 24 33  2  0  0  0
 24 25  1  0  0  0
 25 26  1  0  0  0
 25 27  1  0  0  0
 27 32  2  0  0  0
 27 28  1  0  0  0
 28 29  2  0  0  0
 28 48  1  0  0  0
 29 30  1  0  0  0
 29 49  1  0  0  0
 30 31  2  0  0  0
 30 50  1  0  0  0
 31 32  1  0  0  0
 31 51  1  0  0  0
 32 33  1  0  0  0
M  END
> <i_i_glide_confnum>
33

> <i_i_glide_lignum>
2662

> <i_i_glide_posenum>
367

> <i_i_glide_rotatable_bonds>
5

> <i_m_Source_File_Index>
1840

> <b_m_subgroup_collapsed>
0

> <r_i_docking_score>
-4.8119

> <r_i_glide_ecoul>
-2.42345

> <r_i_glide_eff_state_penalty>
0

> <r_i_glide_einternal>
7.19265

> <r_i_glide_emodel>
-49.7605

> <r_i_glide_energy>
-40.5854

> <r_i_glide_erotb>
0.463683

> <r_i_glide_esite>
-0.115581

> <r_i_glide_evdw>
-38.162

> <r_i_glide_gscore>
-4.8119

> <r_i_glide_hbond>
-0.24911

> <r_i_glide_ligand_efficiency>
-0.155223

> <r_i_glide_ligand_efficiency_ln>
-1.08523

> <r_i_glide_ligand_efficiency_sa>
-0.487613

> <r_i_glide_lipo>
-1.97224

> <r_i_glide_metal>
0

> <r_i_glide_rewards>
-0.667037

> <s_i_glide_gridfile>
wee1_glide-grid

> <s_m_Source_File>
wee1_decoys_glide_SP.sdf

> <s_m_Source_Path>
/Users/zhangxujun/Desktop

> <s_m_entry_id>
2115

> <s_m_entry_name>
wee1_decoys_glide_SP.1840

> <s_m_subgroup_title>
wee1_decoys_glide_SP

> <s_m_subgroupid>
wee1_decoys_glide_SP


$$$$
