ZINC21558505_2681
                    3D
 Schrodinger Suite 2024-2.
 53 57  0  0  1  0            999 V2000
    2.0284   53.3816   29.7255 C   0  0  0  0  0  0
    1.4312   53.9195   28.5881 C   0  0  0  0  0  0
    2.1825   54.0912   27.4278 C   0  0  0  0  0  0
    3.5359   53.7315   27.3940 C   0  0  0  0  0  0
    4.1200   53.1926   28.5492 C   0  0  0  0  0  0
    3.3722   53.0167   29.7103 C   0  0  0  0  0  0
    4.4146   53.8863   26.1345 C   0  0  2  0  0  0
    4.8154   52.8967   25.9451 H   0  0  0  0  0  0
    5.6272   54.7911   26.4170 C   0  0  0  0  0  0
    6.9652   54.2163   26.8093 C   0  0  0  0  0  0
    6.7832   54.8771   25.4504 C   0  0  0  0  0  0
    3.8000   54.2859   24.8542 N   0  0  0  0  0  0
    2.8442   53.6318   24.1704 C   0  0  0  0  0  0
    2.1960   52.6997   24.6398 O   0  0  0  0  0  0
    2.6249   54.0625   22.7084 C   0  0  0  0  0  0
    2.7830   52.8988   21.8008 N   0  0  0  0  0  0
    1.7491   52.1185   21.4109 C   0  0  0  0  0  0
    0.5764   52.1717   21.7907 O   0  0  0  0  0  0
    2.3283   51.1406   20.3878 C   0  0  1  0  0  0
    2.1577   49.6597   20.8197 C   0  0  0  0  0  0
    0.7241   49.1609   20.5637 C   0  0  0  0  0  0
    0.4318   49.2268   19.1684 O   0  0  0  0  0  0
    0.7088   50.4286   18.5418 C   0  0  0  0  0  0
    1.6287   51.3802   19.0349 C   0  0  0  0  0  0
    1.8566   52.5243   18.2502 C   0  0  0  0  0  0
    1.1971   52.7200   17.0378 C   0  0  0  0  0  0
    0.2937   51.7676   16.5750 C   0  0  0  0  0  0
    0.0536   50.6201   17.3260 C   0  0  0  0  0  0
    3.7047   51.5594   20.3976 N   0  0  0  0  0  0
    3.9823   52.5235   21.2827 C   0  0  0  0  0  0
    5.1038   52.8349   21.6837 O   0  0  0  0  0  0
    1.4397   53.2361   30.6206 H   0  0  0  0  0  0
    0.3852   54.1898   28.5993 H   0  0  0  0  0  0
    1.6930   54.4777   26.5507 H   0  0  0  0  0  0
    5.1594   52.8975   28.5483 H   0  0  0  0  0  0
    3.8324   52.5921   30.5909 H   0  0  0  0  0  0
    5.3221   55.6966   26.9245 H   0  0  0  0  0  0
    7.5072   54.7265   27.6060 H   0  0  0  0  0  0
    7.0802   53.1332   26.8627 H   0  0  0  0  0  0
    6.7701   54.2525   24.5559 H   0  0  0  0  0  0
    7.2044   55.8633   25.2543 H   0  0  0  0  0  0
    4.3342   54.9653   24.3353 H   0  0  0  0  0  0
    1.6166   54.4696   22.6239 H   0  0  0  0  0  0
    3.3088   54.8633   22.4241 H   0  0  0  0  0  0
    2.8080   49.0302   20.2117 H   0  0  0  0  0  0
    2.4378   49.5021   21.8630 H   0  0  0  0  0  0
   -0.0034   49.7465   21.1274 H   0  0  0  0  0  0
    0.6213   48.1238   20.8827 H   0  0  0  0  0  0
    2.5504   53.2807   18.5871 H   0  0  0  0  0  0
    1.3928   53.6087   16.4554 H   0  0  0  0  0  0
   -0.2100   51.9123   15.6304 H   0  0  0  0  0  0
   -0.6311   49.8697   16.9598 H   0  0  0  0  0  0
    4.3230   51.2939   19.6363 H   0  0  0  0  0  0
  1  6  2  0  0  0
  1  2  1  0  0  0
  1 32  1  0  0  0
  2  3  2  0  0  0
  2 33  1  0  0  0
  3  4  1  0  0  0
  3 34  1  0  0  0
  4  5  2  0  0  0
  4  7  1  0  0  0
  5  6  1  0  0  0
  5 35  1  0  0  0
  6 36  1  0  0  0
  7  8  1  0  0  0
  7  9  1  0  0  0
  7 12  1  0  0  0
  9 11  1  0  0  0
  9 10  1  0  0  0
  9 37  1  0  0  0
 10 11  1  0  0  0
 10 38  1  0  0  0
 10 39  1  0  0  0
 11 40  1  0  0  0
 11 41  1  0  0  0
 12 13  1  0  0  0
 12 42  1  0  0  0
 13 14  2  0  0  0
 13 15  1  0  0  0
 15 16  1  0  0  0
 15 43  1  0  0  0
 15 44  1  0  0  0
 16 30  1  0  0  0
 16 17  1  0  0  0
 17 18  2  0  0  0
 17 19  1  0  0  0
 19 24  1  0  0  0
 19 20  1  0  0  0
 19 29  1  0  0  0
 20 21  1  0  0  0
 20 45  1  0  0  0
 20 46  1  0  0  0
 21 22  1  0  0  0
 21 47  1  0  0  0
 21 48  1  0  0  0
 22 23  1  0  0  0
 23 28  2  0  0  0
 23 24  1  0  0  0
 24 25  2  0  0  0
 25 26  1  0  0  0
 25 49  1  0  0  0
 26 27  2  0  0  0
 26 50  1  0  0  0
 27 28  1  0  0  0
 27 51  1  0  0  0
 28 52  1  0  0  0
 29 30  1  0  0  0
 29 53  1  0  0  0
 30 31  2  0  0  0
M  END
> <i_i_glide_confnum>
83

> <i_i_glide_lignum>
2682

> <i_i_glide_posenum>
287

> <i_i_glide_rotatable_bonds>
6

> <i_m_Source_File_Index>
2645

> <b_m_subgroup_collapsed>
0

> <r_i_docking_score>
-5.40358

> <r_i_glide_ecoul>
-3.76085

> <r_i_glide_eff_state_penalty>
0

> <r_i_glide_einternal>
9.89296

> <r_i_glide_emodel>
-51.7845

> <r_i_glide_energy>
-42.9191

> <r_i_glide_erotb>
0.597761

> <r_i_glide_esite>
-0.0524708

> <r_i_glide_evdw>
-39.1582

> <r_i_glide_gscore>
-5.40358

> <r_i_glide_hbond>
-0.153634

> <r_i_glide_ligand_efficiency>
-0.180119

> <r_i_glide_ligand_efficiency_ln>
-1.22775

> <r_i_glide_ligand_efficiency_sa>
-0.559673

> <r_i_glide_lipo>
-2.1001

> <r_i_glide_metal>
0

> <r_i_glide_rewards>
-1.1731

> <s_i_glide_gridfile>
wee1_glide-grid

> <s_m_Source_File>
wee1_decoys_glide_SP.sdf

> <s_m_Source_Path>
/Users/zhangxujun/Desktop

> <s_m_entry_id>
2920

> <s_m_entry_name>
wee1_decoys_glide_SP.2645

> <s_m_subgroup_title>
wee1_decoys_glide_SP

> <s_m_subgroupid>
wee1_decoys_glide_SP


$$$$
