@<TRIPOS>MOLECULE
ZINC33825844_4235
57   60    1
SMALL
USER_CHARGES


@<TRIPOS>ATOM
      1 C1          5.8929   54.7076   25.7790 C.ar      1 UNK         0.0000 
      2 C2          6.3739   54.5010   27.0705 C.ar      1 UNK         0.0000 
      3 C3          5.5024   54.0828   28.0728 C.ar      1 UNK         0.0000 
      4 C4          4.1551   53.8481   27.7838 C.ar      1 UNK         0.0000 
      5 C5          3.6799   54.0645   26.4831 C.ar      1 UNK         0.0000 
      6 C6          4.5481   54.4960   25.4830 C.ar      1 UNK         0.0000 
      7 C7          3.2486   53.3589   28.9119 C.3       1 UNK         0.0000 
      8 O8          1.9677   52.9360   28.4439 O.3       1 UNK         0.0000 
      9 C9          0.9949   52.5396   29.3148 C.2       1 UNK         0.0000 
     10 O10         1.1825   52.5153   30.5368 O.2       1 UNK         0.0000 
     11 N11        -0.2008   52.1941   28.6384 N.am      1 UNK         0.0000 
     12 C12        -0.2632   52.1655   27.1594 C.3       1 UNK         0.0000 
     13 C13        -1.7391   52.2269   26.6173 C.3       1 UNK         0.0000 
     14 H14        -2.0485   53.2703   26.7038 H         1 UNK         0.0000 
     15 C15        -1.8375   51.8438   25.1211 C.3       1 UNK         0.0000 
     16 H16        -1.3370   52.6519   24.5952 H         1 UNK         0.0000 
     17 C17        -3.3042   51.8570   24.6056 C.3       1 UNK         0.0000 
     18 C18        -4.3082   51.0270   25.4715 C.3       1 UNK         0.0000 
     19 H19        -4.2486   49.9927   25.1280 H         1 UNK         0.0000 
     20 C20        -3.9254   50.9689   26.9601 C.2       1 UNK         0.0000 
     21 C21        -2.7635   51.4549   27.4760 C.2       1 UNK         0.0000 
     22 C22        -2.4249   51.2959   28.8837 C.2       1 UNK         0.0000 
     23 C23        -1.2422   51.6953   29.3746 C.2       1 UNK         0.0000 
     24 C24        -4.8378   50.2660   27.8119 C.1       1 UNK         0.0000 
     25 N25        -5.6157   49.7258   28.4771 N.1       1 UNK         0.0000 
     26 N26        -5.7139   51.3772   25.3009 N.3       1 UNK         0.0000 
     27 C27        -3.7600   53.2594   24.5352 C.1       1 UNK         0.0000 
     28 N28        -4.1182   54.3580   24.4816 N.1       1 UNK         0.0000 
     29 C29        -3.3094   51.3222   23.2290 C.1       1 UNK         0.0000 
     30 N30        -3.2980   50.8966   22.1521 N.1       1 UNK         0.0000 
     31 C31        -1.0694   50.5500   24.7763 C.ar      1 UNK         0.0000 
     32 C32        -1.5166   49.3463   25.3414 C.ar      1 UNK         0.0000 
     33 C33        -0.8901   48.1452   25.0810 C.ar      1 UNK         0.0000 
     34 C34         0.2080   48.1307   24.2470 C.ar      1 UNK         0.0000 
     35 C35         0.6942   49.3028   23.6784 C.ar      1 UNK         0.0000 
     36 C36         0.0699   50.5316   23.9308 C.ar      1 UNK         0.0000 
     37 C37         0.6620   51.7982   23.2898 C.3       1 UNK         0.0000 
     38 F38         1.7457   51.5463   22.5527 F         1 UNK         0.0000 
     39 F39        -0.2414   52.3668   22.4913 F         1 UNK         0.0000 
     40 F40         1.0210   52.6697   24.2338 F         1 UNK         0.0000 
     41 H41         6.5668   55.0336   25.0001 H         1 UNK         0.0000 
     42 H42         7.4150   54.6696   27.3031 H         1 UNK         0.0000 
     43 H43         5.8866   53.9342   29.0713 H         1 UNK         0.0000 
     44 H44         2.6445   53.8898   26.2349 H         1 UNK         0.0000 
     45 H45         4.1820   54.6560   24.4788 H         1 UNK         0.0000 
     46 H46         3.7368   52.5218   29.4129 H         1 UNK         0.0000 
     47 H47         3.1316   54.1629   29.6397 H         1 UNK         0.0000 
     48 H48         0.3176   52.9743   26.7164 H         1 UNK         0.0000 
     49 H49         0.2152   51.2333   26.8566 H         1 UNK         0.0000 
     50 H50        -3.1243   50.8443   29.5746 H         1 UNK         0.0000 
     51 H51        -1.0353   51.5616   30.4322 H         1 UNK         0.0000 
     52 H52        -6.3099   50.7277   25.7991 H         1 UNK         0.0000 
     53 H53        -5.9134   52.3008   25.6618 H         1 UNK         0.0000 
     54 H54        -2.3371   49.2953   26.0315 H         1 UNK         0.0000 
     55 H55        -1.2351   47.2403   25.5597 H         1 UNK         0.0000 
     56 H56         0.7044   47.1973   24.0818 H         1 UNK         0.0000 
     57 H57         1.5743   49.2397   23.0548 H         1 UNK         0.0000 
@<TRIPOS>BOND
     1    1    6 ar   
     2    1    2 ar   
     3    1   41 1    
     4    2    3 ar   
     5    2   42 1    
     6    3    4 ar   
     7    3   43 1    
     8    4    5 ar   
     9    4    7 1    
    10    5    6 ar   
    11    5   44 1    
    12    6   45 1    
    13    7    8 1    
    14    7   46 1    
    15    7   47 1    
    16    8    9 1    
    17    9   10 2    
    18    9   11 am   BACKBONE|DICT|INTERRES
    19   11   23 1    
    20   11   12 1    
    21   12   13 1    
    22   12   48 1    
    23   12   49 1    
    24   13   14 1    
    25   13   21 1    
    26   13   15 1    
    27   15   16 1    
    28   15   17 1    
    29   15   31 1    
    30   17   18 1    
    31   17   27 1    
    32   17   29 1    
    33   18   19 1    
    34   18   20 1    
    35   18   26 1    
    36   20   21 2    
    37   20   24 1    
    38   21   22 1    
    39   22   23 2    
    40   22   50 1    
    41   23   51 1    
    42   24   25 3    
    43   26   52 1    
    44   26   53 1    
    45   27   28 3    
    46   29   30 3    
    47   31   36 ar   
    48   31   32 ar   
    49   32   33 ar   
    50   32   54 1    
    51   33   34 ar   
    52   33   55 1    
    53   34   35 ar   
    54   34   56 1    
    55   35   36 ar   
    56   35   57 1    
    57   36   37 1    
    58   37   38 1    
    59   37   39 1    
    60   37   40 1    
@<TRIPOS>SUBSTRUCTURE
     1 UNK         1 GROUP             0       ****    0 ROOT    
