@<TRIPOS>MOLECULE
ZINC20570474_4327
52   55    1
SMALL
USER_CHARGES


@<TRIPOS>ATOM
      1 C1          3.9943   54.0891   29.6681 C.3       1 UNK         0.0000 
      2 C2          3.6455   54.2098   28.1754 C.3       1 UNK         0.0000 
      3 H3          3.1560   55.1808   28.0507 H         1 UNK         0.0000 
      4 C4          2.7076   53.0700   27.7355 C.3       1 UNK         0.0000 
      5 C5          2.1484   53.3054   26.3181 C.3       1 UNK         0.0000 
      6 C6          3.2736   53.7245   25.3628 C.2       1 UNK         0.0000 
      7 C7          4.5288   54.1328   25.8385 C.2       1 UNK         0.0000 
      8 S8          5.6227   54.4970   24.5449 S.3       1 UNK         0.0000 
      9 C9          4.4012   54.1273   23.3472 C.2       1 UNK         0.0000 
     10 C10         3.2141   53.6969   23.9519 C.2       1 UNK         0.0000 
     11 C11         2.0361   53.2540   23.2110 C.1       1 UNK         0.0000 
     12 N12         1.1052   52.8957   22.6255 N.1       1 UNK         0.0000 
     13 N13         4.6000   54.2779   21.9687 N.am      1 UNK         0.0000 
     14 C14         5.6480   54.8276   21.3148 C.2       1 UNK         0.0000 
     15 O15         6.6486   55.2966   21.8611 O.2       1 UNK         0.0000 
     16 C16         5.5043   54.8983   19.8120 C.ar      1 UNK         0.0000 
     17 C17         6.1546   55.9222   19.1065 C.ar      1 UNK         0.0000 
     18 C18         6.0294   56.0248   17.7232 C.ar      1 UNK         0.0000 
     19 C19         5.2616   55.0985   17.0207 C.ar      1 UNK         0.0000 
     20 C20         4.6002   54.0675   17.6980 C.ar      1 UNK         0.0000 
     21 C21         4.7339   53.9681   19.0876 C.ar      1 UNK         0.0000 
     22 N22         3.8456   53.0928   17.0283 N.pl3     1 UNK         0.0000 
     23 S23         2.7337   53.4355   15.6853 S.o2      1 UNK         0.0000 
     24 O24         3.4171   54.3061   14.7207 O.2       1 UNK         0.0000 
     25 O25         2.1955   52.1382   15.2616 O.2       1 UNK         0.0000 
     26 C26         1.3685   54.3649   16.3828 C.ar      1 UNK         0.0000 
     27 C27         0.2321   53.6874   16.8332 C.ar      1 UNK         0.0000 
     28 C28        -0.8706   54.4136   17.2811 C.ar      1 UNK         0.0000 
     29 C29        -0.8313   55.8059   17.2840 C.ar      1 UNK         0.0000 
     30 C30         0.3174   56.4846   16.8790 C.ar      1 UNK         0.0000 
     31 C31         1.4217   55.7630   16.4259 C.ar      1 UNK         0.0000 
     32 F32        -1.9114   56.4983   17.7117 F         1 UNK         0.0000 
     33 C33         4.9324   54.1927   27.3093 C.3       1 UNK         0.0000 
     34 H34         4.4551   53.1231   29.8858 H         1 UNK         0.0000 
     35 H35         4.6853   54.8739   29.9772 H         1 UNK         0.0000 
     36 H36         3.0965   54.1761   30.2789 H         1 UNK         0.0000 
     37 H37         1.8657   53.0003   28.4268 H         1 UNK         0.0000 
     38 H38         3.2037   52.1031   27.8261 H         1 UNK         0.0000 
     39 H39         1.6304   52.4117   25.9685 H         1 UNK         0.0000 
     40 H40         1.4027   54.0954   26.3545 H         1 UNK         0.0000 
     41 H41         3.8135   54.0168   21.3916 H         1 UNK         0.0000 
     42 H42         6.7620   56.6525   19.6255 H         1 UNK         0.0000 
     43 H43         6.5365   56.8161   17.1900 H         1 UNK         0.0000 
     44 H44         5.2151   55.1855   15.9489 H         1 UNK         0.0000 
     45 H45         4.2369   53.1508   19.5970 H         1 UNK         0.0000 
     46 H46         3.6585   52.2365   17.5325 H         1 UNK         0.0000 
     47 H47         0.1892   52.6078   16.8072 H         1 UNK         0.0000 
     48 H48        -1.7592   53.8966   17.6078 H         1 UNK         0.0000 
     49 H49         0.3485   57.5645   16.9021 H         1 UNK         0.0000 
     50 H50         2.3026   56.2865   16.0849 H         1 UNK         0.0000 
     51 H51         5.5485   55.0690   27.5180 H         1 UNK         0.0000 
     52 H52         5.5348   53.3160   27.5551 H         1 UNK         0.0000 
@<TRIPOS>BOND
     1    1    2 1    
     2    1   34 1    
     3    1   35 1    
     4    1   36 1    
     5    2    3 1    
     6    2   33 1    
     7    2    4 1    
     8    4    5 1    
     9    4   37 1    
    10    4   38 1    
    11    5    6 1    
    12    5   39 1    
    13    5   40 1    
    14    6   10 1    
    15    6    7 2    
    16    7    8 1    
    17    7   33 1    
    18    8    9 1    
    19    9   10 2    
    20    9   13 am   BACKBONE|DICT|INTERRES
    21   10   11 1    
    22   11   12 3    
    23   13   14 am   BACKBONE|DICT|INTERRES
    24   13   41 1    
    25   14   15 2    
    26   14   16 1    
    27   16   21 ar   
    28   16   17 ar   
    29   17   18 ar   
    30   17   42 1    
    31   18   19 ar   
    32   18   43 1    
    33   19   20 ar   
    34   19   44 1    
    35   20   21 ar   
    36   20   22 1    
    37   21   45 1    
    38   22   23 1    
    39   22   46 1    
    40   23   24 2    
    41   23   25 2    
    42   23   26 1    
    43   26   31 ar   
    44   26   27 ar   
    45   27   28 ar   
    46   27   47 1    
    47   28   29 ar   
    48   28   48 1    
    49   29   30 ar   
    50   29   32 1    
    51   30   31 ar   
    52   30   49 1    
    53   31   50 1    
    54   33   51 1    
    55   33   52 1    
@<TRIPOS>SUBSTRUCTURE
     1 UNK         1 GROUP             0       ****    0 ROOT    
