@<TRIPOS>MOLECULE
ZINC19850513_1174
50   52    1
SMALL
USER_CHARGES


@<TRIPOS>ATOM
      1 C1          6.1845   54.0610   26.7946 C.ar      1 UNK         0.0000 
      2 C2          6.4857   54.1626   25.4380 C.ar      1 UNK         0.0000 
      3 C3          5.4660   54.3713   24.5157 C.ar      1 UNK         0.0000 
      4 C4          4.1475   54.4967   24.9418 C.ar      1 UNK         0.0000 
      5 C5          3.8520   54.4157   26.2998 C.ar      1 UNK         0.0000 
      6 C6          4.8598   54.1639   27.2403 C.ar      1 UNK         0.0000 
      7 C7          4.5936   54.0667   28.6890 C.2       1 UNK         0.0000 
      8 N8          3.5831   53.6069   29.3279 N.2       1 UNK         0.0000 
      9 N9          2.6006   52.9647   28.6415 N.am      1 UNK         0.0000 
     10 C10         1.4858   52.5152   29.2678 C.2       1 UNK         0.0000 
     11 O11         1.3101   52.6409   30.4816 O.2       1 UNK         0.0000 
     12 C12         0.3508   51.8166   28.4818 C.3       1 UNK         0.0000 
     13 N13         0.7050   51.4083   27.0207 N.4       1 UNK         0.0000 
     14 C14        -0.0712   50.1246   26.6166 C.3       1 UNK         0.0000 
     15 C15         0.2426   49.7325   25.1548 C.3       1 UNK         0.0000 
     16 N16         0.0901   50.8775   24.2242 N.pl3     1 UNK         0.0000 
     17 C17         0.8240   52.1050   24.6026 C.3       1 UNK         0.0000 
     18 C18         0.4415   52.5634   26.0220 C.3       1 UNK         0.0000 
     19 S19        -1.3871   51.0122   23.2384 S.o2      1 UNK         0.0000 
     20 O20        -1.1863   52.0964   22.2691 O.2       1 UNK         0.0000 
     21 O21        -1.7514   49.6625   22.7927 O.2       1 UNK         0.0000 
     22 C22        -2.6775   51.5496   24.3622 C.ar      1 UNK         0.0000 
     23 C23        -3.0458   52.8969   24.4152 C.ar      1 UNK         0.0000 
     24 C24        -4.0620   53.3042   25.2764 C.ar      1 UNK         0.0000 
     25 C25        -4.6988   52.3652   26.0854 C.ar      1 UNK         0.0000 
     26 C26        -4.3267   51.0226   26.0427 C.ar      1 UNK         0.0000 
     27 C27        -3.3181   50.6120   25.1756 C.ar      1 UNK         0.0000 
     28 Br28       -6.0960   52.9178   27.2540 Br        1 UNK         0.0000 
     29 Cl29        5.8434   54.4839   22.8357 Cl        1 UNK         0.0000 
     30 H30         6.9924   53.8900   27.4936 H         1 UNK         0.0000 
     31 H31         7.5045   54.0765   25.0929 H         1 UNK         0.0000 
     32 H32         3.3632   54.6877   24.2235 H         1 UNK         0.0000 
     33 H33         2.8370   54.5874   26.6166 H         1 UNK         0.0000 
     34 H34         5.4122   54.4713   29.2804 H         1 UNK         0.0000 
     35 H35         2.7568   52.8602   27.6506 H         1 UNK         0.0000 
     36 H36         0.1069   50.8964   29.0140 H         1 UNK         0.0000 
     37 H37        -0.5637   52.4110   28.4568 H         1 UNK         0.0000 
     38 H38         0.3003   49.3448   27.2742 H         1 UNK         0.0000 
     39 H39        -1.1343   50.2693   26.8161 H         1 UNK         0.0000 
     40 H40         1.2403   49.3030   25.0435 H         1 UNK         0.0000 
     41 H41        -0.4604   48.9591   24.8428 H         1 UNK         0.0000 
     42 H42         0.6026   52.8816   23.8690 H         1 UNK         0.0000 
     43 H43         1.8932   51.9009   24.5236 H         1 UNK         0.0000 
     44 H44        -0.6063   52.8596   26.1059 H         1 UNK         0.0000 
     45 H45         1.0766   53.3902   26.3276 H         1 UNK         0.0000 
     46 H46        -2.5590   53.6272   23.7849 H         1 UNK         0.0000 
     47 H47        -4.3566   54.3425   25.3142 H         1 UNK         0.0000 
     48 H48        -4.8236   50.2995   26.6735 H         1 UNK         0.0000 
     49 H49        -3.0402   49.5676   25.1382 H         1 UNK         0.0000 
     50 H50         1.6825   51.1565   26.9701 H         1 UNK         0.0000 
@<TRIPOS>BOND
     1    1    6 ar   
     2    1    2 ar   
     3    1   30 1    
     4    2    3 ar   
     5    2   31 1    
     6    3    4 ar   
     7    3   29 1    
     8    4    5 ar   
     9    4   32 1    
    10    5    6 ar   
    11    5   33 1    
    12    6    7 1    
    13    7    8 2    
    14    7   34 1    
    15    8    9 1    
    16    9   10 am   BACKBONE|DICT|INTERRES
    17    9   35 1    
    18   10   11 2    
    19   10   12 1    
    20   12   13 1    
    21   12   36 1    
    22   12   37 1    
    23   13   18 1    
    24   13   14 1    
    25   13   50 1    
    26   14   15 1    
    27   14   38 1    
    28   14   39 1    
    29   15   16 1    
    30   15   40 1    
    31   15   41 1    
    32   16   17 1    
    33   16   19 1    
    34   17   18 1    
    35   17   42 1    
    36   17   43 1    
    37   18   44 1    
    38   18   45 1    
    39   19   20 2    
    40   19   21 2    
    41   19   22 1    
    42   22   27 ar   
    43   22   23 ar   
    44   23   24 ar   
    45   23   46 1    
    46   24   25 ar   
    47   24   47 1    
    48   25   26 ar   
    49   25   28 1    
    50   26   27 ar   
    51   26   48 1    
    52   27   49 1    
@<TRIPOS>SUBSTRUCTURE
     1 UNK         1 GROUP             0       ****    0 ROOT    
