ZINC00675051_3627
                    3D
 Schrodinger Suite 2024-2.
 49 52  0  0  1  0            999 V2000
    4.4153   54.2959   27.5639 C   0  0  0  0  0  0
    5.6995   54.0525   26.7491 C   0  0  1  0  0  0
    6.0247   53.0259   26.9256 H   0  0  0  0  0  0
    5.5612   54.2090   25.2261 C   0  0  0  0  0  0
    6.7122   54.4293   24.4655 C   0  0  0  0  0  0
    6.6474   54.5742   23.0891 C   0  0  0  0  0  0
    5.4122   54.4947   22.4442 C   0  0  0  0  0  0
    4.2582   54.2101   23.1781 C   0  0  0  0  0  0
    4.3288   54.0959   24.5664 C   0  0  0  0  0  0
    5.2745   54.7289   21.0691 N   0  0  0  0  0  0
    5.9042   55.6961   20.3543 C   0  0  0  0  0  0
    6.7323   56.4666   20.8495 O   0  0  0  0  0  0
    5.4850   55.8065   18.9638 C   0  0  0  0  0  0
    5.7329   56.8699   18.1593 C   0  0  0  0  0  0
    5.0331   56.6324   16.9396 C   0  0  0  0  0  0
    5.1091   57.2878   15.8481 N   0  0  0  0  0  0
    4.3656   56.8408   14.6608 C   0  0  1  0  0  0
    5.1166   56.4139   13.9931 H   0  0  0  0  0  0
    3.3067   55.7206   14.9258 C   0  0  0  0  0  0
    3.7397   54.7158   16.0264 C   0  0  1  0  0  0
    4.6260   54.1810   15.6757 H   0  0  0  0  0  0
    4.1841   55.5193   17.1753 N   0  0  0  0  0  0
    4.6671   54.8691   18.3329 N   0  0  0  0  0  0
    2.6288   53.6760   16.3448 C   0  0  0  0  0  0
    2.2934   52.9924   15.2514 F   0  0  0  0  0  0
    3.0134   52.7883   17.2605 F   0  0  0  0  0  0
    1.5199   54.2586   16.8025 F   0  0  0  0  0  0
    3.7670   58.0384   13.9354 C   0  0  0  0  0  0
    3.5902   59.3571   14.3669 C   0  0  0  0  0  0
    2.9895   60.2028   13.4311 C   0  0  0  0  0  0
    2.6882   59.5502   12.2507 C   0  0  0  0  0  0
    3.1537   57.8852   12.3073 S   0  0  0  0  0  0
    6.8243   58.4937   18.4970 Br  0  0  0  0  0  0
    6.7056   54.8963   27.2814 O   0  0  0  0  0  0
    4.6006   54.2026   28.6343 H   0  0  0  0  0  0
    4.0080   55.2902   27.3821 H   0  0  0  0  0  0
    3.6438   53.5655   27.3196 H   0  0  0  0  0  0
    7.6768   54.4998   24.9400 H   0  0  0  0  0  0
    7.5555   54.7662   22.5367 H   0  0  0  0  0  0
    3.2983   54.1350   22.6876 H   0  0  0  0  0  0
    3.4183   53.9018   25.1127 H   0  0  0  0  0  0
    4.5479   54.2038   20.6108 H   0  0  0  0  0  0
    2.3833   56.2048   15.2525 H   0  0  0  0  0  0
    3.0774   55.2024   13.9942 H   0  0  0  0  0  0
    3.8576   54.4424   18.7685 H   0  0  0  0  0  0
    3.8963   59.6963   15.3476 H   0  0  0  0  0  0
    2.7914   61.2484   13.6169 H   0  0  0  0  0  0
    2.2262   59.9608   11.3657 H   0  0  0  0  0  0
    6.6101   54.9566   28.2375 H   0  0  0  0  0  0
  1  2  1  0  0  0
  1 35  1  0  0  0
  1 36  1  0  0  0
  1 37  1  0  0  0
  2  3  1  0  0  0
  2  4  1  0  0  0
  2 34  1  0  0  0
  4  9  2  0  0  0
  4  5  1  0  0  0
  5  6  2  0  0  0
  5 38  1  0  0  0
  6  7  1  0  0  0
  6 39  1  0  0  0
  7  8  2  0  0  0
  7 10  1  0  0  0
  8  9  1  0  0  0
  8 40  1  0  0  0
  9 41  1  0  0  0
 10 11  1  0  0  0
 10 42  1  0  0  0
 11 12  2  0  0  0
 11 13  1  0  0  0
 13 23  1  0  0  0
 13 14  2  0  0  0
 14 15  1  0  0  0
 14 33  1  0  0  0
 15 22  1  0  0  0
 15 16  2  0  0  0
 16 17  1  0  0  0
 17 18  1  0  0  0
 17 19  1  0  0  0
 17 28  1  0  0  0
 19 20  1  0  0  0
 19 43  1  0  0  0
 19 44  1  0  0  0
 20 21  1  0  0  0
 20 22  1  0  0  0
 20 24  1  0  0  0
 22 23  1  0  0  0
 23 45  1  0  0  0
 24 25  1  0  0  0
 24 26  1  0  0  0
 24 27  1  0  0  0
 28 32  1  0  0  0
 28 29  2  0  0  0
 29 30  1  0  0  0
 29 46  1  0  0  0
 30 31  2  0  0  0
 30 47  1  0  0  0
 31 32  1  0  0  0
 31 48  1  0  0  0
 34 49  1  0  0  0
M  END
> <i_i_glide_confnum>
162

> <i_i_glide_lignum>
3628

> <i_i_glide_posenum>
335

> <i_i_glide_rotatable_bonds>
7

> <i_m_Source_File_Index>
3895

> <b_m_subgroup_collapsed>
0

> <r_i_docking_score>
-5.00503

> <r_i_glide_ecoul>
-7.4529

> <r_i_glide_eff_state_penalty>
0

> <r_i_glide_einternal>
10.3001

> <r_i_glide_emodel>
-50.6685

> <r_i_glide_energy>
-41.2348

> <r_i_glide_erotb>
0.386291

> <r_i_glide_esite>
-0.0516329

> <r_i_glide_evdw>
-33.7819

> <r_i_glide_gscore>
-5.00503

> <r_i_glide_hbond>
-0.351311

> <r_i_glide_ligand_efficiency>
-0.161453

> <r_i_glide_ligand_efficiency_ln>
-1.12879

> <r_i_glide_ligand_efficiency_sa>
-0.507184

> <r_i_glide_lipo>
-2.1185

> <r_i_glide_metal>
0

> <r_i_glide_rewards>
-0.0628535

> <s_i_glide_gridfile>
wee1_glide-grid

> <s_m_Source_File>
wee1_decoys_glide_SP.sdf

> <s_m_Source_Path>
/Users/zhangxujun/Desktop

> <s_m_entry_id>
4170

> <s_m_entry_name>
wee1_decoys_glide_SP.3895

> <s_m_subgroup_title>
wee1_decoys_glide_SP

> <s_m_subgroupid>
wee1_decoys_glide_SP


$$$$
