@<TRIPOS>MOLECULE
ZINC61327821_4812
40   42    1
SMALL
USER_CHARGES


@<TRIPOS>ATOM
      1 C1          5.9078   58.4934   16.8361 C.3       1 UNK         0.0000 
      2 N2          6.0121   57.1700   17.4386 N.am      1 UNK         0.0000 
      3 C3          6.2478   56.9529   18.7403 C.2       1 UNK         0.0000 
      4 O4          6.7059   57.8061   19.5025 O.2       1 UNK         0.0000 
      5 N5          5.8644   55.7128   19.1114 N.am      1 UNK         0.0000 
      6 C6          5.8783   55.1836   20.4138 C.ar      1 UNK         0.0000 
      7 C7          6.8065   55.5830   21.3826 C.ar      1 UNK         0.0000 
      8 C8          6.7105   55.0930   22.6756 C.ar      1 UNK         0.0000 
      9 C9          5.7191   54.1712   23.0077 C.ar      1 UNK         0.0000 
     10 C10         4.8403   53.7085   22.0274 C.ar      1 UNK         0.0000 
     11 C11         4.9155   54.2193   20.7316 C.ar      1 UNK         0.0000 
     12 N12         5.6016   53.6967   24.3183 N.pl3     1 UNK         0.0000 
     13 C13         5.2811   54.6620   25.3674 C.3       1 UNK         0.0000 
     14 H14         4.8861   55.5620   24.8965 H         1 UNK         0.0000 
     15 C15         6.5593   55.0366   26.1627 C.3       1 UNK         0.0000 
     16 C16         6.9625   53.9857   27.2141 C.3       1 UNK         0.0000 
     17 C17         5.8823   53.8025   28.2983 C.3       1 UNK         0.0000 
     18 C18         4.5198   53.6969   27.6366 C.2       1 UNK         0.0000 
     19 C19         4.2287   54.0966   26.3230 C.2       1 UNK         0.0000 
     20 C20         2.8787   53.8842   26.0072 C.2       1 UNK         0.0000 
     21 C21         2.1419   53.3636   27.0614 C.2       1 UNK         0.0000 
     22 S22         3.1116   53.1220   28.4752 S.3       1 UNK         0.0000 
     23 H23         6.2065   58.4498   15.7872 H         1 UNK         0.0000 
     24 H24         6.5398   59.2316   17.3344 H         1 UNK         0.0000 
     25 H25         4.8772   58.8444   16.8822 H         1 UNK         0.0000 
     26 H26         5.8252   56.3828   16.8361 H         1 UNK         0.0000 
     27 H27         5.3898   55.1530   18.4204 H         1 UNK         0.0000 
     28 H28         7.6030   56.2731   21.1546 H         1 UNK         0.0000 
     29 H29         7.4314   55.4310   23.4008 H         1 UNK         0.0000 
     30 H30         4.0777   52.9828   22.2702 H         1 UNK         0.0000 
     31 H31         4.2050   53.8835   19.9886 H         1 UNK         0.0000 
     32 H32         5.0747   52.8405   24.4161 H         1 UNK         0.0000 
     33 H33         7.3984   55.2165   25.4957 H         1 UNK         0.0000 
     34 H34         6.3772   55.9851   26.6674 H         1 UNK         0.0000 
     35 H35         7.1475   53.0310   26.7188 H         1 UNK         0.0000 
     36 H36         7.9032   54.2725   27.6853 H         1 UNK         0.0000 
     37 H37         6.0909   52.9064   28.8806 H         1 UNK         0.0000 
     38 H38         5.9032   54.6515   28.9823 H         1 UNK         0.0000 
     39 H39         2.4544   54.1083   25.0393 H         1 UNK         0.0000 
     40 H40         1.0904   53.1151   27.0754 H         1 UNK         0.0000 
@<TRIPOS>BOND
     1    1    2 1    
     2    1   23 1    
     3    1   24 1    
     4    1   25 1    
     5    2    3 am   BACKBONE|DICT|INTERRES
     6    2   26 1    
     7    3    4 2    
     8    3    5 am   BACKBONE|DICT|INTERRES
     9    5    6 1    
    10    5   27 1    
    11    6   11 ar   
    12    6    7 ar   
    13    7    8 ar   
    14    7   28 1    
    15    8    9 ar   
    16    8   29 1    
    17    9   10 ar   
    18    9   12 1    
    19   10   11 ar   
    20   10   30 1    
    21   11   31 1    
    22   12   13 1    
    23   12   32 1    
    24   13   14 1    
    25   13   19 1    
    26   13   15 1    
    27   15   16 1    
    28   15   33 1    
    29   15   34 1    
    30   16   17 1    
    31   16   35 1    
    32   16   36 1    
    33   17   18 1    
    34   17   37 1    
    35   17   38 1    
    36   18   22 1    
    37   18   19 2    
    38   19   20 1    
    39   20   21 2    
    40   20   39 1    
    41   21   22 1    
    42   21   40 1    
@<TRIPOS>SUBSTRUCTURE
     1 UNK         1 GROUP             0       ****    0 ROOT    
