@<TRIPOS>MOLECULE
ZINC40947305_3744
47   49    1
SMALL
USER_CHARGES


@<TRIPOS>ATOM
      1 C1          0.1037   53.5790   31.2370 C.3       1 UNK         0.0000 
      2 C2          1.1797   53.6765   30.1715 C.ar      1 UNK         0.0000 
      3 C3          1.7003   52.5078   29.6166 C.ar      1 UNK         0.0000 
      4 C4          2.7065   52.5828   28.6587 C.ar      1 UNK         0.0000 
      5 C5          3.1930   53.8247   28.2462 C.ar      1 UNK         0.0000 
      6 C6          2.6610   54.9943   28.7956 C.ar      1 UNK         0.0000 
      7 C7          1.6508   54.9224   29.7515 C.ar      1 UNK         0.0000 
      8 C8          4.2910   53.8946   27.1864 C.3       1 UNK         0.0000 
      9 O9          3.9096   54.6989   26.0656 O.3       1 UNK         0.0000 
     10 C10         3.1760   54.0754   25.0750 C.ar      1 UNK         0.0000 
     11 C11         1.8591   53.6960   25.3522 C.ar      1 UNK         0.0000 
     12 C12         1.0634   53.1013   24.3809 C.ar      1 UNK         0.0000 
     13 C13         1.5865   52.8650   23.1178 C.ar      1 UNK         0.0000 
     14 C14         2.9025   53.2195   22.8331 C.ar      1 UNK         0.0000 
     15 C15         3.7207   53.8567   23.7889 C.ar      1 UNK         0.0000 
     16 C16         5.1350   54.2477   23.5269 C.2       1 UNK         0.0000 
     17 N17         5.7786   54.4826   22.4448 N.2       1 UNK         0.0000 
     18 N18         5.1073   54.4113   21.2786 N.am      1 UNK         0.0000 
     19 C19         5.7163   54.4851   20.0809 C.2       1 UNK         0.0000 
     20 O20         6.8669   54.9005   19.9186 O.2       1 UNK         0.0000 
     21 C21         4.8823   53.9735   18.8945 C.3       1 UNK         0.0000 
     22 S22         5.6647   54.1558   17.2527 S.3       1 UNK         0.0000 
     23 C23         5.3899   55.8726   16.9598 C.2       1 UNK         0.0000 
     24 N24         4.7281   56.6917   17.7442 N.2       1 UNK         0.0000 
     25 N25         4.7046   57.9960   17.2765 N.2       1 UNK         0.0000 
     26 C26         5.3361   58.1263   16.1412 C.2       1 UNK         0.0000 
     27 S27         6.0321   56.6536   15.5433 S.3       1 UNK         0.0000 
     28 N28         5.4736   59.2961   15.4601 N.pl3     1 UNK         0.0000 
     29 Br29        0.5054   52.0574   21.7761 Br        1 UNK         0.0000 
     30 H30        -0.3512   54.5461   31.4517 H         1 UNK         0.0000 
     31 H31        -0.6858   52.8992   30.9152 H         1 UNK         0.0000 
     32 H32         0.5165   53.1727   32.1611 H         1 UNK         0.0000 
     33 H33         1.3232   51.5439   29.9241 H         1 UNK         0.0000 
     34 H34         3.0991   51.6761   28.2278 H         1 UNK         0.0000 
     35 H35         3.0238   55.9600   28.4821 H         1 UNK         0.0000 
     36 H36         1.2485   55.8329   30.1732 H         1 UNK         0.0000 
     37 H37         4.6003   52.8966   26.8671 H         1 UNK         0.0000 
     38 H38         5.1744   54.3447   27.6406 H         1 UNK         0.0000 
     39 H39         1.4368   53.8813   26.3267 H         1 UNK         0.0000 
     40 H40         0.0450   52.8224   24.6091 H         1 UNK         0.0000 
     41 H41         3.2577   52.9472   21.8534 H         1 UNK         0.0000 
     42 H42         5.7062   54.3418   24.4462 H         1 UNK         0.0000 
     43 H43         4.1327   54.1654   21.3540 H         1 UNK         0.0000 
     44 H44         3.8911   54.4290   18.8901 H         1 UNK         0.0000 
     45 H45         4.7295   52.9029   19.0402 H         1 UNK         0.0000 
     46 H46         5.0895   60.1633   15.8523 H         1 UNK         0.0000 
     47 H47         6.1101   59.4016   14.6873 H         1 UNK         0.0000 
@<TRIPOS>BOND
     1    1    2 1    
     2    1   30 1    
     3    1   31 1    
     4    1   32 1    
     5    2    7 ar   
     6    2    3 ar   
     7    3    4 ar   
     8    3   33 1    
     9    4    5 ar   
    10    4   34 1    
    11    5    6 ar   
    12    5    8 1    
    13    6    7 ar   
    14    6   35 1    
    15    7   36 1    
    16    8    9 1    
    17    8   37 1    
    18    8   38 1    
    19    9   10 1    
    20   10   15 ar   
    21   10   11 ar   
    22   11   12 ar   
    23   11   39 1    
    24   12   13 ar   
    25   12   40 1    
    26   13   14 ar   
    27   13   29 1    
    28   14   15 ar   
    29   14   41 1    
    30   15   16 1    
    31   16   17 2    
    32   16   42 1    
    33   17   18 1    
    34   18   19 am   BACKBONE|DICT|INTERRES
    35   18   43 1    
    36   19   20 2    
    37   19   21 1    
    38   21   22 1    
    39   21   44 1    
    40   21   45 1    
    41   22   23 1    
    42   23   27 1    
    43   23   24 2    
    44   24   25 1    
    45   25   26 2    
    46   26   27 1    
    47   26   28 1    
    48   28   46 1    
    49   28   47 1    
@<TRIPOS>SUBSTRUCTURE
     1 UNK         1 GROUP             0       ****    0 ROOT    
