@<TRIPOS>MOLECULE
ZINC36714435_5052
56   59    1
SMALL
USER_CHARGES


@<TRIPOS>ATOM
      1 C1          0.3806   53.3828   29.7932 C.3       1 UNK         0.0000 
      2 C2          1.4277   53.5900   28.7123 C.ar      1 UNK         0.0000 
      3 C3          1.3376   52.8900   27.5101 C.ar      1 UNK         0.0000 
      4 C4          2.2960   53.0799   26.5171 C.ar      1 UNK         0.0000 
      5 C5          3.3604   53.9720   26.7072 C.ar      1 UNK         0.0000 
      6 C6          3.4633   54.6302   27.9438 C.ar      1 UNK         0.0000 
      7 C7          2.4979   54.4553   28.9315 C.ar      1 UNK         0.0000 
      8 N8          4.3469   54.1899   25.6914 N.pl3     1 UNK         0.0000 
      9 C9          4.2449   54.1903   24.2971 C.ar      1 UNK         0.0000 
     10 C10         5.5518   54.4649   23.8430 C.ar      1 UNK         0.0000 
     11 C11         6.3161   54.6066   25.0024 C.ar      1 UNK         0.0000 
     12 N12         5.6061   54.4711   26.0893 N.2       1 UNK         0.0000 
     13 C13         6.0374   54.4720   22.4818 C.2       1 UNK         0.0000 
     14 O14         5.4877   53.7810   21.6218 O.2       1 UNK         0.0000 
     15 N15         7.1039   55.2700   22.2399 N.am      1 UNK         0.0000 
     16 N16         7.6172   55.2967   20.9359 N.am      1 UNK         0.0000 
     17 C17         7.3013   56.3141   20.1146 C.2       1 UNK         0.0000 
     18 O18         6.6575   57.2967   20.4815 O.2       1 UNK         0.0000 
     19 C19         7.7953   56.2212   18.6541 C.3       1 UNK         0.0000 
     20 H20         7.9438   55.1834   18.3500 H         1 UNK         0.0000 
     21 C21         9.1398   56.9459   18.4908 C.3       1 UNK         0.0000 
     22 O22         6.8833   56.8956   17.7760 O.3       1 UNK         0.0000 
     23 C23         5.6203   56.3869   17.5298 C.ar      1 UNK         0.0000 
     24 C24         4.7149   57.2476   16.9152 C.ar      1 UNK         0.0000 
     25 C25         3.4187   56.8398   16.6130 C.ar      1 UNK         0.0000 
     26 C26         2.9975   55.5218   16.9120 C.ar      1 UNK         0.0000 
     27 C27         1.6920   55.0647   16.6025 C.ar      1 UNK         0.0000 
     28 C28         1.3180   53.7553   16.8964 C.ar      1 UNK         0.0000 
     29 C29         2.2162   52.8812   17.5015 C.ar      1 UNK         0.0000 
     30 C30         3.5034   53.3011   17.8262 C.ar      1 UNK         0.0000 
     31 C31         3.9167   54.6260   17.5383 C.ar      1 UNK         0.0000 
     32 C32         5.2213   55.0806   17.8471 C.ar      1 UNK         0.0000 
     33 C33         2.9495   53.9526   23.5075 C.3       1 UNK         0.0000 
     34 F34         3.0050   54.4967   22.2989 F         1 UNK         0.0000 
     35 F35         2.7041   52.6566   23.3293 F         1 UNK         0.0000 
     36 F36         1.8851   54.4968   24.0898 F         1 UNK         0.0000 
     37 H37        -0.0264   52.3711   29.7575 H         1 UNK         0.0000 
     38 H38         0.8105   53.5073   30.7879 H         1 UNK         0.0000 
     39 H39        -0.4391   54.0920   29.6758 H         1 UNK         0.0000 
     40 H40         0.5260   52.1963   27.3422 H         1 UNK         0.0000 
     41 H41         2.2027   52.4977   25.6160 H         1 UNK         0.0000 
     42 H42         4.2871   55.2966   28.1474 H         1 UNK         0.0000 
     43 H43         2.5837   54.9968   29.8618 H         1 UNK         0.0000 
     44 H44         7.3800   54.7879   25.0436 H         1 UNK         0.0000 
     45 H45         7.7177   55.6708   22.9355 H         1 UNK         0.0000 
     46 H46         8.2545   54.5427   20.7233 H         1 UNK         0.0000 
     47 H47         9.9044   56.5064   19.1291 H         1 UNK         0.0000 
     48 H48         9.4938   56.8791   17.4615 H         1 UNK         0.0000 
     49 H49         9.0629   58.0051   18.7423 H         1 UNK         0.0000 
     50 H50         5.0228   58.2569   16.6794 H         1 UNK         0.0000 
     51 H51         2.7308   57.5294   16.1452 H         1 UNK         0.0000 
     52 H52         0.9901   55.7368   16.1302 H         1 UNK         0.0000 
     53 H53         0.3238   53.4126   16.6514 H         1 UNK         0.0000 
     54 H54         1.9181   51.8658   17.7187 H         1 UNK         0.0000 
     55 H55         4.1966   52.6116   18.2901 H         1 UNK         0.0000 
     56 H56         5.8968   54.3849   18.3195 H         1 UNK         0.0000 
@<TRIPOS>BOND
     1    1    2 1    
     2    1   37 1    
     3    1   38 1    
     4    1   39 1    
     5    2    7 ar   
     6    2    3 ar   
     7    3    4 ar   
     8    3   40 1    
     9    4    5 ar   
    10    4   41 1    
    11    5    6 ar   
    12    5    8 1    
    13    6    7 ar   
    14    6   42 1    
    15    7   43 1    
    16    8   12 ar   
    17    8    9 ar   
    18    9   10 ar   
    19    9   33 1    
    20   10   11 ar   
    21   10   13 1    
    22   11   12 ar   
    23   11   44 1    
    24   13   14 2    
    25   13   15 am   BACKBONE|DICT|INTERRES
    26   15   16 1    
    27   15   45 1    
    28   16   17 am   BACKBONE|DICT|INTERRES
    29   16   46 1    
    30   17   18 2    
    31   17   19 1    
    32   19   20 1    
    33   19   21 1    
    34   19   22 1    
    35   21   47 1    
    36   21   48 1    
    37   21   49 1    
    38   22   23 1    
    39   23   32 ar   
    40   23   24 ar   
    41   24   25 ar   
    42   24   50 1    
    43   25   26 ar   
    44   25   51 1    
    45   26   31 ar   
    46   26   27 ar   
    47   27   28 ar   
    48   27   52 1    
    49   28   29 ar   
    50   28   53 1    
    51   29   30 ar   
    52   29   54 1    
    53   30   31 ar   
    54   30   55 1    
    55   31   32 ar   
    56   32   56 1    
    57   33   34 1    
    58   33   35 1    
    59   33   36 1    
@<TRIPOS>SUBSTRUCTURE
     1 UNK         1 GROUP             0       ****    0 ROOT    
