@<TRIPOS>MOLECULE
ZINC33781679_3317
59   61    1
SMALL
USER_CHARGES


@<TRIPOS>ATOM
      1 C1          3.3316   54.1250   26.2194 C.3       1 UNK         0.0000 
      2 C2          2.0586   53.2966   26.1943 C.ar      1 UNK         0.0000 
      3 C3          1.4735   52.9459   24.9795 C.ar      1 UNK         0.0000 
      4 C4          0.3028   52.1910   24.9589 C.ar      1 UNK         0.0000 
      5 C5         -0.3169   51.7761   26.1485 C.ar      1 UNK         0.0000 
      6 C6          0.2878   52.1240   27.3745 C.ar      1 UNK         0.0000 
      7 C7          1.4634   52.8845   27.3869 C.ar      1 UNK         0.0000 
      8 C8         -0.3127   51.6978   28.7100 C.3       1 UNK         0.0000 
      9 N9         -1.5143   51.0235   26.1678 N.pl3     1 UNK         0.0000 
     10 C10        -2.2981   50.6852   24.9746 C.3       1 UNK         0.0000 
     11 H11        -3.2282   50.2847   25.3833 H         1 UNK         0.0000 
     12 C12        -2.7490   51.8804   24.0961 C.2       1 UNK         0.0000 
     13 C13        -2.4754   51.9513   22.7719 C.2       1 UNK         0.0000 
     14 C14        -1.7364   50.9318   22.0380 C.2       1 UNK         0.0000 
     15 C15        -1.3977   49.7255   22.7927 C.2       1 UNK         0.0000 
     16 C16        -1.6676   49.5730   24.1083 C.2       1 UNK         0.0000 
     17 N17        -1.4561   48.2549   24.7313 N.pl3     1 UNK         0.0000 
     18 O18        -0.4950   47.5933   24.3461 O.co2     1 UNK         0.0000 
     19 O19        -2.2962   47.8885   25.5428 O.co2     1 UNK         0.0000 
     20 C20        -1.4241   51.1074   20.7244 C.2       1 UNK         0.0000 
     21 O21        -1.7122   52.0966   19.9417 O.co2     1 UNK         0.0000 
     22 N22        -0.6850   50.1706   19.9968 N.pl3     1 UNK         0.0000 
     23 C23         0.7052   50.3511   20.0235 C.ar      1 UNK         0.0000 
     24 C24         1.5350   49.4326   19.4973 C.ar      1 UNK         0.0000 
     25 C25         1.0526   48.1835   18.9674 C.ar      1 UNK         0.0000 
     26 O26         1.8730   47.2972   18.7193 O.2       1 UNK         0.0000 
     27 N27        -0.3282   48.0857   18.8557 N.pl3     1 UNK         0.0000 
     28 C28        -1.2403   49.0481   19.3496 C.ar      1 UNK         0.0000 
     29 S29        -2.9304   48.8699   19.2244 S.2       1 UNK         0.0000 
     30 C30        -0.8109   46.7969   18.2227 C.3       1 UNK         0.0000 
     31 C31        -0.3910   46.6038   16.7432 C.3       1 UNK         0.0000 
     32 C32        -0.6013   45.5346   19.0964 C.3       1 UNK         0.0000 
     33 C33         1.3113   51.6308   20.6226 C.3       1 UNK         0.0000 
     34 N34        -3.5372   52.9629   24.7306 N.pl3     1 UNK         0.0000 
     35 O35        -3.6957   54.0052   24.0945 O.co2     1 UNK         0.0000 
     36 O36        -3.9948   52.7532   25.8495 O.co2     1 UNK         0.0000 
     37 H37         3.3440   54.7897   27.0854 H         1 UNK         0.0000 
     38 H38         4.2078   53.4766   26.2609 H         1 UNK         0.0000 
     39 H39         3.4053   54.7600   25.3350 H         1 UNK         0.0000 
     40 H40         1.9259   53.2527   24.0471 H         1 UNK         0.0000 
     41 H41        -0.1001   51.9248   23.9986 H         1 UNK         0.0000 
     42 H42         1.9205   53.1553   28.3272 H         1 UNK         0.0000 
     43 H43         0.2776   52.0238   29.5671 H         1 UNK         0.0000 
     44 H44        -1.3221   52.0935   28.8171 H         1 UNK         0.0000 
     45 H45        -0.3889   50.6125   28.7489 H         1 UNK         0.0000 
     46 H46        -1.3980   50.2260   26.7850 H         1 UNK         0.0000 
     47 H47        -2.8312   52.8048   22.2132 H         1 UNK         0.0000 
     48 H48        -0.9846   48.8797   22.2596 H         1 UNK         0.0000 
     49 H49         2.6059   49.5908   19.4885 H         1 UNK         0.0000 
     50 H50        -1.8918   46.8031   18.1126 H         1 UNK         0.0000 
     51 H51        -0.7628   45.6527   16.3603 H         1 UNK         0.0000 
     52 H52        -0.8170   47.3832   16.1093 H         1 UNK         0.0000 
     53 H53         0.6905   46.5917   16.5991 H         1 UNK         0.0000 
     54 H54        -1.0066   44.6518   18.5979 H         1 UNK         0.0000 
     55 H55         0.4515   45.3174   19.2799 H         1 UNK         0.0000 
     56 H56        -1.1193   45.6256   20.0544 H         1 UNK         0.0000 
     57 H57         2.4009   51.6335   20.5559 H         1 UNK         0.0000 
     58 H58         1.0605   51.7298   21.6780 H         1 UNK         0.0000 
     59 H59         0.9602   52.5188   20.0948 H         1 UNK         0.0000 
@<TRIPOS>BOND
     1    1    2 1    
     2    1   37 1    
     3    1   38 1    
     4    1   39 1    
     5    2    7 ar   
     6    2    3 ar   
     7    3    4 ar   
     8    3   40 1    
     9    4    5 ar   
    10    4   41 1    
    11    5    6 ar   
    12    5    9 1    
    13    6    7 ar   
    14    6    8 1    
    15    7   42 1    
    16    8   43 1    
    17    8   44 1    
    18    8   45 1    
    19    9   10 1    
    20    9   46 1    
    21   10   11 1    
    22   10   16 1    
    23   10   12 1    
    24   12   13 2    
    25   12   34 1    
    26   13   14 1    
    27   13   47 1    
    28   14   15 1    
    29   14   20 2    
    30   15   16 2    
    31   15   48 1    
    32   16   17 1    
    33   17   18 2    
    34   17   19 1    
    35   20   21 1    
    36   20   22 1    
    37   22   28 ar   
    38   22   23 ar   
    39   23   24 ar   
    40   23   33 1    
    41   24   25 ar   
    42   24   49 1    
    43   25   26 2    
    44   25   27 ar   
    45   27   28 ar   
    46   27   30 1    
    47   28   29 2    
    48   30   31 1    
    49   30   32 1    
    50   30   50 1    
    51   31   51 1    
    52   31   52 1    
    53   31   53 1    
    54   32   54 1    
    55   32   55 1    
    56   32   56 1    
    57   33   57 1    
    58   33   58 1    
    59   33   59 1    
    60   34   35 2    
    61   34   36 1    
@<TRIPOS>SUBSTRUCTURE
     1 UNK         1 GROUP             0       ****    0 ROOT    
