@<TRIPOS>MOLECULE
ZINC16007121_5232
60   66    1
SMALL
USER_CHARGES


@<TRIPOS>ATOM
      1 C1          4.9181   54.0443   21.2496 C.ar      1 UNK         0.0000 
      2 C2          4.8206   53.0089   20.3255 C.ar      1 UNK         0.0000 
      3 C3          3.8423   52.0300   20.4784 C.ar      1 UNK         0.0000 
      4 C4          2.9227   52.0703   21.5366 C.ar      1 UNK         0.0000 
      5 C5          3.0597   53.1088   22.4812 C.ar      1 UNK         0.0000 
      6 C6          4.0408   54.0911   22.3291 C.ar      1 UNK         0.0000 
      7 C7          2.1090   53.2093   23.5970 C.2       1 UNK         0.0000 
      8 C8          0.9579   52.5198   23.6364 C.2       1 UNK         0.0000 
      9 C9          1.8153   51.0068   21.7529 C.3       1 UNK         0.0000 
     10 H10         2.2202   50.2820   22.4659 H         1 UNK         0.0000 
     11 C11         1.0788   50.3097   20.5647 C.3       1 UNK         0.0000 
     12 C12         0.9129   51.1753   19.3309 C.ar      1 UNK         0.0000 
     13 C13         0.2753   52.4001   19.1243 C.ar      1 UNK         0.0000 
     14 C14         0.3169   53.0027   17.8641 C.ar      1 UNK         0.0000 
     15 C15         1.0080   52.3906   16.8149 C.ar      1 UNK         0.0000 
     16 C16         1.6603   51.1745   17.0246 C.ar      1 UNK         0.0000 
     17 C17         1.5994   50.5868   18.2863 C.ar      1 UNK         0.0000 
     18 N18         2.2021   49.4253   18.7257 N.am      1 UNK         0.0000 
     19 C19         1.9337   49.1447   20.0112 C.2       1 UNK         0.0000 
     20 O20         2.3044   48.1581   20.6399 O.2       1 UNK         0.0000 
     21 C21        -0.1973   49.7163   21.2888 C.3       1 UNK         0.0000 
     22 H22        -0.0002   48.6869   21.5884 H         1 UNK         0.0000 
     23 C23        -0.4470   50.5334   22.5930 C.3       1 UNK         0.0000 
     24 H24        -1.4047   51.0542   22.6458 H         1 UNK         0.0000 
     25 C25        -0.2873   49.6530   23.8698 C.2       1 UNK         0.0000 
     26 O26         0.7047   49.7403   24.5927 O.2       1 UNK         0.0000 
     27 C27        -1.3547   48.7098   24.1821 C.2       1 UNK         0.0000 
     28 C28        -1.5467   47.8576   25.2633 C.2       1 UNK         0.0000 
     29 C29        -2.7634   47.2076   25.0552 C.2       1 UNK         0.0000 
     30 C30        -3.2540   47.6769   23.8474 C.2       1 UNK         0.0000 
     31 O31        -2.4003   48.5920   23.3197 O.3       1 UNK         0.0000 
     32 C32        -1.4858   49.6697   20.4226 C.2       1 UNK         0.0000 
     33 O33        -2.1213   50.7149   20.2556 O.2       1 UNK         0.0000 
     34 C34        -2.0094   48.3294   19.9945 C.ar      1 UNK         0.0000 
     35 C35        -1.1703   47.2137   19.8497 C.ar      1 UNK         0.0000 
     36 C36        -1.6908   45.9852   19.4529 C.ar      1 UNK         0.0000 
     37 C37        -3.0520   45.8615   19.1896 C.ar      1 UNK         0.0000 
     38 C38        -3.8952   46.9630   19.3091 C.ar      1 UNK         0.0000 
     39 C39        -3.3752   48.1931   19.7042 C.ar      1 UNK         0.0000 
     40 Cl40       -3.6951   44.3333   18.7090 Cl        1 UNK         0.0000 
     41 H41         5.6740   54.8065   21.1304 H         1 UNK         0.0000 
     42 H42         5.5011   52.9557   19.4872 H         1 UNK         0.0000 
     43 H43         3.8161   51.2412   19.7445 H         1 UNK         0.0000 
     44 H44         4.1223   54.8966   23.0433 H         1 UNK         0.0000 
     45 H45         2.3379   53.8658   24.4253 H         1 UNK         0.0000 
     46 H46         0.2311   52.5995   24.4336 H         1 UNK         0.0000 
     47 H47        -0.2370   52.8961   19.9311 H         1 UNK         0.0000 
     48 H48        -0.1681   53.9548   17.7065 H         1 UNK         0.0000 
     49 H49         1.0522   52.8652   15.8456 H         1 UNK         0.0000 
     50 H50         2.2196   50.7109   16.2236 H         1 UNK         0.0000 
     51 H51         2.8542   48.8980   18.1540 H         1 UNK         0.0000 
     52 H52        -0.8952   47.7377   26.1198 H         1 UNK         0.0000 
     53 H53        -3.2300   46.4971   25.7219 H         1 UNK         0.0000 
     54 H54        -4.1518   47.4811   23.2795 H         1 UNK         0.0000 
     55 H55        -0.1085   47.2676   20.0300 H         1 UNK         0.0000 
     56 H56        -1.0365   45.1327   19.3468 H         1 UNK         0.0000 
     57 H57        -4.9493   46.8677   19.0946 H         1 UNK         0.0000 
     58 H58        -4.0492   49.0348   19.7904 H         1 UNK         0.0000 
     59 N59         0.6166   51.6517   22.4967 N.4       1 UNK         0.0000 
     60 H60         0.2371   52.2835   21.8059 H         1 UNK         0.0000 
@<TRIPOS>BOND
     1    1    6 ar   
     2    1    2 ar   
     3    1   41 1    
     4    2    3 ar   
     5    2   42 1    
     6    3    4 ar   
     7    3   43 1    
     8    4    9 1    
     9    4    5 ar   
    10    5    6 ar   
    11    5    7 1    
    12    6   44 1    
    13    7    8 2    
    14    7   45 1    
    15    8   46 1    
    16    8   59 1    
    17    9   10 1    
    18    9   11 1    
    19    9   59 1    
    20   11   19 1    
    21   11   12 1    
    22   11   21 1    
    23   12   17 ar   
    24   12   13 ar   
    25   13   14 ar   
    26   13   47 1    
    27   14   15 ar   
    28   14   48 1    
    29   15   16 ar   
    30   15   49 1    
    31   16   17 ar   
    32   16   50 1    
    33   17   18 1    
    34   18   19 am   BACKBONE|DICT|INTERRES
    35   18   51 1    
    36   19   20 2    
    37   21   22 1    
    38   21   23 1    
    39   21   32 1    
    40   23   24 1    
    41   23   25 1    
    42   23   59 1    
    43   25   26 2    
    44   25   27 1    
    45   27   31 1    
    46   27   28 2    
    47   28   29 1    
    48   28   52 1    
    49   29   30 2    
    50   29   53 1    
    51   30   31 1    
    52   30   54 1    
    53   32   33 2    
    54   32   34 1    
    55   34   39 ar   
    56   34   35 ar   
    57   35   36 ar   
    58   35   55 1    
    59   36   37 ar   
    60   36   56 1    
    61   37   38 ar   
    62   37   40 1    
    63   38   39 ar   
    64   38   57 1    
    65   39   58 1    
    66   59   60 1    
@<TRIPOS>SUBSTRUCTURE
     1 UNK         1 GROUP             0       ****    0 ROOT    
