@<TRIPOS>MOLECULE
ZINC08644385_2393
39   42    1
SMALL
USER_CHARGES


@<TRIPOS>ATOM
      1 C1          2.7085   54.6169   28.2494 C.ar      1 UNK         0.0000 
      2 C2          1.5689   54.4766   29.0321 C.ar      1 UNK         0.0000 
      3 C3          1.5599   53.5623   30.0815 C.ar      1 UNK         0.0000 
      4 C4          2.6869   52.7890   30.3545 C.ar      1 UNK         0.0000 
      5 C5          3.8340   52.9382   29.5770 C.ar      1 UNK         0.0000 
      6 C6          3.8489   53.8569   28.5218 C.ar      1 UNK         0.0000 
      7 C7          5.0622   54.0444   27.6760 C.2       1 UNK         0.0000 
      8 N8          6.3020   53.6973   27.9295 N.2       1 UNK         0.0000 
      9 N9          7.0462   54.0961   26.8230 N.2       1 UNK         0.0000 
     10 C10         6.1935   54.6289   25.9841 C.2       1 UNK         0.0000 
     11 O11         4.9271   54.6401   26.4624 O.3       1 UNK         0.0000 
     12 C12         6.4406   55.1606   24.5924 C.3       1 UNK         0.0000 
     13 S13         5.8221   54.0276   23.3073 S.3       1 UNK         0.0000 
     14 C14         6.3097   54.8967   21.8514 C.ar      1 UNK         0.0000 
     15 N15         7.4374   55.5480   21.7173 N.2       1 UNK         0.0000 
     16 N16         7.4530   56.0968   20.4452 N.2       1 UNK         0.0000 
     17 C17         6.3191   55.7917   19.8630 C.ar      1 UNK         0.0000 
     18 N18         5.5750   54.9689   20.6871 N.pl3     1 UNK         0.0000 
     19 N19         4.3526   54.3704   20.4228 N.3       1 UNK         0.0000 
     20 C20         5.9054   56.3081   18.5151 C.ar      1 UNK         0.0000 
     21 C21         5.3459   55.4139   17.5928 C.ar      1 UNK         0.0000 
     22 C22         4.9244   55.8518   16.3380 C.ar      1 UNK         0.0000 
     23 C23         5.0556   57.1940   15.9871 C.ar      1 UNK         0.0000 
     24 C24         5.6159   58.0959   16.8896 C.ar      1 UNK         0.0000 
     25 C25         6.0473   57.6618   18.1444 C.ar      1 UNK         0.0000 
     26 Cl26        6.7045   58.8489   19.2226 Cl        1 UNK         0.0000 
     27 Cl27        4.5236   57.7378   14.4382 Cl        1 UNK         0.0000 
     28 Cl28        0.1510   53.4033   31.0631 Cl        1 UNK         0.0000 
     29 H29         2.7042   55.3257   27.4356 H         1 UNK         0.0000 
     30 H30         0.7025   55.0824   28.8224 H         1 UNK         0.0000 
     31 H31         2.6723   52.0922   31.1788 H         1 UNK         0.0000 
     32 H32         4.7070   52.3392   29.7923 H         1 UNK         0.0000 
     33 H33         5.9563   56.1291   24.4805 H         1 UNK         0.0000 
     34 H34         7.5042   55.3293   24.4332 H         1 UNK         0.0000 
     35 H35         4.4017   53.3619   20.3979 H         1 UNK         0.0000 
     36 H36         3.5877   54.7366   20.9718 H         1 UNK         0.0000 
     37 H37         5.2372   54.3684   17.8438 H         1 UNK         0.0000 
     38 H38         4.4941   55.1485   15.6400 H         1 UNK         0.0000 
     39 H39         5.7065   59.1418   16.6235 H         1 UNK         0.0000 
@<TRIPOS>BOND
     1    1    6 ar   
     2    1    2 ar   
     3    1   29 1    
     4    2    3 ar   
     5    2   30 1    
     6    3    4 ar   
     7    3   28 1    
     8    4    5 ar   
     9    4   31 1    
    10    5    6 ar   
    11    5   32 1    
    12    6    7 1    
    13    7   11 1    
    14    7    8 2    
    15    8    9 1    
    16    9   10 2    
    17   10   11 1    
    18   10   12 1    
    19   12   13 1    
    20   12   33 1    
    21   12   34 1    
    22   13   14 1    
    23   14   18 ar   
    24   14   15 ar   
    25   15   16 ar   
    26   16   17 ar   
    27   17   18 ar   
    28   17   20 1    
    29   18   19 1    
    30   19   35 1    
    31   19   36 1    
    32   20   25 ar   
    33   20   21 ar   
    34   21   22 ar   
    35   21   37 1    
    36   22   23 ar   
    37   22   38 1    
    38   23   24 ar   
    39   23   27 1    
    40   24   25 ar   
    41   24   39 1    
    42   25   26 1    
@<TRIPOS>SUBSTRUCTURE
     1 UNK         1 GROUP             0       ****    0 ROOT    
