@<TRIPOS>MOLECULE
ZINC09698937_4218
58   62    1
SMALL
USER_CHARGES


@<TRIPOS>ATOM
      1 C1         -2.8734   50.8954   27.6989 C.3       1 UNK         0.0000 
      2 C2         -1.5256   51.5378   27.9673 C.ar      1 UNK         0.0000 
      3 C3         -1.0814   51.6965   29.2808 C.ar      1 UNK         0.0000 
      4 C4          0.1644   52.2574   29.5325 C.ar      1 UNK         0.0000 
      5 C5          0.9714   52.6576   28.4614 C.ar      1 UNK         0.0000 
      6 C6          0.5267   52.4969   27.1456 C.ar      1 UNK         0.0000 
      7 C7         -0.7211   51.9337   26.8998 C.ar      1 UNK         0.0000 
      8 N8          2.2273   53.2386   28.6796 N.am      1 UNK         0.0000 
      9 C9          2.5796   54.5612   28.1672 C.3       1 UNK         0.0000 
     10 C10         4.0751   54.7105   28.3967 C.3       1 UNK         0.0000 
     11 H11         4.3050   55.6958   28.7894 H         1 UNK         0.0000 
     12 C12         4.3570   53.6898   29.4859 C.3       1 UNK         0.0000 
     13 C13         3.1786   52.7307   29.5071 C.2       1 UNK         0.0000 
     14 O14         3.1553   51.6967   30.1675 O.2       1 UNK         0.0000 
     15 C15         4.9983   54.4967   27.1683 C.2       1 UNK         0.0000 
     16 O16         6.2164   54.5241   27.3481 O.2       1 UNK         0.0000 
     17 N17         4.4115   54.3458   25.9623 N.am      1 UNK         0.0000 
     18 C18         5.0192   54.3234   24.7169 C.2       1 UNK         0.0000 
     19 N19         4.3124   54.0965   23.6388 N.2       1 UNK         0.0000 
     20 C20         5.0323   54.1806   22.5310 C.2       1 UNK         0.0000 
     21 C21         6.3759   54.4967   22.7259 C.2       1 UNK         0.0000 
     22 S22         6.7042   54.6597   24.4192 S.3       1 UNK         0.0000 
     23 C23         4.3100   53.9703   21.2098 C.3       1 UNK         0.0000 
     24 C24         3.7434   52.5571   21.0289 C.2       1 UNK         0.0000 
     25 O25         4.4627   51.5894   21.2809 O.2       1 UNK         0.0000 
     26 N26         2.4606   52.4967   20.6131 N.am      1 UNK         0.0000 
     27 C27         1.6965   51.3717   20.3507 C.2       1 UNK         0.0000 
     28 N28         0.4386   51.5136   20.0434 N.2       1 UNK         0.0000 
     29 C29        -0.1503   50.3131   19.7982 C.ar      1 UNK         0.0000 
     30 C30        -1.4972   50.1421   19.4476 C.ar      1 UNK         0.0000 
     31 C31        -1.9649   48.8457   19.2205 C.ar      1 UNK         0.0000 
     32 C32        -1.1223   47.7345   19.3299 C.ar      1 UNK         0.0000 
     33 C33         0.2219   47.8857   19.6818 C.ar      1 UNK         0.0000 
     34 C34         0.6982   49.1812   19.9179 C.ar      1 UNK         0.0000 
     35 S35         2.3039   49.7183   20.3781 S.3       1 UNK         0.0000 
     36 C36        -1.6767   46.3440   19.0814 C.3       1 UNK         0.0000 
     37 H37        -3.2068   50.2982   28.5503 H         1 UNK         0.0000 
     38 H38        -3.6260   51.6521   27.4676 H         1 UNK         0.0000 
     39 H39        -2.8025   50.2099   26.8520 H         1 UNK         0.0000 
     40 H40        -1.6934   51.3572   30.1068 H         1 UNK         0.0000 
     41 H41         0.4944   52.3698   30.5555 H         1 UNK         0.0000 
     42 H42         1.1473   52.7921   26.3129 H         1 UNK         0.0000 
     43 H43        -1.0587   51.7961   25.8829 H         1 UNK         0.0000 
     44 H44         2.0492   55.2942   28.7779 H         1 UNK         0.0000 
     45 H45         2.2321   54.7948   27.1618 H         1 UNK         0.0000 
     46 H46         5.2436   53.0838   29.2818 H         1 UNK         0.0000 
     47 H47         4.5063   54.1624   30.4551 H         1 UNK         0.0000 
     48 H48         3.4128   54.2140   25.9507 H         1 UNK         0.0000 
     49 H49         7.1583   54.6347   21.9947 H         1 UNK         0.0000 
     50 H50         4.9784   54.1528   20.3687 H         1 UNK         0.0000 
     51 H51         3.5103   54.7061   21.1116 H         1 UNK         0.0000 
     52 H52         1.9790   53.3789   20.4817 H         1 UNK         0.0000 
     53 H53        -2.1560   50.9897   19.3500 H         1 UNK         0.0000 
     54 H54        -3.0021   48.7066   18.9482 H         1 UNK         0.0000 
     55 H55         0.8793   47.0332   19.7645 H         1 UNK         0.0000 
     56 H56        -1.5692   46.0720   18.0309 H         1 UNK         0.0000 
     57 H57        -1.1577   45.6024   19.6897 H         1 UNK         0.0000 
     58 H58        -2.7319   46.2860   19.3520 H         1 UNK         0.0000 
@<TRIPOS>BOND
     1    1    2 1    
     2    1   37 1    
     3    1   38 1    
     4    1   39 1    
     5    2    7 ar   
     6    2    3 ar   
     7    3    4 ar   
     8    3   40 1    
     9    4    5 ar   
    10    4   41 1    
    11    5    6 ar   
    12    5    8 1    
    13    6    7 ar   
    14    6   42 1    
    15    7   43 1    
    16    8   13 am   BACKBONE|DICT|INTERRES
    17    8    9 1    
    18    9   10 1    
    19    9   44 1    
    20    9   45 1    
    21   10   11 1    
    22   10   12 1    
    23   10   15 1    
    24   12   13 1    
    25   12   46 1    
    26   12   47 1    
    27   13   14 2    
    28   15   16 2    
    29   15   17 am   BACKBONE|DICT|INTERRES
    30   17   18 am   BACKBONE|DICT|INTERRES
    31   17   48 1    
    32   18   22 1    
    33   18   19 2    
    34   19   20 1    
    35   20   21 2    
    36   20   23 1    
    37   21   22 1    
    38   21   49 1    
    39   23   24 1    
    40   23   50 1    
    41   23   51 1    
    42   24   25 2    
    43   24   26 am   BACKBONE|DICT|INTERRES
    44   26   27 am   BACKBONE|DICT|INTERRES
    45   26   52 1    
    46   27   35 1    
    47   27   28 2    
    48   28   29 1    
    49   29   34 ar   
    50   29   30 ar   
    51   30   31 ar   
    52   30   53 1    
    53   31   32 ar   
    54   31   54 1    
    55   32   33 ar   
    56   32   36 1    
    57   33   34 ar   
    58   33   55 1    
    59   34   35 1    
    60   36   56 1    
    61   36   57 1    
    62   36   58 1    
@<TRIPOS>SUBSTRUCTURE
     1 UNK         1 GROUP             0       ****    0 ROOT    
