@<TRIPOS>MOLECULE
ZINC06147668_14
48   52    1
SMALL
USER_CHARGES


@<TRIPOS>ATOM
      1 C1          4.2801   54.1592   28.0350 C.ar      1 UNK         0.0000 
      2 C2          4.3855   54.4962   26.6830 C.ar      1 UNK         0.0000 
      3 C3          3.4397   54.0299   25.7670 C.ar      1 UNK         0.0000 
      4 C4          2.3790   53.2319   26.2104 C.ar      1 UNK         0.0000 
      5 C5          2.2773   52.8984   27.5582 C.ar      1 UNK         0.0000 
      6 C6          3.2306   53.3495   28.4728 C.ar      1 UNK         0.0000 
      7 C7          1.1270   51.9481   27.7448 C.3       1 UNK         0.0000 
      8 C8          0.4030   52.0187   26.3999 C.3       1 UNK         0.0000 
      9 N9          1.3631   52.6072   25.4710 N.pl3     1 UNK         0.0000 
     10 S10         0.8603   53.0593   23.8281 S.o2      1 UNK         0.0000 
     11 O11         1.1039   54.4967   23.6970 O.2       1 UNK         0.0000 
     12 O12        -0.4755   52.4932   23.6043 O.2       1 UNK         0.0000 
     13 C13         1.9721   52.2650   22.6875 C.ar      1 UNK         0.0000 
     14 C14         1.8598   50.9032   22.4073 C.ar      1 UNK         0.0000 
     15 C15         2.7043   50.3261   21.4608 C.ar      1 UNK         0.0000 
     16 C16         3.6623   51.1039   20.8061 C.ar      1 UNK         0.0000 
     17 C17         3.7980   52.4712   21.0922 C.ar      1 UNK         0.0000 
     18 C18         2.9462   53.0337   22.0481 C.ar      1 UNK         0.0000 
     19 C19         4.8276   53.3510   20.4188 C.2       1 UNK         0.0000 
     20 O20         5.1367   54.4257   20.9417 O.2       1 UNK         0.0000 
     21 N21         5.3507   52.8967   19.2574 N.am      1 UNK         0.0000 
     22 C22         6.3045   53.5436   18.4901 C.ar      1 UNK         0.0000 
     23 N23         6.7789   52.8965   17.3789 N.pl3     1 UNK         0.0000 
     24 H24         6.4459   51.9816   17.0999 H         1 UNK         0.0000 
     25 C25         7.7762   53.6741   16.8402 C.ar      1 UNK         0.0000 
     26 C26         8.6335   53.5260   15.7463 C.ar      1 UNK         0.0000 
     27 C27         9.5503   54.5599   15.5313 C.ar      1 UNK         0.0000 
     28 C28         9.6107   55.6830   16.3600 C.ar      1 UNK         0.0000 
     29 C29         8.7511   55.8254   17.4512 C.ar      1 UNK         0.0000 
     30 C30         7.8208   54.8051   17.6962 C.ar      1 UNK         0.0000 
     31 N31         6.8886   54.7047   18.6951 N.2       1 UNK         0.0000 
     32 H32         5.0217   54.5112   28.7384 H         1 UNK         0.0000 
     33 H33         5.2057   55.1116   26.3432 H         1 UNK         0.0000 
     34 H34         3.5492   54.2875   24.7231 H         1 UNK         0.0000 
     35 H35         3.1747   53.0686   29.5127 H         1 UNK         0.0000 
     36 H36         0.4629   52.2553   28.5535 H         1 UNK         0.0000 
     37 H37         1.4555   50.9276   27.9444 H         1 UNK         0.0000 
     38 H38        -0.4559   52.6865   26.4765 H         1 UNK         0.0000 
     39 H39         0.0188   51.0619   26.0437 H         1 UNK         0.0000 
     40 H40         1.1130   50.3005   22.9035 H         1 UNK         0.0000 
     41 H41         2.6211   49.2730   21.2324 H         1 UNK         0.0000 
     42 H42         4.3020   50.6233   20.0817 H         1 UNK         0.0000 
     43 H43         3.0231   54.0892   22.2718 H         1 UNK         0.0000 
     44 H44         5.0988   51.9682   18.9231 H         1 UNK         0.0000 
     45 H45         8.6005   52.6589   15.1038 H         1 UNK         0.0000 
     46 H46        10.2366   54.4878   14.6984 H         1 UNK         0.0000 
     47 H47        10.3420   56.4526   16.1560 H         1 UNK         0.0000 
     48 H48         8.8069   56.6910   18.0941 H         1 UNK         0.0000 
@<TRIPOS>BOND
     1    1    6 ar   
     2    1    2 ar   
     3    1   32 1    
     4    2    3 ar   
     5    2   33 1    
     6    3    4 ar   
     7    3   34 1    
     8    4    9 1    
     9    4    5 ar   
    10    5    6 ar   
    11    5    7 1    
    12    6   35 1    
    13    7    8 1    
    14    7   36 1    
    15    7   37 1    
    16    8    9 1    
    17    8   38 1    
    18    8   39 1    
    19    9   10 1    
    20   10   11 2    
    21   10   12 2    
    22   10   13 1    
    23   13   18 ar   
    24   13   14 ar   
    25   14   15 ar   
    26   14   40 1    
    27   15   16 ar   
    28   15   41 1    
    29   16   17 ar   
    30   16   42 1    
    31   17   18 ar   
    32   17   19 1    
    33   18   43 1    
    34   19   20 2    
    35   19   21 am   BACKBONE|DICT|INTERRES
    36   21   22 1    
    37   21   44 1    
    38   22   31 ar   
    39   22   23 ar   
    40   23   24 1    
    41   23   25 ar   
    42   25   30 ar   
    43   25   26 ar   
    44   26   27 ar   
    45   26   45 1    
    46   27   28 ar   
    47   27   46 1    
    48   28   29 ar   
    49   28   47 1    
    50   29   30 ar   
    51   29   48 1    
    52   30   31 ar   
@<TRIPOS>SUBSTRUCTURE
     1 UNK         1 GROUP             0       ****    0 ROOT    
