@<TRIPOS>MOLECULE
ZINC20478621_2017
36   37    1
SMALL
USER_CHARGES


@<TRIPOS>ATOM
      1 C1          4.2619   54.4975   26.5410 C.ar      1 UNK         0.0000 
      2 C2          3.1926   54.1699   27.3720 C.ar      1 UNK         0.0000 
      3 C3          3.4202   53.4312   28.5314 C.ar      1 UNK         0.0000 
      4 C4          4.7068   53.0242   28.8691 C.ar      1 UNK         0.0000 
      5 C5          5.7760   53.3547   28.0402 C.ar      1 UNK         0.0000 
      6 C6          5.5577   54.0867   26.8709 C.ar      1 UNK         0.0000 
      7 N7          6.6660   54.3514   26.0494 N.pl3     1 UNK         0.0000 
      8 C8          6.7562   55.3507   24.9999 C.3       1 UNK         0.0000 
      9 C9          6.3027   54.8971   23.5970 C.2       1 UNK         0.0000 
     10 O10         6.7054   55.5468   22.6308 O.2       1 UNK         0.0000 
     11 N11         5.4403   53.8503   23.5277 N.am      1 UNK         0.0000 
     12 N12         4.7286   53.2965   22.4835 N.2       1 UNK         0.0000 
     13 C13         4.7012   53.7879   21.2990 C.2       1 UNK         0.0000 
     14 C14         3.9503   53.1779   20.1745 C.ar      1 UNK         0.0000 
     15 C15         3.2389   51.9906   20.4043 C.ar      1 UNK         0.0000 
     16 C16         2.4987   51.3857   19.4018 C.ar      1 UNK         0.0000 
     17 C17         2.4550   51.9559   18.1390 C.ar      1 UNK         0.0000 
     18 C18         3.1493   53.1401   17.8407 C.ar      1 UNK         0.0000 
     19 C19         3.9070   53.7502   18.8737 C.ar      1 UNK         0.0000 
     20 O20         4.5360   54.8391   18.6495 O.co2     1 UNK         0.0000 
     21 N21         3.0419   53.6841   16.4531 N.pl3     1 UNK         0.0000 
     22 O22         3.6911   54.6640   16.0978 O.co2     1 UNK         0.0000 
     23 O23         2.2784   53.1192   15.6734 O.co2     1 UNK         0.0000 
     24 Cl24        1.6502   49.9166   19.7270 Cl        1 UNK         0.0000 
     25 I25         1.8194   52.9121   29.7732 I         1 UNK         0.0000 
     26 H26         4.0694   55.0632   25.6422 H         1 UNK         0.0000 
     27 H27         2.1914   54.4813   27.1126 H         1 UNK         0.0000 
     28 H28         4.8671   52.4399   29.7621 H         1 UNK         0.0000 
     29 H29         6.7707   53.0259   28.3023 H         1 UNK         0.0000 
     30 H30         7.5366   54.0031   26.4293 H         1 UNK         0.0000 
     31 H31         6.1571   56.2317   25.2386 H         1 UNK         0.0000 
     32 H32         7.7644   55.7558   24.8815 H         1 UNK         0.0000 
     33 H33         5.2718   53.3710   24.4024 H         1 UNK         0.0000 
     34 H34         5.2215   54.7014   21.0345 H         1 UNK         0.0000 
     35 H35         3.2502   51.5185   21.3763 H         1 UNK         0.0000 
     36 H36         1.8815   51.4455   17.3779 H         1 UNK         0.0000 
@<TRIPOS>BOND
     1    1    6 ar   
     2    1    2 ar   
     3    1   26 1    
     4    2    3 ar   
     5    2   27 1    
     6    3    4 ar   
     7    3   25 1    
     8    4    5 ar   
     9    4   28 1    
    10    5    6 ar   
    11    5   29 1    
    12    6    7 1    
    13    7    8 1    
    14    7   30 1    
    15    8    9 1    
    16    8   31 1    
    17    8   32 1    
    18    9   10 2    
    19    9   11 am   BACKBONE|DICT|INTERRES
    20   11   12 1    
    21   11   33 1    
    22   12   13 2    
    23   13   14 1    
    24   13   34 1    
    25   14   19 ar   
    26   14   15 ar   
    27   15   16 ar   
    28   15   35 1    
    29   16   17 ar   
    30   16   24 1    
    31   17   18 ar   
    32   17   36 1    
    33   18   19 ar   
    34   18   21 1    
    35   19   20 1    
    36   21   22 2    
    37   21   23 1    
@<TRIPOS>SUBSTRUCTURE
     1 UNK         1 GROUP             0       ****    0 ROOT    
