@<TRIPOS>MOLECULE
ZINC14644379_3525
57   59    1
SMALL
USER_CHARGES


@<TRIPOS>ATOM
      1 C1          3.9115   52.8971   15.7362 C.3       1 UNK         0.0000 
      2 C2          4.9627   53.4317   16.7235 C.3       1 UNK         0.0000 
      3 H3          5.6994   52.6382   16.8735 H         1 UNK         0.0000 
      4 C4          4.3067   53.8356   18.0658 C.2       1 UNK         0.0000 
      5 O5          3.8359   54.9663   18.2167 O.2       1 UNK         0.0000 
      6 N6          4.3518   52.8970   19.0374 N.am      1 UNK         0.0000 
      7 N7          4.0460   53.2020   20.3779 N.am      1 UNK         0.0000 
      8 C8          4.8947   53.9636   21.1142 C.2       1 UNK         0.0000 
      9 O9          5.9063   54.4977   20.6531 O.2       1 UNK         0.0000 
     10 C10         4.5938   54.0973   22.5894 C.ar      1 UNK         0.0000 
     11 C11         3.2935   53.9622   23.0990 C.ar      1 UNK         0.0000 
     12 C12         3.0645   54.0713   24.4700 C.ar      1 UNK         0.0000 
     13 C13         4.1199   54.3137   25.3511 C.ar      1 UNK         0.0000 
     14 C14         5.4133   54.4907   24.8403 C.ar      1 UNK         0.0000 
     15 C15         5.6453   54.3749   23.4745 C.ar      1 UNK         0.0000 
     16 N16         3.7904   54.3398   26.7210 N.am      1 UNK         0.0000 
     17 C17         4.5938   54.3811   27.8076 C.2       1 UNK         0.0000 
     18 O18         5.8256   54.4240   27.7583 O.2       1 UNK         0.0000 
     19 C19         3.9204   54.2849   29.2060 C.3       1 UNK         0.0000 
     20 C20         2.5705   55.0686   29.2753 C.3       1 UNK         0.0000 
     21 C21         1.3183   54.3407   28.7341 C.3       1 UNK         0.0000 
     22 C22         1.2295   52.8793   29.2154 C.3       1 UNK         0.0000 
     23 C23         2.5240   52.0990   28.9231 C.3       1 UNK         0.0000 
     24 C24         3.7468   52.7837   29.5686 C.3       1 UNK         0.0000 
     25 O25         5.5852   54.5619   16.0878 O.3       1 UNK         0.0000 
     26 C26         6.6388   55.2377   16.6848 C.ar      1 UNK         0.0000 
     27 C27         7.4196   54.7094   17.7288 C.ar      1 UNK         0.0000 
     28 C28         8.4441   55.4638   18.3031 C.ar      1 UNK         0.0000 
     29 C29         8.7054   56.7518   17.8392 C.ar      1 UNK         0.0000 
     30 C30         7.9438   57.2833   16.7985 C.ar      1 UNK         0.0000 
     31 C31         6.9199   56.5305   16.2228 C.ar      1 UNK         0.0000 
     32 Br32        5.8946   57.2991   14.8111 Br        1 UNK         0.0000 
     33 Cl33        9.9668   57.6905   18.5488 Cl        1 UNK         0.0000 
     34 H34         3.4253   51.9977   16.1180 H         1 UNK         0.0000 
     35 H35         3.1402   53.6394   15.5276 H         1 UNK         0.0000 
     36 H36         4.3753   52.6290   14.7866 H         1 UNK         0.0000 
     37 H37         4.7826   51.9842   18.9133 H         1 UNK         0.0000 
     38 H38         3.0628   53.1029   20.5833 H         1 UNK         0.0000 
     39 H39         2.4505   53.7746   22.4482 H         1 UNK         0.0000 
     40 H40         2.0573   53.9481   24.8417 H         1 UNK         0.0000 
     41 H41         6.2605   54.6975   25.4727 H         1 UNK         0.0000 
     42 H42         6.6566   54.4993   23.1111 H         1 UNK         0.0000 
     43 H43         2.8084   54.2312   26.9205 H         1 UNK         0.0000 
     44 H44         4.6504   54.7952   29.8382 H         1 UNK         0.0000 
     45 H45         2.4155   55.3555   30.3153 H         1 UNK         0.0000 
     46 H46         2.6866   56.0688   28.8520 H         1 UNK         0.0000 
     47 H47         0.4266   54.8849   29.0462 H         1 UNK         0.0000 
     48 H48         1.3011   54.3638   27.6448 H         1 UNK         0.0000 
     49 H49         1.0243   52.8577   30.2870 H         1 UNK         0.0000 
     50 H50         0.3848   52.3820   28.7363 H         1 UNK         0.0000 
     51 H51         2.4333   51.0742   29.2818 H         1 UNK         0.0000 
     52 H52         2.6688   52.0205   27.8449 H         1 UNK         0.0000 
     53 H53         4.6733   52.2334   29.3885 H         1 UNK         0.0000 
     54 H54         3.7149   52.7064   30.6558 H         1 UNK         0.0000 
     55 H55         7.2399   53.7162   18.1099 H         1 UNK         0.0000 
     56 H56         9.0325   55.0473   19.1092 H         1 UNK         0.0000 
     57 H57         8.1407   58.2840   16.4426 H         1 UNK         0.0000 
@<TRIPOS>BOND
     1    1    2 1    
     2    1   34 1    
     3    1   35 1    
     4    1   36 1    
     5    2    3 1    
     6    2    4 1    
     7    2   25 1    
     8    4    5 2    
     9    4    6 am   BACKBONE|DICT|INTERRES
    10    6    7 1    
    11    6   37 1    
    12    7    8 am   BACKBONE|DICT|INTERRES
    13    7   38 1    
    14    8    9 2    
    15    8   10 1    
    16   10   15 ar   
    17   10   11 ar   
    18   11   12 ar   
    19   11   39 1    
    20   12   13 ar   
    21   12   40 1    
    22   13   14 ar   
    23   13   16 1    
    24   14   15 ar   
    25   14   41 1    
    26   15   42 1    
    27   16   17 am   BACKBONE|DICT|INTERRES
    28   16   43 1    
    29   17   18 2    
    30   17   19 1    
    31   19   24 1    
    32   19   20 1    
    33   19   44 1    
    34   20   21 1    
    35   20   45 1    
    36   20   46 1    
    37   21   22 1    
    38   21   47 1    
    39   21   48 1    
    40   22   23 1    
    41   22   49 1    
    42   22   50 1    
    43   23   24 1    
    44   23   51 1    
    45   23   52 1    
    46   24   53 1    
    47   24   54 1    
    48   25   26 1    
    49   26   31 ar   
    50   26   27 ar   
    51   27   28 ar   
    52   27   55 1    
    53   28   29 ar   
    54   28   56 1    
    55   29   30 ar   
    56   29   33 1    
    57   30   31 ar   
    58   30   57 1    
    59   31   32 1    
@<TRIPOS>SUBSTRUCTURE
     1 UNK         1 GROUP             0       ****    0 ROOT    
