@<TRIPOS>MOLECULE
ZINC08311915_1372
37   40    1
SMALL
USER_CHARGES


@<TRIPOS>ATOM
      1 C1          1.9664   52.3270   23.5205 C.3       1 UNK         0.0000 
      2 C2          2.9720   52.9440   22.5743 C.2       1 UNK         0.0000 
      3 C3          4.1203   53.7197   22.7168 C.2       1 UNK         0.0000 
      4 C4          4.5160   53.9742   21.3768 C.2       1 UNK         0.0000 
      5 N5          3.7394   53.3234   20.5314 N.2       1 UNK         0.0000 
      6 O6          2.7618   52.6755   21.2698 O.3       1 UNK         0.0000 
      7 C7          5.6401   54.7967   20.7942 C.ar      1 UNK         0.0000 
      8 C8          6.8464   54.9986   21.4732 C.ar      1 UNK         0.0000 
      9 C9          7.8937   55.6967   20.8816 C.ar      1 UNK         0.0000 
     10 C10         7.7368   56.2251   19.6048 C.ar      1 UNK         0.0000 
     11 C11         6.5413   56.0554   18.9154 C.ar      1 UNK         0.0000 
     12 C12         5.5045   55.3376   19.5042 C.ar      1 UNK         0.0000 
     13 C13         4.6582   54.1397   24.0226 C.2       1 UNK         0.0000 
     14 N14         5.6887   54.8963   24.3114 N.2       1 UNK         0.0000 
     15 N15         5.7840   54.9552   25.6972 N.2       1 UNK         0.0000 
     16 C16         4.7849   54.2382   26.1383 C.2       1 UNK         0.0000 
     17 O17         4.0440   53.6967   25.1438 O.3       1 UNK         0.0000 
     18 C18         4.4377   53.8765   27.5552 C.3       1 UNK         0.0000 
     19 S19         2.6630   54.0975   27.8864 S.3       1 UNK         0.0000 
     20 C20         2.5132   53.1761   29.3762 C.2       1 UNK         0.0000 
     21 N21         3.5057   52.7031   30.0958 N.2       1 UNK         0.0000 
     22 N22         3.0853   52.0975   31.2703 N.2       1 UNK         0.0000 
     23 C23         1.7838   52.1194   31.3873 C.2       1 UNK         0.0000 
     24 S24         0.9476   52.8493   30.0580 S.3       1 UNK         0.0000 
     25 N25         1.1052   51.6998   32.4819 N.pl3     1 UNK         0.0000 
     26 H26         2.2882   51.3404   23.8518 H         1 UNK         0.0000 
     27 H27         1.8023   52.9345   24.4096 H         1 UNK         0.0000 
     28 H28         0.9931   52.2041   23.0456 H         1 UNK         0.0000 
     29 H29         7.0478   54.5257   22.4167 H         1 UNK         0.0000 
     30 H30         8.8326   55.8101   21.4044 H         1 UNK         0.0000 
     31 H31         8.5531   56.7619   19.1430 H         1 UNK         0.0000 
     32 H32         6.4228   56.4646   17.9225 H         1 UNK         0.0000 
     33 H33         4.5888   55.2045   18.9450 H         1 UNK         0.0000 
     34 H34         5.0018   54.4823   28.2653 H         1 UNK         0.0000 
     35 H35         4.7153   52.8363   27.7271 H         1 UNK         0.0000 
     36 H36         1.5912   51.5978   33.3693 H         1 UNK         0.0000 
     37 H37         0.0806   51.7015   32.5405 H         1 UNK         0.0000 
@<TRIPOS>BOND
     1    1    2 1    
     2    1   26 1    
     3    1   27 1    
     4    1   28 1    
     5    2    6 1    
     6    2    3 2    
     7    3    4 1    
     8    3   13 1    
     9    4    5 2    
    10    4    7 1    
    11    5    6 1    
    12    7   12 ar   
    13    7    8 ar   
    14    8    9 ar   
    15    8   29 1    
    16    9   10 ar   
    17    9   30 1    
    18   10   11 ar   
    19   10   31 1    
    20   11   12 ar   
    21   11   32 1    
    22   12   33 1    
    23   13   17 1    
    24   13   14 2    
    25   14   15 1    
    26   15   16 2    
    27   16   17 1    
    28   16   18 1    
    29   18   19 1    
    30   18   34 1    
    31   18   35 1    
    32   19   20 1    
    33   20   24 1    
    34   20   21 2    
    35   21   22 1    
    36   22   23 2    
    37   23   24 1    
    38   23   25 1    
    39   25   36 1    
    40   25   37 1    
@<TRIPOS>SUBSTRUCTURE
     1 UNK         1 GROUP             0       ****    0 ROOT    
