ZINC39558608_2513
                    3D
 Schrodinger Suite 2024-2.
 41 43  0  0  1  0            999 V2000
   -0.1823   51.2942   27.3571 C   0  0  0  0  0  0
   -0.5448   51.1400   26.0216 C   0  0  0  0  0  0
    0.0386   51.9519   25.0512 C   0  0  0  0  0  0
    0.9994   52.8958   25.4032 C   0  0  0  0  0  0
    1.3738   53.0440   26.7369 C   0  0  0  0  0  0
    0.7683   52.2511   27.7117 C   0  0  0  0  0  0
    1.1739   52.4724   29.4148 S   0  0  0  0  0  0
    2.9556   52.1448   29.5546 C   0  0  0  0  0  0
    3.8545   53.3388   29.2293 C   0  0  0  0  0  0
    3.5886   54.4524   29.6817 O   0  0  0  0  0  0
    4.9427   53.0834   28.4847 N   0  0  0  0  0  0
    6.0227   54.0475   28.2682 C   0  0  0  0  0  0
    6.1929   54.5062   26.8098 C   0  0  0  0  0  0
    7.1042   55.2967   26.5926 O   0  0  0  0  0  0
    5.3727   54.0393   25.8407 N   0  0  0  0  0  0
    5.4604   54.2513   24.4458 C   0  0  0  0  0  0
    4.3389   53.9080   23.6717 C   0  0  0  0  0  0
    4.3334   54.0802   22.2807 C   0  0  0  0  0  0
    5.4765   54.6006   21.6788 C   0  0  0  0  0  0
    6.5786   54.9188   22.4167 C   0  0  0  0  0  0
    6.6070   54.7483   23.7949 C   0  0  0  0  0  0
    7.5020   55.4303   21.5396 N   0  0  0  0  0  0
    8.4291   55.7370   21.7971 H   0  0  0  0  0  0
    7.0130   55.4734   20.2833 C   0  0  0  0  0  0
    7.5705   55.9048   19.2804 O   0  0  0  0  0  0
    5.7809   54.9290   20.3784 N   0  0  0  0  0  0
    5.1668   54.8029   19.5871 H   0  0  0  0  0  0
   -0.4973   51.8002   23.2315 Br  0  0  0  0  0  0
   -0.6452   50.6685   28.1088 H   0  0  0  0  0  0
   -1.2847   50.4006   25.7475 H   0  0  0  0  0  0
    1.4114   53.5412   24.6453 H   0  0  0  0  0  0
    2.0920   53.8023   27.0118 H   0  0  0  0  0  0
    3.1939   51.2965   28.9165 H   0  0  0  0  0  0
    3.1685   51.8558   30.5832 H   0  0  0  0  0  0
    5.1025   52.1472   28.1381 H   0  0  0  0  0  0
    6.9554   53.5793   28.5844 H   0  0  0  0  0  0
    5.8999   54.9337   28.8933 H   0  0  0  0  0  0
    4.6099   53.4529   26.1423 H   0  0  0  0  0  0
    3.4671   53.4944   24.1471 H   0  0  0  0  0  0
    3.4574   53.8229   21.7022 H   0  0  0  0  0  0
    7.5042   55.0074   24.3268 H   0  0  0  0  0  0
  1  6  2  0  0  0
  1  2  1  0  0  0
  1 29  1  0  0  0
  2  3  2  0  0  0
  2 30  1  0  0  0
  3  4  1  0  0  0
  3 28  1  0  0  0
  4  5  2  0  0  0
  4 31  1  0  0  0
  5  6  1  0  0  0
  5 32  1  0  0  0
  6  7  1  0  0  0
  7  8  1  0  0  0
  8  9  1  0  0  0
  8 33  1  0  0  0
  8 34  1  0  0  0
  9 10  2  0  0  0
  9 11  1  0  0  0
 11 12  1  0  0  0
 11 35  1  0  0  0
 12 13  1  0  0  0
 12 36  1  0  0  0
 12 37  1  0  0  0
 13 14  2  0  0  0
 13 15  1  0  0  0
 15 16  1  0  0  0
 15 38  1  0  0  0
 16 21  2  0  0  0
 16 17  1  0  0  0
 17 18  2  0  0  0
 17 39  1  0  0  0
 18 19  1  0  0  0
 18 40  1  0  0  0
 19 26  1  0  0  0
 19 20  2  0  0  0
 20 21  1  0  0  0
 20 22  1  0  0  0
 21 41  1  0  0  0
 22 23  1  0  0  0
 22 24  1  0  0  0
 24 25  2  0  0  0
 24 26  1  0  0  0
 26 27  1  0  0  0
M  END
> <i_i_glide_confnum>
44

> <i_i_glide_lignum>
2514

> <i_i_glide_posenum>
194

> <i_i_glide_rotatable_bonds>
8

> <i_m_Source_File_Index>
1774

> <b_m_subgroup_collapsed>
0

> <r_i_docking_score>
-7.42251

> <r_i_glide_ecoul>
-8.76601

> <r_i_glide_eff_state_penalty>
0

> <r_i_glide_einternal>
7.86476

> <r_i_glide_emodel>
-76.0464

> <r_i_glide_energy>
-54.5173

> <r_i_glide_erotb>
0.630868

> <r_i_glide_esite>
0

> <r_i_glide_evdw>
-45.7513

> <r_i_glide_gscore>
-7.42251

> <r_i_glide_hbond>
-0.541827

> <r_i_glide_ligand_efficiency>
-0.285481

> <r_i_glide_ligand_efficiency_ln>
-1.74315

> <r_i_glide_ligand_efficiency_sa>
-0.845737

> <r_i_glide_lipo>
-2.55081

> <r_i_glide_metal>
0

> <r_i_glide_rewards>
-1.35828

> <s_i_glide_gridfile>
wee1_glide-grid

> <s_m_Source_File>
wee1_decoys_glide_SP.sdf

> <s_m_Source_Path>
/Users/zhangxujun/Desktop

> <s_m_entry_id>
2049

> <s_m_entry_name>
wee1_decoys_glide_SP.1774

> <s_m_subgroup_title>
wee1_decoys_glide_SP

> <s_m_subgroupid>
wee1_decoys_glide_SP


$$$$
