@<TRIPOS>MOLECULE
ZINC01017528_4991
76   79    1
SMALL
USER_CHARGES


@<TRIPOS>ATOM
      1 C1          8.6934   54.5561   17.1323 C.3       1 UNK         0.0000 
      2 C2          7.6184   54.5608   18.2035 C.ar      1 UNK         0.0000 
      3 C3          6.4555   53.8079   18.0382 C.ar      1 UNK         0.0000 
      4 C4          5.4861   53.7859   19.0389 C.ar      1 UNK         0.0000 
      5 C5          5.6762   54.4960   20.2279 C.ar      1 UNK         0.0000 
      6 C6          6.8422   55.2757   20.3947 C.ar      1 UNK         0.0000 
      7 C7          7.8015   55.2967   19.3754 C.ar      1 UNK         0.0000 
      8 C8          7.1052   56.0969   21.6433 C.3       1 UNK         0.0000 
      9 N9          4.6690   54.3684   21.1972 N.am      1 UNK         0.0000 
     10 C10         4.8216   53.7960   22.4120 C.2       1 UNK         0.0000 
     11 O11         5.9031   53.4342   22.8824 O.2       1 UNK         0.0000 
     12 C12         3.5820   53.5780   23.1412 C.2       1 UNK         0.0000 
     13 C13         3.4740   53.6968   24.5529 C.2       1 UNK         0.0000 
     14 C14         2.2187   53.2966   25.0365 C.2       1 UNK         0.0000 
     15 S15         1.1549   52.8082   23.7658 S.3       1 UNK         0.0000 
     16 C16         2.4141   53.0213   22.5775 C.2       1 UNK         0.0000 
     17 N17         2.2671   52.6415   21.2444 N.am      1 UNK         0.0000 
     18 C18         1.2129   52.0969   20.6033 C.2       1 UNK         0.0000 
     19 O19         0.1463   51.7640   21.1252 O.2       1 UNK         0.0000 
     20 C20         1.4187   51.9668   19.0802 C.3       1 UNK         0.0000 
     21 N21         1.0137   50.6484   18.5560 N.3       1 UNK         0.0000 
     22 C22         0.9348   50.7523   17.0861 C.3       1 UNK         0.0000 
     23 C23         0.4937   49.4246   16.4358 C.3       1 UNK         0.0000 
     24 N24         1.5046   48.3266   16.8221 N.4       1 UNK         0.0000 
     25 C25         1.6391   48.2388   18.3568 C.3       1 UNK         0.0000 
     26 C26         2.0280   49.6302   18.9007 C.3       1 UNK         0.0000 
     27 C27         1.1273   46.9646   16.2102 C.3       1 UNK         0.0000 
     28 C28         1.7989   53.2787   26.5045 C.3       1 UNK         0.0000 
     29 C29         3.0555   53.4089   27.4159 C.3       1 UNK         0.0000 
     30 H30         3.6442   52.4966   27.3303 H         1 UNK         0.0000 
     31 C31         3.9274   54.5655   26.8662 C.3       1 UNK         0.0000 
     32 C32         4.5560   54.2210   25.5017 C.3       1 UNK         0.0000 
     33 C33         2.7078   53.5408   28.9494 C.3       1 UNK         0.0000 
     34 C34         2.0522   54.9042   29.2911 C.3       1 UNK         0.0000 
     35 C35         3.9994   53.3931   29.7950 C.3       1 UNK         0.0000 
     36 C36         1.7425   52.4112   29.3932 C.3       1 UNK         0.0000 
     37 H37         8.6610   53.6355   16.5467 H         1 UNK         0.0000 
     38 H38         9.6855   54.6028   17.5830 H         1 UNK         0.0000 
     39 H39         8.5759   55.4111   16.4647 H         1 UNK         0.0000 
     40 H40         6.3042   53.2224   17.1425 H         1 UNK         0.0000 
     41 H41         4.6053   53.1782   18.8913 H         1 UNK         0.0000 
     42 H42         8.7075   55.8762   19.4965 H         1 UNK         0.0000 
     43 H43         6.3707   56.8967   21.6810 H         1 UNK         0.0000 
     44 H44         7.0160   55.5243   22.5607 H         1 UNK         0.0000 
     45 H45         8.1180   56.4967   21.6534 H         1 UNK         0.0000 
     46 H46         3.7320   54.6075   20.9052 H         1 UNK         0.0000 
     47 H47         3.0822   52.8022   20.6734 H         1 UNK         0.0000 
     48 H48         0.8448   52.7676   18.6103 H         1 UNK         0.0000 
     49 H49         2.4478   52.1909   18.7876 H         1 UNK         0.0000 
     50 H50         0.2255   51.5312   16.7958 H         1 UNK         0.0000 
     51 H51         1.9219   51.0275   16.7026 H         1 UNK         0.0000 
     52 H52         0.5366   49.5092   15.3489 H         1 UNK         0.0000 
     53 H53        -0.4995   49.1039   16.7558 H         1 UNK         0.0000 
     54 H54         2.4447   47.5276   18.5489 H         1 UNK         0.0000 
     55 H55         0.6950   47.8738   18.7640 H         1 UNK         0.0000 
     56 H56         2.9938   49.9302   18.4834 H         1 UNK         0.0000 
     57 H57         2.1408   49.5550   19.9823 H         1 UNK         0.0000 
     58 H58         0.1514   46.6688   16.6016 H         1 UNK         0.0000 
     59 H59         1.1022   47.0892   15.1261 H         1 UNK         0.0000 
     60 H60         1.9066   46.2535   16.4927 H         1 UNK         0.0000 
     61 H61         1.1094   54.0958   26.7007 H         1 UNK         0.0000 
     62 H62         1.2686   52.3522   26.7179 H         1 UNK         0.0000 
     63 H63         3.3461   55.4828   26.8341 H         1 UNK         0.0000 
     64 H64         4.7542   54.7772   27.5430 H         1 UNK         0.0000 
     65 H65         5.3296   53.4635   25.6330 H         1 UNK         0.0000 
     66 H66         5.0547   55.0988   25.0916 H         1 UNK         0.0000 
     67 H67         1.1322   55.0702   28.7312 H         1 UNK         0.0000 
     68 H68         1.7877   54.9681   30.3467 H         1 UNK         0.0000 
     69 H69         2.7163   55.7447   29.0825 H         1 UNK         0.0000 
     70 H70         4.5674   52.5067   29.5095 H         1 UNK         0.0000 
     71 H71         4.6642   54.2502   29.6906 H         1 UNK         0.0000 
     72 H72         3.7821   53.2953   30.8589 H         1 UNK         0.0000 
     73 H73         2.1164   51.4267   29.1041 H         1 UNK         0.0000 
     74 H74         1.6040   52.3974   30.4757 H         1 UNK         0.0000 
     75 H75         0.7485   52.5247   28.9584 H         1 UNK         0.0000 
     76 H76         2.4306   48.6079   16.4836 H         1 UNK         0.0000 
@<TRIPOS>BOND
     1    1    2 1    
     2    1   37 1    
     3    1   38 1    
     4    1   39 1    
     5    2    7 ar   
     6    2    3 ar   
     7    3    4 ar   
     8    3   40 1    
     9    4    5 ar   
    10    4   41 1    
    11    5    6 ar   
    12    5    9 1    
    13    6    7 ar   
    14    6    8 1    
    15    7   42 1    
    16    8   43 1    
    17    8   44 1    
    18    8   45 1    
    19    9   10 am   BACKBONE|DICT|INTERRES
    20    9   46 1    
    21   10   11 2    
    22   10   12 1    
    23   12   16 2    
    24   12   13 1    
    25   13   32 1    
    26   13   14 2    
    27   14   15 1    
    28   14   28 1    
    29   15   16 1    
    30   16   17 am   BACKBONE|DICT|INTERRES
    31   17   18 am   BACKBONE|DICT|INTERRES
    32   17   47 1    
    33   18   19 2    
    34   18   20 1    
    35   20   21 1    
    36   20   48 1    
    37   20   49 1    
    38   21   26 1    
    39   21   22 1    
    40   22   23 1    
    41   22   50 1    
    42   22   51 1    
    43   23   24 1    
    44   23   52 1    
    45   23   53 1    
    46   24   25 1    
    47   24   27 1    
    48   24   76 1    
    49   25   26 1    
    50   25   54 1    
    51   25   55 1    
    52   26   56 1    
    53   26   57 1    
    54   27   58 1    
    55   27   59 1    
    56   27   60 1    
    57   28   29 1    
    58   28   61 1    
    59   28   62 1    
    60   29   30 1    
    61   29   31 1    
    62   29   33 1    
    63   31   32 1    
    64   31   63 1    
    65   31   64 1    
    66   32   65 1    
    67   32   66 1    
    68   33   34 1    
    69   33   35 1    
    70   33   36 1    
    71   34   67 1    
    72   34   68 1    
    73   34   69 1    
    74   35   70 1    
    75   35   71 1    
    76   35   72 1    
    77   36   73 1    
    78   36   74 1    
    79   36   75 1    
@<TRIPOS>SUBSTRUCTURE
     1 UNK         1 GROUP             0       ****    0 ROOT    
