@<TRIPOS>MOLECULE
ZINC00921896_5764
77   80    1
SMALL
USER_CHARGES


@<TRIPOS>ATOM
      1 C1          1.2636   49.3771   19.8966 C.3       1 UNK         0.0000 
      2 C2          1.1871   50.1485   21.2068 C.ar      1 UNK         0.0000 
      3 C3          1.5817   49.5146   22.3847 C.ar      1 UNK         0.0000 
      4 C4          1.5403   50.1889   23.5999 C.ar      1 UNK         0.0000 
      5 C5          1.1369   51.5241   23.6641 C.ar      1 UNK         0.0000 
      6 C6          0.6982   52.1485   22.4863 C.ar      1 UNK         0.0000 
      7 C7          0.7271   51.4746   21.2588 C.ar      1 UNK         0.0000 
      8 C8          0.2981   52.2088   19.9991 C.3       1 UNK         0.0000 
      9 N9          1.1803   52.2064   24.9121 N.am      1 UNK         0.0000 
     10 C10         0.2204   51.7177   25.9809 C.3       1 UNK         0.0000 
     11 H11         0.2961   50.6306   25.9185 H         1 UNK         0.0000 
     12 C12         0.5964   52.0633   27.4233 C.ar      1 UNK         0.0000 
     13 C13        -0.0079   53.1130   28.1350 C.ar      1 UNK         0.0000 
     14 C14         0.4467   53.4548   29.4109 C.ar      1 UNK         0.0000 
     15 C15         1.4901   52.7405   29.9908 C.ar      1 UNK         0.0000 
     16 C16         2.1787   51.8128   29.2406 C.ar      1 UNK         0.0000 
     17 C17         1.6545   51.3876   28.0367 C.ar      1 UNK         0.0000 
     18 O18         3.3590   51.2967   29.6821 O.3       1 UNK         0.0000 
     19 C19         4.4489   52.1992   29.6855 C.3       1 UNK         0.0000 
     20 O20         1.8202   52.8968   31.3080 O.3       1 UNK         0.0000 
     21 C21         0.8027   52.4348   32.1974 C.3       1 UNK         0.0000 
     22 O22        -0.0957   54.4971   30.1044 O.3       1 UNK         0.0000 
     23 C23         0.7876   55.6138   30.2395 C.3       1 UNK         0.0000 
     24 C24        -1.2878   51.8866   25.6306 C.2       1 UNK         0.0000 
     25 O25        -1.6298   52.5190   24.6292 O.2       1 UNK         0.0000 
     26 N26        -2.1695   51.2964   26.4602 N.am      1 UNK         0.0000 
     27 C27        -3.6117   51.2061   26.2009 C.3       1 UNK         0.0000 
     28 C28        -3.9709   49.9080   25.4342 C.3       1 UNK         0.0000 
     29 C29        -3.6995   48.6311   26.2633 C.3       1 UNK         0.0000 
     30 C30        -4.4468   48.6591   27.6104 C.3       1 UNK         0.0000 
     31 C31        -4.1946   49.9647   28.3949 C.3       1 UNK         0.0000 
     32 C32        -4.4322   51.2093   27.5146 C.3       1 UNK         0.0000 
     33 C33         1.9395   53.3562   25.0308 C.2       1 UNK         0.0000 
     34 O34         1.9041   54.0783   26.0254 O.2       1 UNK         0.0000 
     35 C35         2.9102   53.8419   23.9189 C.3       1 UNK         0.0000 
     36 C36         4.3614   54.0970   24.3296 C.2       1 UNK         0.0000 
     37 C37         5.4722   54.0966   23.4866 C.2       1 UNK         0.0000 
     38 C38         6.6985   54.2850   24.1255 C.2       1 UNK         0.0000 
     39 C39         6.5584   54.5016   25.4815 C.2       1 UNK         0.0000 
     40 S40         4.8996   54.4951   25.9531 S.3       1 UNK         0.0000 
     41 H41         0.3216   49.4449   19.3552 H         1 UNK         0.0000 
     42 H42         2.0444   49.7912   19.2587 H         1 UNK         0.0000 
     43 H43         1.4717   48.3180   20.0516 H         1 UNK         0.0000 
     44 H44         1.9436   48.4975   22.3638 H         1 UNK         0.0000 
     45 H45         1.8774   49.6714   24.4819 H         1 UNK         0.0000 
     46 H46         0.3680   53.1745   22.5282 H         1 UNK         0.0000 
     47 H47         0.9831   52.0056   19.1764 H         1 UNK         0.0000 
     48 H48        -0.7015   51.8998   19.6934 H         1 UNK         0.0000 
     49 H49         0.3169   53.2857   20.1466 H         1 UNK         0.0000 
     50 H50        -0.7991   53.6886   27.6818 H         1 UNK         0.0000 
     51 H51         2.1319   50.5281   27.6222 H         1 UNK         0.0000 
     52 H52         5.1044   51.8553   30.4791 H         1 UNK         0.0000 
     53 H53         4.9872   52.1616   28.7374 H         1 UNK         0.0000 
     54 H54         4.1817   53.2355   29.8993 H         1 UNK         0.0000 
     55 H55         1.1775   51.6167   32.8126 H         1 UNK         0.0000 
     56 H56         0.4959   53.2420   32.8647 H         1 UNK         0.0000 
     57 H57        -0.0914   52.0662   31.6819 H         1 UNK         0.0000 
     58 H58         0.3039   56.4421   30.7480 H         1 UNK         0.0000 
     59 H59         1.6706   55.3753   30.8334 H         1 UNK         0.0000 
     60 H60         1.1173   55.9787   29.2654 H         1 UNK         0.0000 
     61 H61        -1.8142   50.7156   27.2099 H         1 UNK         0.0000 
     62 H62        -3.9293   52.0688   25.6083 H         1 UNK         0.0000 
     63 H63        -5.0219   49.9365   25.1434 H         1 UNK         0.0000 
     64 H64        -3.4106   49.8663   24.4989 H         1 UNK         0.0000 
     65 H65        -3.9858   47.7440   25.6973 H         1 UNK         0.0000 
     66 H66        -2.6293   48.5336   26.4524 H         1 UNK         0.0000 
     67 H67        -5.5172   48.5476   27.4330 H         1 UNK         0.0000 
     68 H68        -4.1444   47.8024   28.2150 H         1 UNK         0.0000 
     69 H69        -4.8365   49.9979   29.2756 H         1 UNK         0.0000 
     70 H70        -3.1733   49.9809   28.7765 H         1 UNK         0.0000 
     71 H71        -4.1905   52.0954   28.0936 H         1 UNK         0.0000 
     72 H72        -5.4947   51.2867   27.2767 H         1 UNK         0.0000 
     73 H73         2.4855   54.7581   23.5086 H         1 UNK         0.0000 
     74 H74         2.9516   53.1525   23.0811 H         1 UNK         0.0000 
     75 H75         5.3915   53.9083   22.4247 H         1 UNK         0.0000 
     76 H76         7.6414   54.2477   23.6032 H         1 UNK         0.0000 
     77 H77         7.3262   54.6532   26.2239 H         1 UNK         0.0000 
@<TRIPOS>BOND
     1    1    2 1    
     2    1   41 1    
     3    1   42 1    
     4    1   43 1    
     5    2    7 ar   
     6    2    3 ar   
     7    3    4 ar   
     8    3   44 1    
     9    4    5 ar   
    10    4   45 1    
    11    5    6 ar   
    12    5    9 1    
    13    6    7 ar   
    14    6   46 1    
    15    7    8 1    
    16    8   47 1    
    17    8   48 1    
    18    8   49 1    
    19    9   10 1    
    20    9   33 am   BACKBONE|DICT|INTERRES
    21   10   11 1    
    22   10   12 1    
    23   10   24 1    
    24   12   17 ar   
    25   12   13 ar   
    26   13   14 ar   
    27   13   50 1    
    28   14   15 ar   
    29   14   22 1    
    30   15   16 ar   
    31   15   20 1    
    32   16   17 ar   
    33   16   18 1    
    34   17   51 1    
    35   18   19 1    
    36   19   52 1    
    37   19   53 1    
    38   19   54 1    
    39   20   21 1    
    40   21   55 1    
    41   21   56 1    
    42   21   57 1    
    43   22   23 1    
    44   23   58 1    
    45   23   59 1    
    46   23   60 1    
    47   24   25 2    
    48   24   26 am   BACKBONE|DICT|INTERRES
    49   26   27 1    
    50   26   61 1    
    51   27   32 1    
    52   27   28 1    
    53   27   62 1    
    54   28   29 1    
    55   28   63 1    
    56   28   64 1    
    57   29   30 1    
    58   29   65 1    
    59   29   66 1    
    60   30   31 1    
    61   30   67 1    
    62   30   68 1    
    63   31   32 1    
    64   31   69 1    
    65   31   70 1    
    66   32   71 1    
    67   32   72 1    
    68   33   34 2    
    69   33   35 1    
    70   35   36 1    
    71   35   73 1    
    72   35   74 1    
    73   36   40 1    
    74   36   37 2    
    75   37   38 1    
    76   37   75 1    
    77   38   39 2    
    78   38   76 1    
    79   39   40 1    
    80   39   77 1    
@<TRIPOS>SUBSTRUCTURE
     1 UNK         1 GROUP             0       ****    0 ROOT    
