ZINC12476928_3110
                    3D
 Schrodinger Suite 2024-2.
 67 69  0  0  1  0            999 V2000
    2.1587   51.2967   29.3778 C   0  0  0  0  0  0
    1.6243   51.6917   28.0491 C   0  0  0  0  0  0
    1.1043   50.7627   27.1379 C   0  0  0  0  0  0
    0.6854   51.1754   25.8826 C   0  0  0  0  0  0
    0.7717   52.5206   25.5433 C   0  0  0  0  0  0
    1.2012   53.4138   26.5212 C   0  0  0  0  0  0
    1.6446   53.0308   27.7554 C   0  0  0  0  0  0
    0.2715   53.0598   24.2152 C   0  0  2  0  0  0
    0.2533   54.1428   24.3235 H   0  0  0  0  0  0
   -1.2470   52.7742   23.9584 C   0  0  0  0  0  0
   -1.7018   52.8901   22.8232 O   0  0  0  0  0  0
   -2.0135   52.4388   25.0168 N   0  0  0  0  0  0
   -3.4501   52.1443   25.0461 C   0  0  0  0  0  0
   -3.8171   50.9780   24.0961 C   0  0  0  0  0  0
   -4.2795   53.4008   24.6898 C   0  0  0  0  0  0
   -3.7939   51.7142   26.4873 C   0  0  0  0  0  0
    1.2166   52.8085   23.0708 N   0  0  0  0  0  0
    2.0868   53.9695   22.6719 C   0  0  0  0  0  0
    3.4385   54.1190   23.3962 C   0  0  0  0  0  0
    3.4377   54.5617   24.7042 C   0  0  0  0  0  0
    4.5987   54.6954   25.4452 C   0  0  0  0  0  0
    5.8361   54.4313   24.8517 C   0  0  0  0  0  0
    5.8689   54.1011   23.4933 C   0  0  0  0  0  0
    4.6800   53.9657   22.7652 C   0  0  0  0  0  0
    7.0326   54.5023   25.5426 O   0  0  0  0  0  0
    6.9774   54.6087   26.9666 C   0  0  0  0  0  0
    1.2741   51.5952   22.4277 C   0  0  0  0  0  0
    0.6846   50.5771   22.7878 O   0  0  0  0  0  0
    2.0009   51.5652   21.1950 C   0  0  0  0  0  0
    1.5942   51.9568   19.9259 C   0  0  0  0  0  0
    2.7157   52.2516   19.1271 C   0  0  0  0  0  0
    3.9026   52.0919   19.6808 N   0  0  0  0  0  0
    3.7070   51.3303   21.1953 S   0  0  0  0  0  0
    2.6985   52.6816   17.7563 C   0  0  0  0  0  0
    2.6487   53.8674   17.4400 O   0  0  0  0  0  0
    2.7051   51.6971   16.8558 N   0  0  0  0  0  0
    0.2810   52.0991   19.5495 N   0  0  0  0  0  0
    1.5045   50.4987   29.6809 H   0  0  0  0  0  0
    3.1787   50.9255   29.2828 H   0  0  0  0  0  0
    2.0972   52.0853   30.1295 H   0  0  0  0  0  0
    1.0669   49.6977   27.2817 H   0  0  0  0  0  0
    0.3023   50.4419   25.1908 H   0  0  0  0  0  0
    1.1049   54.4695   26.3743 H   0  0  0  0  0  0
    1.9816   53.7679   28.4693 H   0  0  0  0  0  0
   -1.5440   52.3479   25.9064 H   0  0  0  0  0  0
   -3.2253   50.0872   24.3139 H   0  0  0  0  0  0
   -4.8686   50.7032   24.1878 H   0  0  0  0  0  0
   -3.6476   51.2308   23.0493 H   0  0  0  0  0  0
   -4.0930   54.2182   25.3878 H   0  0  0  0  0  0
   -4.0495   53.7687   23.6894 H   0  0  0  0  0  0
   -5.3493   53.1908   24.7149 H   0  0  0  0  0  0
   -3.5589   52.4961   27.2099 H   0  0  0  0  0  0
   -4.8540   51.4813   26.5938 H   0  0  0  0  0  0
   -3.2355   50.8246   26.7864 H   0  0  0  0  0  0
    2.3091   53.9539   21.6094 H   0  0  0  0  0  0
    1.5290   54.8947   22.8169 H   0  0  0  0  0  0
    2.5184   54.8910   25.1138 H   0  0  0  0  0  0
    4.5145   55.0286   26.4673 H   0  0  0  0  0  0
    6.8202   53.9455   23.0056 H   0  0  0  0  0  0
    4.7392   53.7500   21.7104 H   0  0  0  0  0  0
    7.9670   54.4964   27.3968 H   0  0  0  0  0  0
    6.6010   55.5842   27.2777 H   0  0  0  0  0  0
    6.3568   53.8266   27.4077 H   0  0  0  0  0  0
    3.0274   50.7679   17.1139 H   0  0  0  0  0  0
    2.6520   51.9316   15.8781 H   0  0  0  0  0  0
    0.0314   52.4257   18.6271 H   0  0  0  0  0  0
   -0.4747   51.8729   20.1813 H   0  0  0  0  0  0
  1  2  1  0  0  0
  1 38  1  0  0  0
  1 39  1  0  0  0
  1 40  1  0  0  0
  2  7  2  0  0  0
  2  3  1  0  0  0
  3  4  2  0  0  0
  3 41  1  0  0  0
  4  5  1  0  0  0
  4 42  1  0  0  0
  5  6  2  0  0  0
  5  8  1  0  0  0
  6  7  1  0  0  0
  6 43  1  0  0  0
  7 44  1  0  0  0
  8  9  1  0  0  0
  8 10  1  0  0  0
  8 17  1  0  0  0
 10 11  2  0  0  0
 10 12  1  0  0  0
 12 13  1  0  0  0
 12 45  1  0  0  0
 13 14  1  0  0  0
 13 15  1  0  0  0
 13 16  1  0  0  0
 14 46  1  0  0  0
 14 47  1  0  0  0
 14 48  1  0  0  0
 15 49  1  0  0  0
 15 50  1  0  0  0
 15 51  1  0  0  0
 16 52  1  0  0  0
 16 53  1  0  0  0
 16 54  1  0  0  0
 17 18  1  0  0  0
 17 27  1  0  0  0
 18 19  1  0  0  0
 18 55  1  0  0  0
 18 56  1  0  0  0
 19 24  2  0  0  0
 19 20  1  0  0  0
 20 21  2  0  0  0
 20 57  1  0  0  0
 21 22  1  0  0  0
 21 58  1  0  0  0
 22 23  2  0  0  0
 22 25  1  0  0  0
 23 24  1  0  0  0
 23 59  1  0  0  0
 24 60  1  0  0  0
 25 26  1  0  0  0
 26 61  1  0  0  0
 26 62  1  0  0  0
 26 63  1  0  0  0
 27 28  2  0  0  0
 27 29  1  0  0  0
 29 33  1  0  0  0
 29 30  2  0  0  0
 30 31  1  0  0  0
 30 37  1  0  0  0
 31 32  2  0  0  0
 31 34  1  0  0  0
 32 33  1  0  0  0
 34 35  2  0  0  0
 34 36  1  0  0  0
 36 64  1  0  0  0
 36 65  1  0  0  0
 37 66  1  0  0  0
 37 67  1  0  0  0
M  END
> <i_i_glide_confnum>
4

> <i_i_glide_lignum>
3111

> <i_i_glide_posenum>
25

> <i_i_glide_rotatable_bonds>
11

> <i_m_Source_File_Index>
4757

> <b_m_subgroup_collapsed>
0

> <r_i_docking_score>
-4.43971

> <r_i_glide_ecoul>
-3.01161

> <r_i_glide_eff_state_penalty>
0

> <r_i_glide_einternal>
23.6961

> <r_i_glide_emodel>
-29.5329

> <r_i_glide_energy>
-27.8498

> <r_i_glide_erotb>
0.630882

> <r_i_glide_esite>
-0.141305

> <r_i_glide_evdw>
-24.8382

> <r_i_glide_gscore>
-4.43971

> <r_i_glide_hbond>
-0.377175

> <r_i_glide_ligand_efficiency>
-0.123325

> <r_i_glide_ligand_efficiency_ln>
-0.968625

> <r_i_glide_ligand_efficiency_sa>
-0.407211

> <r_i_glide_lipo>
-2.60265

> <r_i_glide_metal>
0

> <r_i_glide_rewards>
-0.255814

> <s_i_glide_gridfile>
wee1_glide-grid

> <s_m_Source_File>
wee1_decoys_glide_SP.sdf

> <s_m_Source_Path>
/Users/zhangxujun/Desktop

> <s_m_entry_id>
5032

> <s_m_entry_name>
wee1_decoys_glide_SP.4757

> <s_m_subgroup_title>
wee1_decoys_glide_SP

> <s_m_subgroupid>
wee1_decoys_glide_SP


$$$$
