ZINC35545040_5340
                    3D
 Schrodinger Suite 2024-2.
 65 69  0  0  1  0            999 V2000
    3.6724   52.0978   31.6839 C   0  0  0  0  0  0
    3.9042   52.9636   30.5851 O   0  0  0  0  0  0
    3.1371   52.8495   29.4437 C   0  0  0  0  0  0
    1.9062   52.1791   29.4043 C   0  0  0  0  0  0
    1.1898   52.0893   28.2158 C   0  0  0  0  0  0
    1.6780   52.6777   27.0512 C   0  0  0  0  0  0
    2.9082   53.3508   27.0898 C   0  0  0  0  0  0
    3.6439   53.4435   28.2811 C   0  0  0  0  0  0
    4.8707   54.0756   28.3771 O   0  0  0  0  0  0
    5.5226   54.5298   27.1937 C   0  0  0  0  0  0
    0.8976   52.4948   25.8951 N   0  0  0  0  0  0
    1.0722   52.9676   24.6440 C   0  0  0  0  0  0
    1.9502   53.7724   24.3261 O   0  0  0  0  0  0
    0.0740   52.4914   23.5543 C   0  0  2  0  0  0
   -0.6554   53.3002   23.5389 H   0  0  0  0  0  0
   -0.6446   51.1665   23.8934 C   0  0  0  0  0  0
   -1.5679   50.7772   22.7477 C   0  0  0  0  0  0
   -2.6902   49.9870   23.0160 C   0  0  0  0  0  0
   -3.5541   49.5750   21.9987 C   0  0  0  0  0  0
   -3.2982   49.9815   20.6891 C   0  0  0  0  0  0
   -2.1919   50.7777   20.4086 C   0  0  0  0  0  0
   -1.2917   51.1671   21.4120 C   0  0  0  0  0  0
   -0.2558   52.0716   21.1156 N   0  0  0  0  0  0
    0.7531   52.3927   22.1586 C   0  0  2  0  0  0
    1.0888   53.4004   21.9033 H   0  0  0  0  0  0
    1.9352   51.3711   22.1117 C   0  0  0  0  0  0
    2.6092   51.4540   20.8044 N   0  0  0  0  0  0
    1.6260   51.0518   19.7719 C   0  0  0  0  0  0
    0.4256   52.0294   19.8028 C   0  0  0  0  0  0
    3.6054   52.4509   20.5201 C   0  0  0  0  0  0
    4.0466   53.3920   21.4674 C   0  0  0  0  0  0
    4.9972   54.3533   21.1143 C   0  0  0  0  0  0
    5.5155   54.3649   19.8176 C   0  0  0  0  0  0
    5.0829   53.4041   18.9041 C   0  0  0  0  0  0
    4.1574   52.5002   19.2865 N   0  3  0  0  0  0
   -4.7621   48.6931   22.3139 C   0  0  0  0  0  0
   -4.5232   47.9046   23.3659 F   0  0  0  0  0  0
   -5.8058   49.4757   22.5928 F   0  0  0  0  0  0
   -5.0786   47.9140   21.2772 F   0  0  0  0  0  0
    4.3511   52.3947   32.4791 H   0  0  0  0  0  0
    3.9044   51.0687   31.4252 H   0  0  0  0  0  0
    2.6594   52.1630   32.0807 H   0  0  0  0  0  0
    1.4793   51.7230   30.2844 H   0  0  0  0  0  0
    0.2518   51.5499   28.2140 H   0  0  0  0  0  0
    3.3201   53.7869   26.1997 H   0  0  0  0  0  0
    6.4866   54.9692   27.4602 H   0  0  0  0  0  0
    5.7141   53.7051   26.5041 H   0  0  0  0  0  0
    4.9411   55.2972   26.6826 H   0  0  0  0  0  0
    0.1014   51.8927   26.0384 H   0  0  0  0  0  0
    0.0723   50.3552   24.0251 H   0  0  0  0  0  0
   -1.2330   51.2576   24.8070 H   0  0  0  0  0  0
   -2.8872   49.6808   24.0332 H   0  0  0  0  0  0
   -3.9598   49.6954   19.8857 H   0  0  0  0  0  0
   -2.0698   51.0993   19.3873 H   0  0  0  0  0  0
    2.6739   51.5466   22.8912 H   0  0  0  0  0  0
    1.5929   50.3445   22.2541 H   0  0  0  0  0  0
    1.3154   50.0136   19.9102 H   0  0  0  0  0  0
    2.0954   51.0851   18.7890 H   0  0  0  0  0  0
   -0.2377   51.8946   18.9527 H   0  0  0  0  0  0
    0.8322   53.0317   19.6533 H   0  0  0  0  0  0
    3.6501   53.4167   22.4708 H   0  0  0  0  0  0
    5.3230   55.0806   21.8396 H   0  0  0  0  0  0
    6.2500   55.1023   19.5318 H   0  0  0  0  0  0
    5.4433   53.3030   17.8900 H   0  0  0  0  0  0
    3.9253   51.7599   18.6312 H   0  0  0  0  0  0
  1  2  1  0  0  0
  1 40  1  0  0  0
  1 41  1  0  0  0
  1 42  1  0  0  0
  2  3  1  0  0  0
  3  8  2  0  0  0
  3  4  1  0  0  0
  4  5  2  0  0  0
  4 43  1  0  0  0
  5  6  1  0  0  0
  5 44  1  0  0  0
  6  7  2  0  0  0
  6 11  1  0  0  0
  7  8  1  0  0  0
  7 45  1  0  0  0
  8  9  1  0  0  0
  9 10  1  0  0  0
 10 46  1  0  0  0
 10 47  1  0  0  0
 10 48  1  0  0  0
 11 12  1  0  0  0
 11 49  1  0  0  0
 12 13  2  0  0  0
 12 14  1  0  0  0
 14 15  1  0  0  0
 14 24  1  0  0  0
 14 16  1  0  0  0
 16 17  1  0  0  0
 16 50  1  0  0  0
 16 51  1  0  0  0
 17 22  2  0  0  0
 17 18  1  0  0  0
 18 19  2  0  0  0
 18 52  1  0  0  0
 19 20  1  0  0  0
 19 36  1  0  0  0
 20 21  2  0  0  0
 20 53  1  0  0  0
 21 22  1  0  0  0
 21 54  1  0  0  0
 22 23  1  0  0  0
 23 29  1  0  0  0
 23 24  1  0  0  0
 24 25  1  0  0  0
 24 26  1  0  0  0
 26 27  1  0  0  0
 26 55  1  0  0  0
 26 56  1  0  0  0
 27 28  1  0  0  0
 27 30  1  0  0  0
 28 29  1  0  0  0
 28 57  1  0  0  0
 28 58  1  0  0  0
 29 59  1  0  0  0
 29 60  1  0  0  0
 30 35  2  0  0  0
 30 31  1  0  0  0
 31 32  2  0  0  0
 31 61  1  0  0  0
 32 33  1  0  0  0
 32 62  1  0  0  0
 33 34  2  0  0  0
 33 63  1  0  0  0
 34 35  1  0  0  0
 34 64  1  0  0  0
 35 65  1  0  0  0
 36 37  1  0  0  0
 36 38  1  0  0  0
 36 39  1  0  0  0
M  CHG  1  35   1
M  END
> <i_i_glide_confnum>
25

> <i_i_glide_lignum>
5341

> <i_i_glide_posenum>
175

> <i_i_glide_rotatable_bonds>
7

> <i_m_Source_File_Index>
5495

> <b_m_subgroup_collapsed>
0

> <r_i_docking_score>
-4.46698

> <r_i_glide_ecoul>
-1.87242

> <r_i_glide_eff_state_penalty>
0

> <r_i_glide_einternal>
1.69392

> <r_i_glide_emodel>
-56.0042

> <r_i_glide_energy>
-41.3231

> <r_i_glide_erotb>
0.311044

> <r_i_glide_esite>
-0.0850181

> <r_i_glide_evdw>
-39.4507

> <r_i_glide_gscore>
-4.46698

> <r_i_glide_hbond>
-0.284284

> <r_i_glide_ligand_efficiency>
-0.120729

> <r_i_glide_ligand_efficiency_ln>
-0.968783

> <r_i_glide_ligand_efficiency_sa>
-0.402297

> <r_i_glide_lipo>
-1.91134

> <r_i_glide_metal>
0

> <r_i_glide_rewards>
-0.243982

> <s_i_glide_gridfile>
wee1_glide-grid

> <s_m_Source_File>
wee1_decoys_glide_SP.sdf

> <s_m_Source_Path>
/Users/zhangxujun/Desktop

> <s_m_entry_id>
5770

> <s_m_entry_name>
wee1_decoys_glide_SP.5495

> <s_m_subgroup_title>
wee1_decoys_glide_SP

> <s_m_subgroupid>
wee1_decoys_glide_SP


$$$$
