@<TRIPOS>MOLECULE
ZINC65021431_3345
55   58    1
SMALL
USER_CHARGES


@<TRIPOS>ATOM
      1 C1          3.8684   39.6984   17.8863 C.3       1 UNK         0.0000 
      2 C2          3.9281   41.2323   17.8726 C.3       1 UNK         0.0000 
      3 O3          2.6900   41.8036   18.2804 O.3       1 UNK         0.0000 
      4 C4          1.6300   41.8766   17.4333 C.2       1 UNK         0.0000 
      5 O5          1.6499   41.4505   16.2755 O.2       1 UNK         0.0000 
      6 C6          0.4153   42.4897   18.0625 C.ar      1 UNK         0.0000 
      7 C7          0.4510   43.0659   19.3379 C.ar      1 UNK         0.0000 
      8 C8         -0.6911   43.6476   19.8781 C.ar      1 UNK         0.0000 
      9 C9         -1.9027   43.6790   19.1703 C.ar      1 UNK         0.0000 
     10 C10        -1.9218   43.0932   17.9024 C.ar      1 UNK         0.0000 
     11 C11        -0.7865   42.5088   17.3485 C.ar      1 UNK         0.0000 
     12 N12        -3.0862   44.2321   19.5995 N.2       1 UNK         0.0000 
     13 S13        -3.3360   44.9571   20.9696 S.o2      1 UNK         0.0000 
     14 O14        -2.4956   44.4968   22.0817 O.2       1 UNK         0.0000 
     15 O15        -4.7641   45.1225   21.2610 O.2       1 UNK         0.0000 
     16 C16        -2.7573   46.6171   20.5609 C.ar      1 UNK         0.0000 
     17 C17        -3.6402   47.5535   20.0133 C.ar      1 UNK         0.0000 
     18 C18        -3.1812   48.8180   19.6412 C.ar      1 UNK         0.0000 
     19 C19        -1.8359   49.1548   19.8004 C.ar      1 UNK         0.0000 
     20 C20        -0.9437   48.2186   20.3375 C.ar      1 UNK         0.0000 
     21 C21        -1.4111   46.9594   20.7209 C.ar      1 UNK         0.0000 
     22 N22         0.4166   48.4967   20.4805 N.am      1 UNK         0.0000 
     23 C23         1.0841   49.6665   20.4787 C.2       1 UNK         0.0000 
     24 O24         2.3043   49.6739   20.6137 O.2       1 UNK         0.0000 
     25 C25         0.2233   50.9495   20.3153 C.3       1 UNK         0.0000 
     26 H26         0.8238   51.7372   19.8607 H         1 UNK         0.0000 
     27 S27        -1.2311   50.7070   19.2003 S.3       1 UNK         0.0000 
     28 C28        -0.2238   51.4587   21.7172 C.2       1 UNK         0.0000 
     29 O29        -1.3702   51.2340   22.1161 O.2       1 UNK         0.0000 
     30 N30         0.6527   52.1614   22.4821 N.am      1 UNK         0.0000 
     31 C31         1.9929   52.5975   22.0557 C.3       1 UNK         0.0000 
     32 C32         2.5358   53.3363   23.2763 C.3       1 UNK         0.0000 
     33 C33         1.2980   53.8253   23.9935 C.3       1 UNK         0.0000 
     34 C34         0.2873   52.6959   23.8015 C.3       1 UNK         0.0000 
     35 H35         4.8214   39.2903   17.5627 H         1 UNK         0.0000 
     36 H36         3.6576   39.3149   18.8848 H         1 UNK         0.0000 
     37 H37         3.1041   39.3171   17.2088 H         1 UNK         0.0000 
     38 H38         4.2190   41.6012   16.8874 H         1 UNK         0.0000 
     39 H39         4.7011   41.5662   18.5649 H         1 UNK         0.0000 
     40 H40         1.3595   43.0829   19.9223 H         1 UNK         0.0000 
     41 H41        -0.5893   44.0767   20.8584 H         1 UNK         0.0000 
     42 H42        -2.8332   43.1025   17.3234 H         1 UNK         0.0000 
     43 H43        -0.8533   42.0828   16.3567 H         1 UNK         0.0000 
     44 H44        -4.6796   47.2948   19.8643 H         1 UNK         0.0000 
     45 H45        -3.8670   49.5287   19.2034 H         1 UNK         0.0000 
     46 H46        -0.7313   46.2359   21.1395 H         1 UNK         0.0000 
     47 H47         1.0398   47.7232   20.6499 H         1 UNK         0.0000 
     48 H48         1.9111   53.2959   21.2222 H         1 UNK         0.0000 
     49 H49         2.6511   51.7688   21.7996 H         1 UNK         0.0000 
     50 H50         3.2270   54.1368   23.0066 H         1 UNK         0.0000 
     51 H51         3.0774   52.6444   23.9208 H         1 UNK         0.0000 
     52 H52         1.4687   54.0613   25.0441 H         1 UNK         0.0000 
     53 H53         0.9371   54.7352   23.5123 H         1 UNK         0.0000 
     54 H54         0.4504   51.9328   24.5648 H         1 UNK         0.0000 
     55 H55        -0.7279   53.0963   23.8365 H         1 UNK         0.0000 
@<TRIPOS>BOND
     1    1    2 1    
     2    1   35 1    
     3    1   36 1    
     4    1   37 1    
     5    2    3 1    
     6    2   38 1    
     7    2   39 1    
     8    3    4 1    
     9    4    5 2    
    10    4    6 1    
    11    6   11 ar   
    12    6    7 ar   
    13    7    8 ar   
    14    7   40 1    
    15    8    9 ar   
    16    8   41 1    
    17    9   10 ar   
    18    9   12 1    
    19   10   11 ar   
    20   10   42 1    
    21   11   43 1    
    22   12   13 1    
    23   13   14 2    
    24   13   15 2    
    25   13   16 1    
    26   16   21 ar   
    27   16   17 ar   
    28   17   18 ar   
    29   17   44 1    
    30   18   19 ar   
    31   18   45 1    
    32   19   27 1    
    33   19   20 ar   
    34   20   21 ar   
    35   20   22 1    
    36   21   46 1    
    37   22   23 am   BACKBONE|DICT|INTERRES
    38   22   47 1    
    39   23   24 2    
    40   23   25 1    
    41   25   26 1    
    42   25   27 1    
    43   25   28 1    
    44   28   29 2    
    45   28   30 am   BACKBONE|DICT|INTERRES
    46   30   34 1    
    47   30   31 1    
    48   31   32 1    
    49   31   48 1    
    50   31   49 1    
    51   32   33 1    
    52   32   50 1    
    53   32   51 1    
    54   33   34 1    
    55   33   52 1    
    56   33   53 1    
    57   34   54 1    
    58   34   55 1    
@<TRIPOS>SUBSTRUCTURE
     1 UNK         1 GROUP             0       ****    0 ROOT    
