@<TRIPOS>MOLECULE
ZINC04709680_2644
44   47    1
SMALL
USER_CHARGES


@<TRIPOS>ATOM
      1 C1          3.1416   55.5715   14.3013 C.ar      1 UNK         0.0000 
      2 C2          3.7041   55.0512   15.4675 C.ar      1 UNK         0.0000 
      3 C3          3.0615   55.2210   16.7019 C.ar      1 UNK         0.0000 
      4 C4          1.8439   55.9113   16.7465 C.ar      1 UNK         0.0000 
      5 C5          1.2826   56.4315   15.5833 C.ar      1 UNK         0.0000 
      6 C6          1.9300   56.2638   14.3590 C.ar      1 UNK         0.0000 
      7 F7          0.1028   57.0904   15.6387 F         1 UNK         0.0000 
      8 N8          3.6423   54.6996   17.8873 N.pl3     1 UNK         0.0000 
      9 C9          3.1058   53.5287   18.4586 C.2       1 UNK         0.0000 
     10 C10         3.6970   52.9529   19.5530 C.2       1 UNK         0.0000 
     11 C11         4.9039   53.6021   20.2826 C.3       1 UNK         0.0000 
     12 H12         5.6919   52.8502   20.2193 H         1 UNK         0.0000 
     13 C13         5.4085   54.8349   19.5243 C.2       1 UNK         0.0000 
     14 C14         4.7731   55.3262   18.4391 C.2       1 UNK         0.0000 
     15 N15         5.1907   56.4960   17.8309 N.pl3     1 UNK         0.0000 
     16 C16         6.5486   55.5210   20.0497 C.1       1 UNK         0.0000 
     17 N17         7.4553   56.0962   20.4792 N.1       1 UNK         0.0000 
     18 C18         4.6751   53.9004   21.7730 C.2       1 UNK         0.0000 
     19 C19         3.4830   54.0349   22.4899 C.2       1 UNK         0.0000 
     20 C20         3.6388   54.2834   23.8593 C.2       1 UNK         0.0000 
     21 C21         4.9715   54.3885   24.2425 C.2       1 UNK         0.0000 
     22 S22         6.0135   54.0969   22.8830 S.3       1 UNK         0.0000 
     23 N23         5.4859   54.6907   25.5409 N.pl3     1 UNK         0.0000 
     24 O24         6.7017   54.8015   25.6830 O.co2     1 UNK         0.0000 
     25 O25         4.6713   54.8452   26.4443 O.co2     1 UNK         0.0000 
     26 C26         3.2349   51.6495   20.0999 C.2       1 UNK         0.0000 
     27 O27         3.7942   51.1027   21.0510 O.2       1 UNK         0.0000 
     28 C28         2.0009   50.9984   19.4659 C.3       1 UNK         0.0000 
     29 C29         1.8878   51.3343   17.9756 C.3       1 UNK         0.0000 
     30 C30         1.9138   52.8490   17.7369 C.3       1 UNK         0.0000 
     31 H31         3.6428   55.4418   13.3539 H         1 UNK         0.0000 
     32 H32         4.6444   54.5203   15.4168 H         1 UNK         0.0000 
     33 H33         1.3260   56.0456   17.6820 H         1 UNK         0.0000 
     34 H34         1.4918   56.6705   13.4583 H         1 UNK         0.0000 
     35 H35         5.9982   57.0004   18.1659 H         1 UNK         0.0000 
     36 H36         4.6136   56.9570   17.1376 H         1 UNK         0.0000 
     37 H37         2.5110   53.9546   22.0221 H         1 UNK         0.0000 
     38 H38         2.8074   54.4079   24.5406 H         1 UNK         0.0000 
     39 H39         1.1363   51.4050   19.9906 H         1 UNK         0.0000 
     40 H40         2.0187   49.9236   19.6558 H         1 UNK         0.0000 
     41 H41         0.9745   50.9047   17.5650 H         1 UNK         0.0000 
     42 H42         2.7053   50.8564   17.4330 H         1 UNK         0.0000 
     43 H43         0.9700   53.3486   17.9633 H         1 UNK         0.0000 
     44 H44         2.0423   52.9086   16.6558 H         1 UNK         0.0000 
@<TRIPOS>BOND
     1    1    6 ar   
     2    1    2 ar   
     3    1   31 1    
     4    2    3 ar   
     5    2   32 1    
     6    3    4 ar   
     7    3    8 1    
     8    4    5 ar   
     9    4   33 1    
    10    5    6 ar   
    11    5    7 1    
    12    6   34 1    
    13    8   14 1    
    14    8    9 1    
    15    9   30 1    
    16    9   10 2    
    17   10   11 1    
    18   10   26 1    
    19   11   12 1    
    20   11   13 1    
    21   11   18 1    
    22   13   14 2    
    23   13   16 1    
    24   14   15 1    
    25   15   35 1    
    26   15   36 1    
    27   16   17 3    
    28   18   22 1    
    29   18   19 2    
    30   19   20 1    
    31   19   37 1    
    32   20   21 2    
    33   20   38 1    
    34   21   22 1    
    35   21   23 1    
    36   23   24 2    
    37   23   25 1    
    38   26   27 2    
    39   26   28 1    
    40   28   29 1    
    41   28   39 1    
    42   28   40 1    
    43   29   30 1    
    44   29   41 1    
    45   29   42 1    
    46   30   43 1    
    47   30   44 1    
@<TRIPOS>SUBSTRUCTURE
     1 UNK         1 GROUP             0       ****    0 ROOT    
