@<TRIPOS>MOLECULE
ZINC60034001_456
54   56    1
SMALL
USER_CHARGES


@<TRIPOS>ATOM
      1 C1          0.2697   48.6512   24.5120 C.3       1 UNK         0.0000 
      2 C2         -1.1484   49.1246   24.8841 C.3       1 UNK         0.0000 
      3 C3         -1.8013   49.8705   23.7003 C.3       1 UNK         0.0000 
      4 C4         -2.0127   47.9029   25.2592 C.3       1 UNK         0.0000 
      5 N5         -1.0742   49.9942   26.0817 N.pl3     1 UNK         0.0000 
      6 S6         -0.5604   51.6816   26.0101 S.o2      1 UNK         0.0000 
      7 O7          0.5881   51.7533   25.0994 O.2       1 UNK         0.0000 
      8 O8         -1.7537   52.4963   25.7444 O.2       1 UNK         0.0000 
      9 C9         -0.0034   52.1177   27.6760 C.ar      1 UNK         0.0000 
     10 C10        -0.8119   51.7045   28.7415 C.ar      1 UNK         0.0000 
     11 C11        -0.4938   52.0512   30.0538 C.ar      1 UNK         0.0000 
     12 C12         0.6484   52.8030   30.3146 C.ar      1 UNK         0.0000 
     13 C13         1.4724   53.2098   29.2642 C.ar      1 UNK         0.0000 
     14 C14         1.1610   52.8774   27.9330 C.ar      1 UNK         0.0000 
     15 N15         1.9643   53.2520   26.8363 N.am      1 UNK         0.0000 
     16 C16         3.1044   53.9745   26.7533 C.2       1 UNK         0.0000 
     17 O17         3.6774   54.4951   27.7118 O.2       1 UNK         0.0000 
     18 C18         3.6846   54.1044   25.3564 C.ar      1 UNK         0.0000 
     19 C19         5.0526   54.3740   25.1908 C.ar      1 UNK         0.0000 
     20 C20         5.6087   54.4963   23.9175 C.ar      1 UNK         0.0000 
     21 C21         4.7964   54.3647   22.7828 C.ar      1 UNK         0.0000 
     22 C22         3.4359   54.0959   22.9350 C.ar      1 UNK         0.0000 
     23 C23         2.8834   53.9827   24.2081 C.ar      1 UNK         0.0000 
     24 N24         5.2824   54.4678   21.4693 N.am      1 UNK         0.0000 
     25 C25         6.2948   55.2401   21.0157 C.2       1 UNK         0.0000 
     26 O26         6.8776   56.0966   21.6821 O.2       1 UNK         0.0000 
     27 C27         6.6982   54.9469   19.6618 C.2       1 UNK         0.0000 
     28 C28         6.1016   54.1027   18.7139 C.2       1 UNK         0.0000 
     29 C29         6.8024   54.0477   17.5068 C.2       1 UNK         0.0000 
     30 C30         7.9308   54.8544   17.5062 C.2       1 UNK         0.0000 
     31 S31         8.1340   55.6966   19.0069 S.3       1 UNK         0.0000 
     32 H32         0.2426   47.9451   23.6826 H         1 UNK         0.0000 
     33 H33         0.7549   48.1431   25.3515 H         1 UNK         0.0000 
     34 H34         0.9212   49.4739   24.2058 H         1 UNK         0.0000 
     35 H35        -2.7853   50.2619   23.9693 H         1 UNK         0.0000 
     36 H36        -1.1936   50.7125   23.3607 H         1 UNK         0.0000 
     37 H37        -1.9346   49.2107   22.8418 H         1 UNK         0.0000 
     38 H38        -3.0141   48.2019   25.5748 H         1 UNK         0.0000 
     39 H39        -2.1258   47.2194   24.4177 H         1 UNK         0.0000 
     40 H40        -1.5691   47.3379   26.0821 H         1 UNK         0.0000 
     41 H41        -0.8955   49.4905   26.9623 H         1 UNK         0.0000 
     42 H42        -1.6986   51.1102   28.5609 H         1 UNK         0.0000 
     43 H43        -1.1082   51.7109   30.8811 H         1 UNK         0.0000 
     44 H44         0.8998   53.0551   31.3364 H         1 UNK         0.0000 
     45 H45         2.3505   53.7792   29.5166 H         1 UNK         0.0000 
     46 H46         1.6404   52.8503   25.9631 H         1 UNK         0.0000 
     47 H47         5.6982   54.4788   26.0505 H         1 UNK         0.0000 
     48 H48         6.6672   54.6925   23.8216 H         1 UNK         0.0000 
     49 H49         2.7934   53.9979   22.0697 H         1 UNK         0.0000 
     50 H50         1.8201   53.8058   24.2806 H         1 UNK         0.0000 
     51 H51         4.7954   53.9108   20.7864 H         1 UNK         0.0000 
     52 H52         5.1998   53.5313   18.8816 H         1 UNK         0.0000 
     53 H53         6.4984   53.4395   16.6667 H         1 UNK         0.0000 
     54 H54         8.6431   54.9948   16.7066 H         1 UNK         0.0000 
@<TRIPOS>BOND
     1    1    2 1    
     2    1   32 1    
     3    1   33 1    
     4    1   34 1    
     5    2    3 1    
     6    2    4 1    
     7    2    5 1    
     8    3   35 1    
     9    3   36 1    
    10    3   37 1    
    11    4   38 1    
    12    4   39 1    
    13    4   40 1    
    14    5    6 1    
    15    5   41 1    
    16    6    7 2    
    17    6    8 2    
    18    6    9 1    
    19    9   14 ar   
    20    9   10 ar   
    21   10   11 ar   
    22   10   42 1    
    23   11   12 ar   
    24   11   43 1    
    25   12   13 ar   
    26   12   44 1    
    27   13   14 ar   
    28   13   45 1    
    29   14   15 1    
    30   15   16 am   BACKBONE|DICT|INTERRES
    31   15   46 1    
    32   16   17 2    
    33   16   18 1    
    34   18   23 ar   
    35   18   19 ar   
    36   19   20 ar   
    37   19   47 1    
    38   20   21 ar   
    39   20   48 1    
    40   21   22 ar   
    41   21   24 1    
    42   22   23 ar   
    43   22   49 1    
    44   23   50 1    
    45   24   25 am   BACKBONE|DICT|INTERRES
    46   24   51 1    
    47   25   26 2    
    48   25   27 1    
    49   27   31 1    
    50   27   28 2    
    51   28   29 1    
    52   28   52 1    
    53   29   30 2    
    54   29   53 1    
    55   30   31 1    
    56   30   54 1    
@<TRIPOS>SUBSTRUCTURE
     1 UNK         1 GROUP             0       ****    0 ROOT    
