@<TRIPOS>MOLECULE
ZINC63941262_148
58   62    1
SMALL
USER_CHARGES


@<TRIPOS>ATOM
      1 C1          1.6255   56.3524   30.2350 C.3       1 UNK         0.0000 
      2 C2          1.1044   54.9859   29.8336 C.2       1 UNK         0.0000 
      3 C3          0.3991   54.1234   30.7830 C.2       1 UNK         0.0000 
      4 C4         -0.0937   52.9024   30.4536 C.2       1 UNK         0.0000 
      5 C5          0.0469   52.4169   29.1498 C.2       1 UNK         0.0000 
      6 N6         -0.3909   51.2994   28.6223 N.pl3     1 UNK         0.0000 
      7 C7          0.0118   51.2193   27.2084 C.3       1 UNK         0.0000 
      8 C8          0.7813   52.5101   27.0278 C.2       1 UNK         0.0000 
      9 C9          0.7441   53.1675   28.2017 C.2       1 UNK         0.0000 
     10 C10         1.2967   54.4741   28.5967 C.2       1 UNK         0.0000 
     11 C11         1.4428   52.8561   25.7089 C.3       1 UNK         0.0000 
     12 C12         0.5017   52.8364   24.4887 C.3       1 UNK         0.0000 
     13 N13         1.1976   52.4585   23.2578 N.am      1 UNK         0.0000 
     14 C14         2.0978   53.3749   22.5651 C.3       1 UNK         0.0000 
     15 C15         2.5003   52.5933   21.3200 C.3       1 UNK         0.0000 
     16 H16         1.8748   52.8974   20.4764 H         1 UNK         0.0000 
     17 C17         2.2473   51.1322   21.6882 C.3       1 UNK         0.0000 
     18 C18         1.2681   51.1658   22.8569 C.2       1 UNK         0.0000 
     19 O19         0.6981   50.1840   23.3359 O.2       1 UNK         0.0000 
     20 C20         3.9679   52.9071   20.9691 C.2       1 UNK         0.0000 
     21 O21         4.8856   52.4926   21.6811 O.2       1 UNK         0.0000 
     22 N22         4.1661   53.6443   19.8650 N.am      1 UNK         0.0000 
     23 C23         5.4579   54.0096   19.3065 C.3       1 UNK         0.0000 
     24 H24         6.3009   53.7908   19.9659 H         1 UNK         0.0000 
     25 N25         5.6908   53.2970   18.0700 N.pl3     1 UNK         0.0000 
     26 C26         6.1253   54.0666   16.9946 C.ar      1 UNK         0.0000 
     27 C27         6.5114   53.5963   15.7329 C.ar      1 UNK         0.0000 
     28 C28         6.9089   54.5186   14.7588 C.ar      1 UNK         0.0000 
     29 C29         6.9109   55.8864   15.0388 C.ar      1 UNK         0.0000 
     30 C30         6.5218   56.3475   16.2961 C.ar      1 UNK         0.0000 
     31 C31         6.1360   55.4310   17.2736 C.ar      1 UNK         0.0000 
     32 S32         5.6220   55.7740   18.9156 S.3       1 UNK         0.0000 
     33 C33         6.5122   52.1108   15.3999 C.3       1 UNK         0.0000 
     34 H34         2.5147   56.6359   29.6682 H         1 UNK         0.0000 
     35 H35         0.8580   57.1114   30.1117 H         1 UNK         0.0000 
     36 H36         1.9070   56.3573   31.2817 H         1 UNK         0.0000 
     37 H37         0.2724   54.4677   31.8027 H         1 UNK         0.0000 
     38 H38        -0.5897   52.3186   31.2183 H         1 UNK         0.0000 
     39 H39        -0.8948   51.1438   26.6064 H         1 UNK         0.0000 
     40 H40         0.6122   50.3188   27.0696 H         1 UNK         0.0000 
     41 H41         1.8327   55.0815   27.8831 H         1 UNK         0.0000 
     42 H42         2.2116   52.0972   25.5752 H         1 UNK         0.0000 
     43 H43         1.9733   53.8073   25.7713 H         1 UNK         0.0000 
     44 H44        -0.0064   53.7940   24.3733 H         1 UNK         0.0000 
     45 H45        -0.2954   52.1114   24.6545 H         1 UNK         0.0000 
     46 H46         2.9342   53.5227   23.2496 H         1 UNK         0.0000 
     47 H47         1.6178   54.3272   22.3438 H         1 UNK         0.0000 
     48 H48         1.7234   50.6181   20.8793 H         1 UNK         0.0000 
     49 H49         3.1380   50.5484   21.9305 H         1 UNK         0.0000 
     50 H50         3.3633   53.9284   19.3213 H         1 UNK         0.0000 
     51 H51         5.6113   52.2836   18.0809 H         1 UNK         0.0000 
     52 H52         7.2162   54.1757   13.7798 H         1 UNK         0.0000 
     53 H53         7.2094   56.5904   14.2741 H         1 UNK         0.0000 
     54 H54         6.5208   57.4082   16.5024 H         1 UNK         0.0000 
     55 H55         5.5069   51.7011   15.5206 H         1 UNK         0.0000 
     56 H56         7.1670   51.5766   16.0901 H         1 UNK         0.0000 
     57 H57         6.8455   51.9087   14.3823 H         1 UNK         0.0000 
     58 H58        -0.9300   50.5733   29.0940 H         1 UNK         0.0000 
@<TRIPOS>BOND
     1    1    2 1    
     2    1   34 1    
     3    1   35 1    
     4    1   36 1    
     5    2   10 2    
     6    2    3 1    
     7    3    4 2    
     8    3   37 1    
     9    4    5 1    
    10    4   38 1    
    11    5    9 1    
    12    5    6 2    
    13    6    7 1    
    14    6   58 1    
    15    7    8 1    
    16    7   39 1    
    17    7   40 1    
    18    8    9 2    
    19    8   11 1    
    20    9   10 1    
    21   10   41 1    
    22   11   12 1    
    23   11   42 1    
    24   11   43 1    
    25   12   13 1    
    26   12   44 1    
    27   12   45 1    
    28   13   18 am   BACKBONE|DICT|INTERRES
    29   13   14 1    
    30   14   15 1    
    31   14   46 1    
    32   14   47 1    
    33   15   16 1    
    34   15   17 1    
    35   15   20 1    
    36   17   18 1    
    37   17   48 1    
    38   17   49 1    
    39   18   19 2    
    40   20   21 2    
    41   20   22 am   BACKBONE|DICT|INTERRES
    42   22   23 1    
    43   22   50 1    
    44   23   24 1    
    45   23   32 1    
    46   23   25 1    
    47   25   26 1    
    48   25   51 1    
    49   26   31 ar   
    50   26   27 ar   
    51   27   28 ar   
    52   27   33 1    
    53   28   29 ar   
    54   28   52 1    
    55   29   30 ar   
    56   29   53 1    
    57   30   31 ar   
    58   30   54 1    
    59   31   32 1    
    60   33   55 1    
    61   33   56 1    
    62   33   57 1    
@<TRIPOS>SUBSTRUCTURE
     1 UNK         1 GROUP             0       ****    0 ROOT    
