@<TRIPOS>MOLECULE
ZINC59640560_1391
47   50    1
SMALL
USER_CHARGES


@<TRIPOS>ATOM
      1 C1          1.8813   53.0667   25.6451 C.3       1 UNK         0.0000 
      2 C2          3.2592   53.6961   25.6626 C.ar      1 UNK         0.0000 
      3 C3          4.0342   54.0967   24.6000 C.ar      1 UNK         0.0000 
      4 C4          5.3014   54.4889   25.0344 C.ar      1 UNK         0.0000 
      5 C5          5.2516   54.3929   26.4347 C.ar      1 UNK         0.0000 
      6 N6          4.0097   53.8760   26.8141 N.pl3     1 UNK         0.0000 
      7 C7          3.5814   53.5101   28.1211 C.ar      1 UNK         0.0000 
      8 C8          4.3597   52.6135   28.8820 C.ar      1 UNK         0.0000 
      9 C9          3.8908   52.1011   30.0963 C.ar      1 UNK         0.0000 
     10 C10         2.6291   52.4974   30.5202 C.ar      1 UNK         0.0000 
     11 C11         1.8881   53.4036   29.8192 C.ar      1 UNK         0.0000 
     12 C12         2.3386   53.9518   28.6205 C.ar      1 UNK         0.0000 
     13 O13         0.7331   53.6551   30.4930 O.3       1 UNK         0.0000 
     14 C14         0.6774   52.7036   31.5281 C.3       1 UNK         0.0000 
     15 O15         1.9497   52.1186   31.6353 O.3       1 UNK         0.0000 
     16 C16         6.3140   54.7429   27.4658 C.3       1 UNK         0.0000 
     17 C17         6.4169   54.9013   24.1830 C.2       1 UNK         0.0000 
     18 N18         6.3019   54.8976   22.9178 N.2       1 UNK         0.0000 
     19 N19         7.3755   55.3873   22.1573 N.pl3     1 UNK         0.0000 
     20 C20         7.4226   55.4343   20.7606 C.ar      1 UNK         0.0000 
     21 N21         8.6450   55.6964   20.2385 N.ar      1 UNK         0.0000 
     22 C22         8.7246   55.7538   18.8838 C.ar      1 UNK         0.0000 
     23 C23         7.6126   55.5618   18.0621 C.ar      1 UNK         0.0000 
     24 C24         6.3817   55.3120   18.6888 C.ar      1 UNK         0.0000 
     25 N25         6.2774   55.2583   20.0485 N.ar      1 UNK         0.0000 
     26 N26         5.2451   55.1098   17.8925 N.pl3     1 UNK         0.0000 
     27 C27         3.9338   54.8284   18.4624 C.3       1 UNK         0.0000 
     28 F28         7.7375   55.6161   16.7126 F         1 UNK         0.0000 
     29 H29         1.5288   52.8920   24.6278 H         1 UNK         0.0000 
     30 H30         1.8639   52.0998   26.1529 H         1 UNK         0.0000 
     31 H31         1.1465   53.6995   26.1327 H         1 UNK         0.0000 
     32 H32         3.7215   54.0542   23.5656 H         1 UNK         0.0000 
     33 H33         5.3116   52.2687   28.5042 H         1 UNK         0.0000 
     34 H34         4.4900   51.4134   30.6724 H         1 UNK         0.0000 
     35 H35         1.7344   54.6625   28.0768 H         1 UNK         0.0000 
     36 H36        -0.0665   51.9391   31.2798 H         1 UNK         0.0000 
     37 H37         0.3929   53.1644   32.4767 H         1 UNK         0.0000 
     38 H38         7.0972   55.3774   27.0573 H         1 UNK         0.0000 
     39 H39         5.8993   55.2898   28.3144 H         1 UNK         0.0000 
     40 H40         6.8149   53.8606   27.8576 H         1 UNK         0.0000 
     41 H41         7.3105   55.2142   24.7185 H         1 UNK         0.0000 
     42 H42         8.2321   55.5311   22.6863 H         1 UNK         0.0000 
     43 H43         9.7029   55.9469   18.4649 H         1 UNK         0.0000 
     44 H44         5.3429   55.1516   16.8876 H         1 UNK         0.0000 
     45 H45         3.2219   54.5968   17.6706 H         1 UNK         0.0000 
     46 H46         3.5612   55.6916   19.0099 H         1 UNK         0.0000 
     47 H47         3.9728   53.9728   19.1382 H         1 UNK         0.0000 
@<TRIPOS>BOND
     1    1    2 1    
     2    1   29 1    
     3    1   30 1    
     4    1   31 1    
     5    2    6 ar   
     6    2    3 ar   
     7    3    4 ar   
     8    3   32 1    
     9    4    5 ar   
    10    4   17 1    
    11    5    6 ar   
    12    5   16 1    
    13    6    7 1    
    14    7   12 ar   
    15    7    8 ar   
    16    8    9 ar   
    17    8   33 1    
    18    9   10 ar   
    19    9   34 1    
    20   10   15 1    
    21   10   11 ar   
    22   11   12 ar   
    23   11   13 1    
    24   12   35 1    
    25   13   14 1    
    26   14   15 1    
    27   14   36 1    
    28   14   37 1    
    29   16   38 1    
    30   16   39 1    
    31   16   40 1    
    32   17   18 2    
    33   17   41 1    
    34   18   19 1    
    35   19   20 1    
    36   19   42 1    
    37   20   25 ar   
    38   20   21 ar   
    39   21   22 ar   
    40   22   23 ar   
    41   22   43 1    
    42   23   24 ar   
    43   23   28 1    
    44   24   25 ar   
    45   24   26 1    
    46   26   27 1    
    47   26   44 1    
    48   27   45 1    
    49   27   46 1    
    50   27   47 1    
@<TRIPOS>SUBSTRUCTURE
     1 UNK         1 GROUP             0       ****    0 ROOT    
