ZINC57316321_3188
                    3D
 Schrodinger Suite 2024-2.
 52 54  0  0  1  0            999 V2000
    7.7148   55.8286   21.6166 C   0  0  0  0  0  0
    7.3739   56.4973   20.4132 O   0  0  0  0  0  0
    6.3456   56.0283   19.6199 C   0  0  0  0  0  0
    5.6472   54.8383   19.8676 C   0  0  0  0  0  0
    4.6227   54.3984   19.0163 C   0  0  0  0  0  0
    4.3024   55.1903   17.9005 C   0  0  0  0  0  0
    4.9740   56.3865   17.6460 C   0  0  0  0  0  0
    6.0073   56.7990   18.5016 C   0  0  0  0  0  0
    6.6849   57.9740   18.2744 O   0  0  0  0  0  0
    7.6963   57.8851   17.2807 C   0  0  0  0  0  0
    4.6364   57.0950   16.5164 O   0  0  0  0  0  0
    4.0074   58.3527   16.7387 C   0  0  0  0  0  0
    3.8891   53.1078   19.3320 C   0  0  0  0  0  0
    4.3336   52.3485   20.2011 O   0  0  0  0  0  0
    2.7288   52.8967   18.6552 N   0  0  0  0  0  0
    1.6437   52.1295   18.9835 C   0  0  0  0  0  0
    0.2425   52.3816   18.1128 S   0  0  0  0  0  0
    1.7810   51.2471   20.0218 N   0  0  0  0  0  0
    0.6970   50.8056   20.9086 C   0  0  0  0  0  0
    0.6619   51.6538   22.1683 C   0  0  0  0  0  0
   -0.3344   52.0630   23.0400 C   0  0  0  0  0  0
    0.2818   52.8403   24.0259 C   0  0  0  0  0  0
    1.6317   52.9125   23.7051 C   0  0  0  0  0  0
    1.8461   52.1763   22.5840 O   0  0  0  0  0  0
    2.8297   53.5497   24.3246 C   0  0  0  0  0  0
    4.0040   53.6979   23.5784 C   0  0  0  0  0  0
    5.1537   54.2064   24.1747 C   0  0  0  0  0  0
    5.1251   54.6017   25.5088 C   0  0  0  0  0  0
    3.9536   54.4832   26.2540 C   0  0  0  0  0  0
    2.8087   53.9493   25.6637 C   0  0  0  0  0  0
    6.7037   55.2966   26.3153 Br  0  0  0  0  0  0
    8.5449   56.3561   22.0815 H   0  0  0  0  0  0
    6.8823   55.8403   22.3183 H   0  0  0  0  0  0
    8.0435   54.8079   21.4397 H   0  0  0  0  0  0
    5.9029   54.2418   20.7301 H   0  0  0  0  0  0
    3.5303   54.8959   17.2048 H   0  0  0  0  0  0
    8.1825   58.8548   17.1750 H   0  0  0  0  0  0
    8.4609   57.1558   17.5545 H   0  0  0  0  0  0
    7.2856   57.6129   16.3072 H   0  0  0  0  0  0
    3.7753   58.8135   15.7786 H   0  0  0  0  0  0
    4.6453   59.0497   17.2817 H   0  0  0  0  0  0
    3.0691   58.2390   17.2811 H   0  0  0  0  0  0
    2.5514   53.5587   17.9170 H   0  0  0  0  0  0
    2.7171   51.1584   20.3960 H   0  0  0  0  0  0
   -0.2737   50.7921   20.4143 H   0  0  0  0  0  0
    0.8950   49.7632   21.1565 H   0  0  0  0  0  0
   -1.3821   51.8095   22.9794 H   0  0  0  0  0  0
   -0.2032   53.2963   24.8747 H   0  0  0  0  0  0
    4.0398   53.3886   22.5445 H   0  0  0  0  0  0
    6.0692   54.2758   23.6100 H   0  0  0  0  0  0
    3.9389   54.7859   27.2909 H   0  0  0  0  0  0
    1.9120   53.8324   26.2547 H   0  0  0  0  0  0
  1  2  1  0  0  0
  1 32  1  0  0  0
  1 33  1  0  0  0
  1 34  1  0  0  0
  2  3  1  0  0  0
  3  8  2  0  0  0
  3  4  1  0  0  0
  4  5  2  0  0  0
  4 35  1  0  0  0
  5  6  1  0  0  0
  5 13  1  0  0  0
  6  7  2  0  0  0
  6 36  1  0  0  0
  7  8  1  0  0  0
  7 11  1  0  0  0
  8  9  1  0  0  0
  9 10  1  0  0  0
 10 37  1  0  0  0
 10 38  1  0  0  0
 10 39  1  0  0  0
 11 12  1  0  0  0
 12 40  1  0  0  0
 12 41  1  0  0  0
 12 42  1  0  0  0
 13 14  2  0  0  0
 13 15  1  0  0  0
 15 16  1  0  0  0
 15 43  1  0  0  0
 16 17  2  0  0  0
 16 18  1  0  0  0
 18 19  1  0  0  0
 18 44  1  0  0  0
 19 20  1  0  0  0
 19 45  1  0  0  0
 19 46  1  0  0  0
 20 24  1  0  0  0
 20 21  2  0  0  0
 21 22  1  0  0  0
 21 47  1  0  0  0
 22 23  2  0  0  0
 22 48  1  0  0  0
 23 24  1  0  0  0
 23 25  1  0  0  0
 25 30  2  0  0  0
 25 26  1  0  0  0
 26 27  2  0  0  0
 26 49  1  0  0  0
 27 28  1  0  0  0
 27 50  1  0  0  0
 28 29  2  0  0  0
 28 31  1  0  0  0
 29 30  1  0  0  0
 29 51  1  0  0  0
 30 52  1  0  0  0
M  END
> <i_i_glide_confnum>
23

> <i_i_glide_lignum>
3189

> <i_i_glide_posenum>
223

> <i_i_glide_rotatable_bonds>
10

> <i_m_Source_File_Index>
5918

> <b_m_subgroup_collapsed>
0

> <r_i_docking_score>
-4.81226

> <r_i_glide_ecoul>
-3.90978

> <r_i_glide_eff_state_penalty>
0

> <r_i_glide_einternal>
21.097

> <r_i_glide_emodel>
-45.3369

> <r_i_glide_energy>
-42.7699

> <r_i_glide_erotb>
0.56055

> <r_i_glide_esite>
-0.103605

> <r_i_glide_evdw>
-38.8602

> <r_i_glide_gscore>
-4.81226

> <r_i_glide_hbond>
-0.23388

> <r_i_glide_ligand_efficiency>
-0.155234

> <r_i_glide_ligand_efficiency_ln>
-1.08531

> <r_i_glide_ligand_efficiency_sa>
-0.48765

> <r_i_glide_lipo>
-2.51163

> <r_i_glide_metal>
0

> <r_i_glide_rewards>
0.00578048

> <s_i_glide_gridfile>
wee1_glide-grid

> <s_m_Source_File>
wee1_decoys_glide_SP.sdf

> <s_m_Source_Path>
/Users/zhangxujun/Desktop

> <s_m_entry_id>
6193

> <s_m_entry_name>
wee1_decoys_glide_SP.5918

> <s_m_subgroup_title>
wee1_decoys_glide_SP

> <s_m_subgroupid>
wee1_decoys_glide_SP


$$$$
