@<TRIPOS>MOLECULE
ZINC13048892_5967
69   73    1
SMALL
USER_CHARGES


@<TRIPOS>ATOM
      1 C1         -5.9616   51.3304   26.0638 C.3       1 UNK         0.0000 
      2 C2         -4.8662   51.1681   27.1454 C.3       1 UNK         0.0000 
      3 H3         -4.5915   52.1760   27.4657 H         1 UNK         0.0000 
      4 C4         -5.3289   50.4170   28.4453 C.3       1 UNK         0.0000 
      5 C5         -6.4788   51.1828   29.1810 C.3       1 UNK         0.0000 
      6 C6         -6.9035   50.4480   30.4824 C.3       1 UNK         0.0000 
      7 C7         -5.6942   50.3511   31.4453 C.3       1 UNK         0.0000 
      8 C8         -4.5509   49.5748   30.7522 C.3       1 UNK         0.0000 
      9 C9         -4.1344   50.3058   29.4530 C.3       1 UNK         0.0000 
     10 C10        -5.0283   48.1445   30.3880 C.3       1 UNK         0.0000 
     11 C11        -6.2457   48.2323   29.4359 C.3       1 UNK         0.0000 
     12 C12        -7.3910   49.0197   30.1285 C.3       1 UNK         0.0000 
     13 C13        -5.8274   48.9647   28.1373 C.3       1 UNK         0.0000 
     14 N14        -3.6527   50.5737   26.5699 N.am      1 UNK         0.0000 
     15 C15        -2.8018   51.1757   25.7208 C.2       1 UNK         0.0000 
     16 O16        -2.9391   52.3438   25.3576 O.2       1 UNK         0.0000 
     17 C17        -1.6392   50.3081   25.2238 C.3       1 UNK         0.0000 
     18 S18        -0.7845   50.9642   23.7392 S.3       1 UNK         0.0000 
     19 C19         0.5402   52.0037   24.4273 C.ar      1 UNK         0.0000 
     20 N20         0.6977   51.9752   25.6985 N.2       1 UNK         0.0000 
     21 C21         1.7057   52.7049   26.3240 C.ar      1 UNK         0.0000 
     22 C22         1.9182   52.5003   27.6824 C.ar      1 UNK         0.0000 
     23 C23         2.9644   53.1665   28.3390 C.ar      1 UNK         0.0000 
     24 C24         3.7309   54.0989   27.6186 C.ar      1 UNK         0.0000 
     25 C25         3.5084   54.3169   26.2576 C.ar      1 UNK         0.0000 
     26 C26         2.5084   53.5854   25.6075 C.ar      1 UNK         0.0000 
     27 C27         2.2985   53.6939   24.1159 C.ar      1 UNK         0.0000 
     28 O28         2.9258   54.4967   23.4184 O.2       1 UNK         0.0000 
     29 N29         1.3510   52.8077   23.6286 N.pl3     1 UNK         0.0000 
     30 C30         1.2548   52.7298   22.1420 C.3       1 UNK         0.0000 
     31 C31         2.2395   51.7666   21.4105 C.3       1 UNK         0.0000 
     32 C32         3.6615   52.3421   21.2737 C.3       1 UNK         0.0000 
     33 C33         2.2704   50.3295   21.9672 C.3       1 UNK         0.0000 
     34 C34         3.2780   52.8692   29.7733 C.2       1 UNK         0.0000 
     35 O35         3.1044   51.6973   30.1844 O.co2     1 UNK         0.0000 
     36 O36         3.7017   53.8100   30.4795 O.co2     1 UNK         0.0000 
     37 H37        -6.8799   51.7475   26.4668 H         1 UNK         0.0000 
     38 H38        -5.6462   52.0158   25.2767 H         1 UNK         0.0000 
     39 H39        -6.2210   50.3778   25.6069 H         1 UNK         0.0000 
     40 H40        -6.1642   52.1990   29.4170 H         1 UNK         0.0000 
     41 H41        -7.3569   51.2794   28.5433 H         1 UNK         0.0000 
     42 H42        -7.7093   50.9999   30.9680 H         1 UNK         0.0000 
     43 H43        -5.9773   49.8488   32.3720 H         1 UNK         0.0000 
     44 H44        -5.3506   51.3428   31.7375 H         1 UNK         0.0000 
     45 H45        -3.6947   49.5226   31.4249 H         1 UNK         0.0000 
     46 H46        -3.2968   49.7624   29.0134 H         1 UNK         0.0000 
     47 H47        -3.7444   51.2966   29.6818 H         1 UNK         0.0000 
     48 H48        -4.2139   47.5882   29.9196 H         1 UNK         0.0000 
     49 H49        -5.2992   47.5879   31.2839 H         1 UNK         0.0000 
     50 H50        -6.5906   47.2265   29.1922 H         1 UNK         0.0000 
     51 H51        -7.7174   48.4980   31.0312 H         1 UNK         0.0000 
     52 H52        -8.2640   49.0695   29.4757 H         1 UNK         0.0000 
     53 H53        -6.6742   48.9832   27.4493 H         1 UNK         0.0000 
     54 H54        -5.0461   48.3920   27.6311 H         1 UNK         0.0000 
     55 H55        -3.3950   49.6655   26.9315 H         1 UNK         0.0000 
     56 H56        -2.0472   49.3369   24.9463 H         1 UNK         0.0000 
     57 H57        -0.9527   50.1143   26.0461 H         1 UNK         0.0000 
     58 H58         1.3046   51.7829   28.2097 H         1 UNK         0.0000 
     59 H59         4.5297   54.6356   28.1132 H         1 UNK         0.0000 
     60 H60         4.1352   55.0085   25.7154 H         1 UNK         0.0000 
     61 H61         0.2404   52.4537   21.8543 H         1 UNK         0.0000 
     62 H62         1.3627   53.7213   21.7036 H         1 UNK         0.0000 
     63 H63         1.8639   51.6969   20.3852 H         1 UNK         0.0000 
     64 H64         4.1649   52.4223   22.2373 H         1 UNK         0.0000 
     65 H65         4.2785   51.7158   20.6281 H         1 UNK         0.0000 
     66 H66         3.6401   53.3399   20.8299 H         1 UNK         0.0000 
     67 H67         2.6409   50.2966   22.9913 H         1 UNK         0.0000 
     68 H68         1.2786   49.8773   21.9547 H         1 UNK         0.0000 
     69 H69         2.9172   49.6916   21.3647 H         1 UNK         0.0000 
@<TRIPOS>BOND
     1    1    2 1    
     2    1   37 1    
     3    1   38 1    
     4    1   39 1    
     5    2    3 1    
     6    2    4 1    
     7    2   14 1    
     8    4    9 1    
     9    4   13 1    
    10    4    5 1    
    11    5    6 1    
    12    5   40 1    
    13    5   41 1    
    14    6   12 1    
    15    6    7 1    
    16    6   42 1    
    17    7    8 1    
    18    7   43 1    
    19    7   44 1    
    20    8    9 1    
    21    8   10 1    
    22    8   45 1    
    23    9   46 1    
    24    9   47 1    
    25   10   11 1    
    26   10   48 1    
    27   10   49 1    
    28   11   12 1    
    29   11   13 1    
    30   11   50 1    
    31   12   51 1    
    32   12   52 1    
    33   13   53 1    
    34   13   54 1    
    35   14   15 am   BACKBONE|DICT|INTERRES
    36   14   55 1    
    37   15   16 2    
    38   15   17 1    
    39   17   18 1    
    40   17   56 1    
    41   17   57 1    
    42   18   19 1    
    43   19   29 ar   
    44   19   20 ar   
    45   20   21 ar   
    46   21   26 ar   
    47   21   22 ar   
    48   22   23 ar   
    49   22   58 1    
    50   23   24 ar   
    51   23   34 1    
    52   24   25 ar   
    53   24   59 1    
    54   25   26 ar   
    55   25   60 1    
    56   26   27 ar   
    57   27   28 2    
    58   27   29 ar   
    59   29   30 1    
    60   30   31 1    
    61   30   61 1    
    62   30   62 1    
    63   31   32 1    
    64   31   33 1    
    65   31   63 1    
    66   32   64 1    
    67   32   65 1    
    68   32   66 1    
    69   33   67 1    
    70   33   68 1    
    71   33   69 1    
    72   34   35 2    
    73   34   36 1    
@<TRIPOS>SUBSTRUCTURE
     1 UNK         1 GROUP             0       ****    0 ROOT    
