@<TRIPOS>MOLECULE
ZINC03277147_5478
56   59    1
SMALL
USER_CHARGES


@<TRIPOS>ATOM
      1 C1          6.6874   55.4041   20.9505 C.3       1 UNK         0.0000 
      2 C2          7.1193   55.1708   22.4002 C.3       1 UNK         0.0000 
      3 O3          6.0042   54.7350   23.1522 O.3       1 UNK         0.0000 
      4 C4          6.0347   54.7052   24.5045 C.2       1 UNK         0.0000 
      5 O5          7.0187   55.0211   25.1782 O.2       1 UNK         0.0000 
      6 C6          4.7281   54.2971   25.0750 C.2       1 UNK         0.0000 
      7 C7          4.4398   54.3182   26.4726 C.2       1 UNK         0.0000 
      8 C8          3.1094   53.9889   26.7686 C.2       1 UNK         0.0000 
      9 S9          2.2238   53.5245   25.3747 S.3       1 UNK         0.0000 
     10 C10         3.6049   53.8109   24.3519 C.2       1 UNK         0.0000 
     11 N11         3.5780   53.5254   22.9831 N.am      1 UNK         0.0000 
     12 C12         2.5994   52.9673   22.2383 C.2       1 UNK         0.0000 
     13 O13         1.4577   52.7278   22.6349 O.2       1 UNK         0.0000 
     14 C14         3.0011   52.6434   20.7917 C.3       1 UNK         0.0000 
     15 S15         1.8382   51.5374   19.9156 S.3       1 UNK         0.0000 
     16 C16         1.6963   52.3296   18.3282 C.2       1 UNK         0.0000 
     17 C17         0.5293   52.7425   17.8008 C.2       1 UNK         0.0000 
     18 C18         0.5188   53.4635   16.4529 C.3       1 UNK         0.0000 
     19 H19         0.1446   52.7350   15.7302 H         1 UNK         0.0000 
     20 C20         1.9658   53.8688   15.9839 C.3       1 UNK         0.0000 
     21 C21         3.1487   53.0379   16.5459 C.2       1 UNK         0.0000 
     22 O22         4.2550   53.0046   16.0139 O.2       1 UNK         0.0000 
     23 N23         2.9031   52.4184   17.7167 N.am      1 UNK         0.0000 
     24 C24        -0.4468   54.6462   16.4803 C.2       1 UNK         0.0000 
     25 C25        -0.2365   55.9678   16.8886 C.2       1 UNK         0.0000 
     26 C26        -1.3561   56.7977   16.7932 C.2       1 UNK         0.0000 
     27 C27        -2.4621   56.1312   16.2997 C.2       1 UNK         0.0000 
     28 S28        -2.1092   54.4689   15.9742 S.3       1 UNK         0.0000 
     29 C29        -0.7094   52.4963   18.4769 C.1       1 UNK         0.0000 
     30 N30        -1.7350   52.3173   18.9880 N.1       1 UNK         0.0000 
     31 C31         2.4954   53.9481   28.1577 C.3       1 UNK         0.0000 
     32 C32         3.3557   54.8016   29.1039 C.3       1 UNK         0.0000 
     33 C33         4.8412   54.4212   28.9945 C.3       1 UNK         0.0000 
     34 C34         5.4376   54.6615   27.5901 C.3       1 UNK         0.0000 
     35 H35         7.5322   55.7245   20.3407 H         1 UNK         0.0000 
     36 H36         6.2837   54.4967   20.5053 H         1 UNK         0.0000 
     37 H37         5.9184   56.1761   20.8894 H         1 UNK         0.0000 
     38 H38         7.5285   56.0930   22.8166 H         1 UNK         0.0000 
     39 H39         7.8970   54.4114   22.4535 H         1 UNK         0.0000 
     40 H40         4.4450   53.7334   22.5079 H         1 UNK         0.0000 
     41 H41         3.9861   52.1757   20.7670 H         1 UNK         0.0000 
     42 H42         3.0929   53.5872   20.2518 H         1 UNK         0.0000 
     43 H43         2.0235   53.8596   14.8948 H         1 UNK         0.0000 
     44 H44         2.1901   54.8851   16.3048 H         1 UNK         0.0000 
     45 H45         3.6943   51.8972   18.0783 H         1 UNK         0.0000 
     46 H46         0.7109   56.3250   17.2652 H         1 UNK         0.0000 
     47 H47        -1.3486   57.8435   17.0669 H         1 UNK         0.0000 
     48 H48        -3.4493   56.5254   16.1046 H         1 UNK         0.0000 
     49 H49         1.4677   54.3120   28.1480 H         1 UNK         0.0000 
     50 H50         2.4607   52.9191   28.5161 H         1 UNK         0.0000 
     51 H51         3.2170   55.8599   28.8826 H         1 UNK         0.0000 
     52 H52         3.0062   54.6646   30.1260 H         1 UNK         0.0000 
     53 H53         5.4310   54.9798   29.7196 H         1 UNK         0.0000 
     54 H54         4.9578   53.3698   29.2612 H         1 UNK         0.0000 
     55 H55         6.3434   54.0598   27.4962 H         1 UNK         0.0000 
     56 H56         5.7662   55.6954   27.5023 H         1 UNK         0.0000 
@<TRIPOS>BOND
     1    1    2 1    
     2    1   35 1    
     3    1   36 1    
     4    1   37 1    
     5    2    3 1    
     6    2   38 1    
     7    2   39 1    
     8    3    4 1    
     9    4    5 2    
    10    4    6 1    
    11    6   10 2    
    12    6    7 1    
    13    7   34 1    
    14    7    8 2    
    15    8    9 1    
    16    8   31 1    
    17    9   10 1    
    18   10   11 am   BACKBONE|DICT|INTERRES
    19   11   12 am   BACKBONE|DICT|INTERRES
    20   11   40 1    
    21   12   13 2    
    22   12   14 1    
    23   14   15 1    
    24   14   41 1    
    25   14   42 1    
    26   15   16 1    
    27   16   23 am   BACKBONE|DICT|INTERRES
    28   16   17 2    
    29   17   18 1    
    30   17   29 1    
    31   18   19 1    
    32   18   20 1    
    33   18   24 1    
    34   20   21 1    
    35   20   43 1    
    36   20   44 1    
    37   21   22 2    
    38   21   23 am   BACKBONE|DICT|INTERRES
    39   23   45 1    
    40   24   28 1    
    41   24   25 2    
    42   25   26 1    
    43   25   46 1    
    44   26   27 2    
    45   26   47 1    
    46   27   28 1    
    47   27   48 1    
    48   29   30 3    
    49   31   32 1    
    50   31   49 1    
    51   31   50 1    
    52   32   33 1    
    53   32   51 1    
    54   32   52 1    
    55   33   34 1    
    56   33   53 1    
    57   33   54 1    
    58   34   55 1    
    59   34   56 1    
@<TRIPOS>SUBSTRUCTURE
     1 UNK         1 GROUP             0       ****    0 ROOT    
