@<TRIPOS>MOLECULE
ZINC29778095_2483
59   63    1
SMALL
USER_CHARGES


@<TRIPOS>ATOM
      1 C1         -1.7456   51.4531   26.6058 C.3       1 UNK         0.0000 
      2 C2         -0.4299   52.0919   26.1980 C.ar      1 UNK         0.0000 
      3 C3         -0.1811   52.3949   24.8597 C.ar      1 UNK         0.0000 
      4 C4          1.0423   52.9459   24.4868 C.ar      1 UNK         0.0000 
      5 C5          2.0364   53.1943   25.4495 C.ar      1 UNK         0.0000 
      6 C6          1.7657   52.8969   26.7934 C.ar      1 UNK         0.0000 
      7 C7          0.5421   52.3463   27.1647 C.ar      1 UNK         0.0000 
      8 N8          3.3138   53.6969   25.0616 N.pl3     1 UNK         0.0000 
      9 C9          4.3696   54.1237   25.8394 C.ar      1 UNK         0.0000 
     10 C10         5.3721   54.4869   24.9858 C.ar      1 UNK         0.0000 
     11 C11         4.8988   54.2351   23.6894 C.ar      1 UNK         0.0000 
     12 N12         3.6588   53.7736   23.7548 N.2       1 UNK         0.0000 
     13 C13         5.6493   54.4967   22.4806 C.2       1 UNK         0.0000 
     14 O14         6.8273   54.8545   22.5380 O.2       1 UNK         0.0000 
     15 N15         4.9407   54.3856   21.3329 N.am      1 UNK         0.0000 
     16 C16         5.3557   54.8281   20.0843 C.2       1 UNK         0.0000 
     17 N17         6.4187   55.5547   19.8198 N.2       1 UNK         0.0000 
     18 C18         6.4428   55.9963   18.5756 C.2       1 UNK         0.0000 
     19 C19         5.3682   55.5657   17.7932 C.2       1 UNK         0.0000 
     20 S20         4.3054   54.5618   18.7361 S.3       1 UNK         0.0000 
     21 C21         7.5425   56.9038   18.1434 C.ar      1 UNK         0.0000 
     22 C22         8.8655   56.6457   18.5120 C.ar      1 UNK         0.0000 
     23 C23         9.8811   57.5157   18.1279 C.ar      1 UNK         0.0000 
     24 C24         9.5818   58.6596   17.3788 C.ar      1 UNK         0.0000 
     25 C25         8.2566   58.9202   17.0184 C.ar      1 UNK         0.0000 
     26 C26         7.2426   58.0418   17.3913 C.ar      1 UNK         0.0000 
     27 C27        10.6681   59.6558   16.9656 C.3       1 UNK         0.0000 
     28 N28        11.9122   59.6369   17.7446 N.am      1 UNK         0.0000 
     29 C29        12.0339   60.0400   19.0184 C.2       1 UNK         0.0000 
     30 O30        11.1043   60.4966   19.6815 O.2       1 UNK         0.0000 
     31 C31        13.4192   59.9117   19.6371 C.3       1 UNK         0.0000 
     32 C32         6.5659   55.0240   25.7313 C.3       1 UNK         0.0000 
     33 C33         6.1909   54.7829   27.2084 C.3       1 UNK         0.0000 
     34 C34         4.7326   54.2911   27.2894 C.3       1 UNK         0.0000 
     35 H35        -2.2374   50.9702   25.7599 H         1 UNK         0.0000 
     36 H36        -1.5761   50.6740   27.3511 H         1 UNK         0.0000 
     37 H37        -2.4180   52.1934   27.0378 H         1 UNK         0.0000 
     38 H38        -0.9293   52.1930   24.1064 H         1 UNK         0.0000 
     39 H39         1.2075   53.1585   23.4403 H         1 UNK         0.0000 
     40 H40         2.4939   53.0570   27.5691 H         1 UNK         0.0000 
     41 H41         0.3538   52.1043   28.2016 H         1 UNK         0.0000 
     42 H42         4.0228   53.9700   21.3846 H         1 UNK         0.0000 
     43 H43         5.1598   55.7838   16.7567 H         1 UNK         0.0000 
     44 H44         9.1124   55.7720   19.0984 H         1 UNK         0.0000 
     45 H45        10.8955   57.2956   18.4291 H         1 UNK         0.0000 
     46 H46         7.9988   59.8085   16.4583 H         1 UNK         0.0000 
     47 H47         6.2215   58.2659   17.1179 H         1 UNK         0.0000 
     48 H48        10.2562   60.6674   16.9797 H         1 UNK         0.0000 
     49 H49        10.9193   59.4488   15.9243 H         1 UNK         0.0000 
     50 H50        12.7164   59.2296   17.2924 H         1 UNK         0.0000 
     51 H51        13.8218   58.9097   19.4755 H         1 UNK         0.0000 
     52 H52        13.3743   60.0973   20.7110 H         1 UNK         0.0000 
     53 H53        14.1009   60.6387   19.1928 H         1 UNK         0.0000 
     54 H54         7.4957   54.5162   25.4649 H         1 UNK         0.0000 
     55 H55         6.7069   56.0890   25.5418 H         1 UNK         0.0000 
     56 H56         6.3083   55.6960   27.7909 H         1 UNK         0.0000 
     57 H57         6.8623   54.0433   27.6490 H         1 UNK         0.0000 
     58 H58         4.0925   55.0111   27.7989 H         1 UNK         0.0000 
     59 H59         4.6808   53.3566   27.8485 H         1 UNK         0.0000 
@<TRIPOS>BOND
     1    1    2 1    
     2    1   35 1    
     3    1   36 1    
     4    1   37 1    
     5    2    7 ar   
     6    2    3 ar   
     7    3    4 ar   
     8    3   38 1    
     9    4    5 ar   
    10    4   39 1    
    11    5    6 ar   
    12    5    8 1    
    13    6    7 ar   
    14    6   40 1    
    15    7   41 1    
    16    8   12 ar   
    17    8    9 ar   
    18    9   34 1    
    19    9   10 ar   
    20   10   11 ar   
    21   10   32 1    
    22   11   12 ar   
    23   11   13 1    
    24   13   14 2    
    25   13   15 am   BACKBONE|DICT|INTERRES
    26   15   16 am   BACKBONE|DICT|INTERRES
    27   15   42 1    
    28   16   20 1    
    29   16   17 2    
    30   17   18 1    
    31   18   19 2    
    32   18   21 1    
    33   19   20 1    
    34   19   43 1    
    35   21   26 ar   
    36   21   22 ar   
    37   22   23 ar   
    38   22   44 1    
    39   23   24 ar   
    40   23   45 1    
    41   24   25 ar   
    42   24   27 1    
    43   25   26 ar   
    44   25   46 1    
    45   26   47 1    
    46   27   28 1    
    47   27   48 1    
    48   27   49 1    
    49   28   29 am   BACKBONE|DICT|INTERRES
    50   28   50 1    
    51   29   30 2    
    52   29   31 1    
    53   31   51 1    
    54   31   52 1    
    55   31   53 1    
    56   32   33 1    
    57   32   54 1    
    58   32   55 1    
    59   33   34 1    
    60   33   56 1    
    61   33   57 1    
    62   34   58 1    
    63   34   59 1    
@<TRIPOS>SUBSTRUCTURE
     1 UNK         1 GROUP             0       ****    0 ROOT    
