ZINC58849665_6023
                    3D
 Schrodinger Suite 2024-2.
 62 66  0  0  1  0            999 V2000
   -3.1391   54.3148   16.2050 C   0  0  0  0  0  0
   -3.3520   52.8095   16.4276 C   0  0  0  0  0  0
   -3.0519   52.4250   17.7682 O   0  0  0  0  0  0
   -1.7397   52.2886   18.1811 C   0  0  0  0  0  0
   -1.5539   51.9563   19.5200 C   0  0  0  0  0  0
   -0.2729   51.8291   20.0456 C   0  0  0  0  0  0
    0.8536   52.0127   19.2341 C   0  0  0  0  0  0
    0.6674   52.3154   17.8822 C   0  0  0  0  0  0
   -0.6158   52.4563   17.3583 C   0  0  0  0  0  0
    2.2910   51.9071   19.7874 C   0  0  2  0  0  0
    2.9401   52.1594   18.9470 H   0  0  0  0  0  0
    2.7428   50.4924   20.2748 C   0  0  2  0  0  0
    3.8345   50.5164   20.2913 H   0  0  0  0  0  0
    2.3054   49.3345   19.3637 C   0  0  0  0  0  0
    1.1690   48.7033   20.1385 C   0  0  0  0  0  0
    1.1219   49.1609   21.4024 C   0  0  0  0  0  0
    2.2630   50.1144   21.6921 C   0  0  2  0  0  0
    3.0485   49.5707   22.2205 H   0  0  0  0  0  0
    1.9066   51.3199   22.5688 C   0  0  0  0  0  0
    1.3606   51.1564   23.8517 C   0  0  0  0  0  0
    0.9965   52.2604   24.6294 C   0  0  0  0  0  0
    1.1491   53.5442   24.1158 C   0  0  0  0  0  0
    1.7363   53.7297   22.8752 C   0  0  0  0  0  0
    2.1317   52.6348   22.1127 C   0  0  0  0  0  0
    2.6056   52.8958   20.8181 N   0  0  0  0  0  0
    0.3050   52.0623   26.2664 S   0  0  0  0  0  0
   -1.1064   52.4464   26.1622 O   0  0  0  0  0  0
    0.7043   50.7521   26.7885 O   0  0  0  0  0  0
    1.0688   53.2965   27.2818 N   0  0  0  0  0  0
    2.3735   53.1623   27.7587 C   0  0  0  0  0  0
    2.5457   52.5445   28.9991 C   0  0  0  0  0  0
    3.8131   52.4495   29.5653 C   0  0  0  0  0  0
    4.9100   52.9687   28.8817 C   0  0  0  0  0  0
    4.7472   53.5971   27.6544 C   0  0  0  0  0  0
    3.4762   53.7072   27.0737 C   0  0  0  0  0  0
    3.2697   54.3380   25.8624 O   0  0  0  0  0  0
    4.3862   54.5900   25.0122 C   0  0  0  0  0  0
    4.0153   51.6970   31.1057 Cl  0  0  0  0  0  0
   -3.4054   54.5952   15.1857 H   0  0  0  0  0  0
   -2.1046   54.6131   16.3683 H   0  0  0  0  0  0
   -3.7629   54.8977   16.8812 H   0  0  0  0  0  0
   -4.4026   52.5752   16.2539 H   0  0  0  0  0  0
   -2.7971   52.2116   15.7029 H   0  0  0  0  0  0
   -2.4094   51.8012   20.1602 H   0  0  0  0  0  0
   -0.1766   51.5891   21.0903 H   0  0  0  0  0  0
    1.5198   52.4538   17.2324 H   0  0  0  0  0  0
   -0.7135   52.6990   16.3125 H   0  0  0  0  0  0
    1.9920   49.6801   18.3778 H   0  0  0  0  0  0
    3.1075   48.6152   19.1989 H   0  0  0  0  0  0
    0.5006   47.9824   19.6912 H   0  0  0  0  0  0
    0.4232   48.8524   22.1663 H   0  0  0  0  0  0
    1.2115   50.1590   24.2427 H   0  0  0  0  0  0
    0.8543   54.4088   24.6882 H   0  0  0  0  0  0
    1.8645   54.7323   22.4950 H   0  0  0  0  0  0
    2.4975   53.8449   20.4760 H   0  0  0  0  0  0
    0.7414   54.2330   27.1094 H   0  0  0  0  0  0
    1.6898   52.1437   29.5240 H   0  0  0  0  0  0
    5.9042   52.8969   29.2816 H   0  0  0  0  0  0
    5.6252   53.9950   27.1705 H   0  0  0  0  0  0
    4.0323   54.8975   24.0295 H   0  0  0  0  0  0
    5.0128   55.3911   25.4063 H   0  0  0  0  0  0
    4.9951   53.6965   24.8653 H   0  0  0  0  0  0
  1  2  1  0  0  0
  1 39  1  0  0  0
  1 40  1  0  0  0
  1 41  1  0  0  0
  2  3  1  0  0  0
  2 42  1  0  0  0
  2 43  1  0  0  0
  3  4  1  0  0  0
  4  9  2  0  0  0
  4  5  1  0  0  0
  5  6  2  0  0  0
  5 44  1  0  0  0
  6  7  1  0  0  0
  6 45  1  0  0  0
  7  8  2  0  0  0
  7 10  1  0  0  0
  8  9  1  0  0  0
  8 46  1  0  0  0
  9 47  1  0  0  0
 10 11  1  0  0  0
 10 25  1  0  0  0
 10 12  1  0  0  0
 12 13  1  0  0  0
 12 17  1  0  0  0
 12 14  1  0  0  0
 14 15  1  0  0  0
 14 48  1  0  0  0
 14 49  1  0  0  0
 15 16  2  0  0  0
 15 50  1  0  0  0
 16 17  1  0  0  0
 16 51  1  0  0  0
 17 18  1  0  0  0
 17 19  1  0  0  0
 19 24  2  0  0  0
 19 20  1  0  0  0
 20 21  2  0  0  0
 20 52  1  0  0  0
 21 22  1  0  0  0
 21 26  1  0  0  0
 22 23  2  0  0  0
 22 53  1  0  0  0
 23 24  1  0  0  0
 23 54  1  0  0  0
 24 25  1  0  0  0
 25 55  1  0  0  0
 26 27  2  0  0  0
 26 28  2  0  0  0
 26 29  1  0  0  0
 29 30  1  0  0  0
 29 56  1  0  0  0
 30 35  2  0  0  0
 30 31  1  0  0  0
 31 32  2  0  0  0
 31 57  1  0  0  0
 32 33  1  0  0  0
 32 38  1  0  0  0
 33 34  2  0  0  0
 33 58  1  0  0  0
 34 35  1  0  0  0
 34 59  1  0  0  0
 35 36  1  0  0  0
 36 37  1  0  0  0
 37 60  1  0  0  0
 37 61  1  0  0  0
 37 62  1  0  0  0
M  END
> <i_i_glide_confnum>
189

> <i_i_glide_lignum>
6024

> <i_i_glide_posenum>
362

> <i_i_glide_rotatable_bonds>
7

> <i_m_Source_File_Index>
6018

> <b_m_subgroup_collapsed>
0

> <r_i_docking_score>
-4.66995

> <r_i_glide_ecoul>
-3.62054

> <r_i_glide_eff_state_penalty>
0

> <r_i_glide_einternal>
10.666

> <r_i_glide_emodel>
-49.6994

> <r_i_glide_energy>
-43.2135

> <r_i_glide_erotb>
0.392304

> <r_i_glide_esite>
-0.0715072

> <r_i_glide_evdw>
-39.593

> <r_i_glide_gscore>
-4.66995

> <r_i_glide_hbond>
-0.309872

> <r_i_glide_ligand_efficiency>
-0.133427

> <r_i_glide_ligand_efficiency_ln>
-1.02516

> <r_i_glide_ligand_efficiency_sa>
-0.436449

> <r_i_glide_lipo>
-2.6662

> <r_i_glide_metal>
0

> <r_i_glide_rewards>
0.508049

> <s_i_glide_gridfile>
wee1_glide-grid

> <s_m_Source_File>
wee1_decoys_glide_SP.sdf

> <s_m_Source_Path>
/Users/zhangxujun/Desktop

> <s_m_entry_id>
6293

> <s_m_entry_name>
wee1_decoys_glide_SP.6018

> <s_m_subgroup_title>
wee1_decoys_glide_SP

> <s_m_subgroupid>
wee1_decoys_glide_SP


$$$$
