@<TRIPOS>MOLECULE
ZINC14991264_4428
64   69    1
SMALL
USER_CHARGES


@<TRIPOS>ATOM
      1 C1          6.9692   55.1413   25.0171 C.3       1 UNK         0.0000 
      2 C2          5.5463   54.6438   24.8998 C.ar      1 UNK         0.0000 
      3 C3          4.9867   54.4141   23.6407 C.ar      1 UNK         0.0000 
      4 C4          3.6807   53.9472   23.5499 C.ar      1 UNK         0.0000 
      5 C5          2.9679   53.6727   24.6998 C.ar      1 UNK         0.0000 
      6 C6          3.5018   53.8494   25.9903 C.ar      1 UNK         0.0000 
      7 C7          4.8039   54.3780   26.0553 C.ar      1 UNK         0.0000 
      8 C8          2.7512   53.4829   27.2379 C.ar      1 UNK         0.0000 
      9 C9          3.3792   53.3130   28.4820 C.ar      1 UNK         0.0000 
     10 C10         2.6083   52.9827   29.5957 C.ar      1 UNK         0.0000 
     11 C11         1.2239   52.8181   29.4638 C.ar      1 UNK         0.0000 
     12 C12         0.6683   52.9711   28.1926 C.ar      1 UNK         0.0000 
     13 N13         1.4084   53.2975   27.1106 N.ar      1 UNK         0.0000 
     14 C14         0.3720   52.5362   30.6664 C.2       1 UNK         0.0000 
     15 O15         0.7085   52.9247   31.7794 O.2       1 UNK         0.0000 
     16 N16        -0.7619   51.8628   30.4818 N.am      1 UNK         0.0000 
     17 O17         1.7329   53.1429   24.4205 O.3       1 UNK         0.0000 
     18 C18         1.5010   53.2044   23.0174 C.3       1 UNK         0.0000 
     19 H19         0.7954   54.0244   22.8817 H         1 UNK         0.0000 
     20 C20         2.8451   53.5691   22.3720 C.3       1 UNK         0.0000 
     21 C21         0.8801   51.8647   22.5573 C.3       1 UNK         0.0000 
     22 N22        -0.2789   51.4613   23.3629 N.am      1 UNK         0.0000 
     23 C23        -1.5592   51.7801   23.0953 C.2       1 UNK         0.0000 
     24 O24        -1.8700   52.4104   22.0831 O.2       1 UNK         0.0000 
     25 C25        -2.6741   51.3564   24.1009 C.3       1 UNK         0.0000 
     26 C26        -3.6923   50.4231   23.3662 C.3       1 UNK         0.0000 
     27 C27        -4.8604   50.0587   24.3223 C.3       1 UNK         0.0000 
     28 C28        -4.2968   49.3127   25.5614 C.3       1 UNK         0.0000 
     29 C29        -3.2894   50.2268   26.3095 C.3       1 UNK         0.0000 
     30 C30        -2.1212   50.5996   25.3595 C.3       1 UNK         0.0000 
     31 C31        -4.0146   51.5170   26.7706 C.3       1 UNK         0.0000 
     32 C32        -4.5783   52.2713   25.5369 C.3       1 UNK         0.0000 
     33 C33        -5.5787   51.3561   24.7825 C.3       1 UNK         0.0000 
     34 C34        -3.4114   52.6466   24.5885 C.3       1 UNK         0.0000 
     35 H35         7.5044   55.0292   24.0734 H         1 UNK         0.0000 
     36 H36         6.9910   56.1874   25.3222 H         1 UNK         0.0000 
     37 H37         7.5023   54.5597   25.7694 H         1 UNK         0.0000 
     38 H38         5.5629   54.5974   22.7465 H         1 UNK         0.0000 
     39 H39         5.2700   54.5711   27.0090 H         1 UNK         0.0000 
     40 H40         4.4454   53.4262   28.6025 H         1 UNK         0.0000 
     41 H41         3.0889   52.8608   30.5560 H         1 UNK         0.0000 
     42 H42        -0.3917   52.8657   28.0117 H         1 UNK         0.0000 
     43 H43        -1.2947   51.6950   31.3441 H         1 UNK         0.0000 
     44 H44        -0.9544   51.3318   29.6454 H         1 UNK         0.0000 
     45 H45         2.7109   54.3985   21.6819 H         1 UNK         0.0000 
     46 H46         3.2874   52.7143   21.8592 H         1 UNK         0.0000 
     47 H47         0.6097   51.9346   21.5002 H         1 UNK         0.0000 
     48 H48         1.6319   51.0769   22.6065 H         1 UNK         0.0000 
     49 H49        -0.0819   50.9365   24.2045 H         1 UNK         0.0000 
     50 H50        -4.0961   50.8987   22.4709 H         1 UNK         0.0000 
     51 H51        -3.1989   49.5104   23.0260 H         1 UNK         0.0000 
     52 H52        -5.5726   49.4151   23.8025 H         1 UNK         0.0000 
     53 H53        -3.8095   48.3859   25.2562 H         1 UNK         0.0000 
     54 H54        -5.1075   49.0211   26.2294 H         1 UNK         0.0000 
     55 H55        -2.8964   49.7004   27.1807 H         1 UNK         0.0000 
     56 H56        -1.5901   49.6917   25.0667 H         1 UNK         0.0000 
     57 H57        -1.3986   51.2135   25.9000 H         1 UNK         0.0000 
     58 H58        -4.8207   51.2699   27.4641 H         1 UNK         0.0000 
     59 H59        -3.3259   52.1571   27.3227 H         1 UNK         0.0000 
     60 H60        -5.0891   53.1785   25.8652 H         1 UNK         0.0000 
     61 H61        -5.9975   51.8821   23.9207 H         1 UNK         0.0000 
     62 H62        -6.4251   51.1128   25.4246 H         1 UNK         0.0000 
     63 H63        -2.7127   53.3020   25.1116 H         1 UNK         0.0000 
     64 H64        -3.7992   53.2261   23.7480 H         1 UNK         0.0000 
@<TRIPOS>BOND
     1    1    2 1    
     2    1   35 1    
     3    1   36 1    
     4    1   37 1    
     5    2    7 ar   
     6    2    3 ar   
     7    3    4 ar   
     8    3   38 1    
     9    4   20 1    
    10    4    5 ar   
    11    5    6 ar   
    12    5   17 1    
    13    6    7 ar   
    14    6    8 1    
    15    7   39 1    
    16    8   13 ar   
    17    8    9 ar   
    18    9   10 ar   
    19    9   40 1    
    20   10   11 ar   
    21   10   41 1    
    22   11   12 ar   
    23   11   14 1    
    24   12   13 ar   
    25   12   42 1    
    26   14   15 2    
    27   14   16 am   BACKBONE|DICT|INTERRES
    28   16   43 1    
    29   16   44 1    
    30   17   18 1    
    31   18   19 1    
    32   18   20 1    
    33   18   21 1    
    34   20   45 1    
    35   20   46 1    
    36   21   22 1    
    37   21   47 1    
    38   21   48 1    
    39   22   23 am   BACKBONE|DICT|INTERRES
    40   22   49 1    
    41   23   24 2    
    42   23   25 1    
    43   25   30 1    
    44   25   34 1    
    45   25   26 1    
    46   26   27 1    
    47   26   50 1    
    48   26   51 1    
    49   27   33 1    
    50   27   28 1    
    51   27   52 1    
    52   28   29 1    
    53   28   53 1    
    54   28   54 1    
    55   29   30 1    
    56   29   31 1    
    57   29   55 1    
    58   30   56 1    
    59   30   57 1    
    60   31   32 1    
    61   31   58 1    
    62   31   59 1    
    63   32   33 1    
    64   32   34 1    
    65   32   60 1    
    66   33   61 1    
    67   33   62 1    
    68   34   63 1    
    69   34   64 1    
@<TRIPOS>SUBSTRUCTURE
     1 UNK         1 GROUP             0       ****    0 ROOT    
