@<TRIPOS>MOLECULE
ZINC13499858_3215
60   64    1
SMALL
USER_CHARGES


@<TRIPOS>ATOM
      1 C1          4.5691   54.7462   19.2827 C.3       1 UNK         0.0000 
      2 C2          4.8314   53.4581   20.0746 C.3       1 UNK         0.0000 
      3 C3          4.3097   53.5126   21.5081 C.ar      1 UNK         0.0000 
      4 N4          5.1838   54.0367   22.4215 N.2       1 UNK         0.0000 
      5 C5          4.7804   54.0971   23.6968 C.ar      1 UNK         0.0000 
      6 C6          3.5090   53.6968   24.1646 C.ar      1 UNK         0.0000 
      7 C7          3.3463   53.7637   25.5822 C.2       1 UNK         0.0000 
      8 C8          4.5059   54.2658   26.1812 C.2       1 UNK         0.0000 
      9 S9          5.7786   54.6564   25.0279 S.3       1 UNK         0.0000 
     10 C10         4.7269   54.3564   27.6937 C.3       1 UNK         0.0000 
     11 C11         3.3834   54.1665   28.4525 C.3       1 UNK         0.0000 
     12 H12         3.6483   53.8309   29.4570 H         1 UNK         0.0000 
     13 C13         2.5748   53.0084   27.8335 C.3       1 UNK         0.0000 
     14 C14         2.1282   53.3187   26.3885 C.3       1 UNK         0.0000 
     15 C15         2.5633   55.4581   28.6376 C.3       1 UNK         0.0000 
     16 C16         2.6222   53.1994   23.1737 C.ar      1 UNK         0.0000 
     17 N17         3.0377   53.0778   21.8430 N.pl3     1 UNK         0.0000 
     18 C18         1.9444   52.4968   21.2046 C.ar      1 UNK         0.0000 
     19 N19         0.9573   52.3441   22.0688 N.2       1 UNK         0.0000 
     20 N20         1.3579   52.7559   23.3261 N.2       1 UNK         0.0000 
     21 S21         1.7748   52.0791   19.4977 S.3       1 UNK         0.0000 
     22 C22         2.7044   50.5083   19.4877 C.3       1 UNK         0.0000 
     23 C23         1.8390   49.3029   19.8633 C.2       1 UNK         0.0000 
     24 O24         1.4728   49.1781   21.0330 O.2       1 UNK         0.0000 
     25 N25         1.5529   48.4204   18.8801 N.am      1 UNK         0.0000 
     26 C26         0.7274   47.2828   18.9814 C.ar      1 UNK         0.0000 
     27 C27        -0.3900   47.2183   19.8297 C.ar      1 UNK         0.0000 
     28 C28        -1.1462   46.0496   19.9128 C.ar      1 UNK         0.0000 
     29 C29        -0.7962   44.9334   19.1542 C.ar      1 UNK         0.0000 
     30 C30         0.3043   44.9905   18.2884 C.ar      1 UNK         0.0000 
     31 C31         1.0375   46.1792   18.1810 C.ar      1 UNK         0.0000 
     32 N32         0.7051   43.9073   17.4898 N.am      1 UNK         0.0000 
     33 C33         0.6821   42.5953   17.8056 C.2       1 UNK         0.0000 
     34 O34         0.3044   42.1247   18.8813 O.2       1 UNK         0.0000 
     35 C35         1.1981   41.6463   16.7299 C.3       1 UNK         0.0000 
     36 H36         4.9483   54.6585   18.2640 H         1 UNK         0.0000 
     37 H37         3.5046   54.9645   19.2194 H         1 UNK         0.0000 
     38 H38         5.0644   55.6010   19.7447 H         1 UNK         0.0000 
     39 H39         5.9044   53.2861   20.0968 H         1 UNK         0.0000 
     40 H40         4.4441   52.5968   19.5396 H         1 UNK         0.0000 
     41 H41         5.4203   53.5744   28.0076 H         1 UNK         0.0000 
     42 H42         5.1994   55.2967   27.9714 H         1 UNK         0.0000 
     43 H43         3.1726   52.0971   27.8449 H         1 UNK         0.0000 
     44 H44         1.6875   52.8051   28.4348 H         1 UNK         0.0000 
     45 H45         1.3666   54.0946   26.3731 H         1 UNK         0.0000 
     46 H46         1.6731   52.4248   25.9624 H         1 UNK         0.0000 
     47 H47         2.3042   55.9093   27.6820 H         1 UNK         0.0000 
     48 H48         1.6311   55.2586   29.1673 H         1 UNK         0.0000 
     49 H49         3.1079   56.1983   29.2222 H         1 UNK         0.0000 
     50 H50         3.5594   50.5547   20.1607 H         1 UNK         0.0000 
     51 H51         3.1037   50.3761   18.4819 H         1 UNK         0.0000 
     52 H52         2.0608   48.5302   18.0118 H         1 UNK         0.0000 
     53 H53        -0.6780   48.0675   20.4323 H         1 UNK         0.0000 
     54 H54        -1.9999   46.0085   20.5729 H         1 UNK         0.0000 
     55 H55        -1.3916   44.0364   19.2325 H         1 UNK         0.0000 
     56 H56         1.8862   46.2300   17.5127 H         1 UNK         0.0000 
     57 H57         1.1611   44.1584   16.6261 H         1 UNK         0.0000 
     58 H58         2.1374   41.1946   17.0514 H         1 UNK         0.0000 
     59 H59         1.3723   42.1591   15.7830 H         1 UNK         0.0000 
     60 H60         0.4768   40.8475   16.5527 H         1 UNK         0.0000 
@<TRIPOS>BOND
     1    1    2 1    
     2    1   36 1    
     3    1   37 1    
     4    1   38 1    
     5    2    3 1    
     6    2   39 1    
     7    2   40 1    
     8    3   17 ar   
     9    3    4 ar   
    10    4    5 ar   
    11    5    9 1    
    12    5    6 ar   
    13    6    7 1    
    14    6   16 ar   
    15    7   14 1    
    16    7    8 2    
    17    8    9 1    
    18    8   10 1    
    19   10   11 1    
    20   10   41 1    
    21   10   42 1    
    22   11   12 1    
    23   11   13 1    
    24   11   15 1    
    25   13   14 1    
    26   13   43 1    
    27   13   44 1    
    28   14   45 1    
    29   14   46 1    
    30   15   47 1    
    31   15   48 1    
    32   15   49 1    
    33   16   20 ar   
    34   16   17 ar   
    35   17   18 ar   
    36   18   19 ar   
    37   18   21 1    
    38   19   20 ar   
    39   21   22 1    
    40   22   23 1    
    41   22   50 1    
    42   22   51 1    
    43   23   24 2    
    44   23   25 am   BACKBONE|DICT|INTERRES
    45   25   26 1    
    46   25   52 1    
    47   26   31 ar   
    48   26   27 ar   
    49   27   28 ar   
    50   27   53 1    
    51   28   29 ar   
    52   28   54 1    
    53   29   30 ar   
    54   29   55 1    
    55   30   31 ar   
    56   30   32 1    
    57   31   56 1    
    58   32   33 am   BACKBONE|DICT|INTERRES
    59   32   57 1    
    60   33   34 2    
    61   33   35 1    
    62   35   58 1    
    63   35   59 1    
    64   35   60 1    
@<TRIPOS>SUBSTRUCTURE
     1 UNK         1 GROUP             0       ****    0 ROOT    
