@<TRIPOS>MOLECULE
ZINC13349160_3410
57   60    1
SMALL
USER_CHARGES


@<TRIPOS>ATOM
      1 C1         10.7103   55.7309   17.0603 C.3       1 UNK         0.0000 
      2 C2          9.3355   55.8937   16.3962 C.3       1 UNK         0.0000 
      3 C3          8.2413   55.1254   17.1217 C.ar      1 UNK         0.0000 
      4 C4          7.5361   55.7305   18.1636 C.ar      1 UNK         0.0000 
      5 C5          6.5412   55.0242   18.8347 C.ar      1 UNK         0.0000 
      6 C6          6.2543   53.6981   18.4730 C.ar      1 UNK         0.0000 
      7 C7          6.9459   53.1098   17.4123 C.ar      1 UNK         0.0000 
      8 C8          7.9415   53.8157   16.7437 C.ar      1 UNK         0.0000 
      9 N9          5.2828   52.8967   19.1061 N.am      1 UNK         0.0000 
     10 C10         4.7579   53.0391   20.3388 C.2       1 UNK         0.0000 
     11 O11         5.1417   53.8852   21.1485 O.2       1 UNK         0.0000 
     12 N12         3.7747   52.1392   20.5822 N.am      1 UNK         0.0000 
     13 C13         2.9251   52.0916   21.7144 C.ar      1 UNK         0.0000 
     14 C14         2.6810   53.2283   22.5005 C.ar      1 UNK         0.0000 
     15 C15         1.8924   53.1952   23.6457 C.ar      1 UNK         0.0000 
     16 C16         1.2634   51.9851   23.9719 C.ar      1 UNK         0.0000 
     17 C17         1.4645   50.8313   23.1702 C.ar      1 UNK         0.0000 
     18 C18         2.3038   50.8745   22.0375 C.ar      1 UNK         0.0000 
     19 S19         0.5228   49.5077   23.8743 S.3       1 UNK         0.0000 
     20 C20        -0.0428   50.6177   25.1087 C.2       1 UNK         0.0000 
     21 N21         0.4354   51.8236   25.0365 N.2       1 UNK         0.0000 
     22 N22        -0.9275   50.2044   26.0756 N.pl3     1 UNK         0.0000 
     23 S23        -2.0951   51.2763   26.8807 S.o2      1 UNK         0.0000 
     24 O24        -1.7542   51.2967   28.3066 O.2       1 UNK         0.0000 
     25 O25        -2.1879   52.5174   26.1022 O.2       1 UNK         0.0000 
     26 C26        -3.6730   50.4514   26.7005 C.ar      1 UNK         0.0000 
     27 C27        -4.1987   49.6991   27.7534 C.ar      1 UNK         0.0000 
     28 C28        -5.4252   49.0598   27.5994 C.ar      1 UNK         0.0000 
     29 C29        -6.1237   49.1702   26.3956 C.ar      1 UNK         0.0000 
     30 C30        -5.5910   49.9129   25.3399 C.ar      1 UNK         0.0000 
     31 C31        -4.3645   50.5539   25.4918 C.ar      1 UNK         0.0000 
     32 C32        -7.4553   48.4616   26.2317 C.3       1 UNK         0.0000 
     33 C33         1.7529   54.4549   24.4691 C.3       1 UNK         0.0000 
     34 H34        11.4770   56.2769   16.5104 H         1 UNK         0.0000 
     35 H35        11.0123   54.6837   17.0987 H         1 UNK         0.0000 
     36 H36        10.7033   56.1117   18.0817 H         1 UNK         0.0000 
     37 H37         9.0652   56.9498   16.3485 H         1 UNK         0.0000 
     38 H38         9.3815   55.5626   15.3574 H         1 UNK         0.0000 
     39 H39         7.7571   56.7472   18.4535 H         1 UNK         0.0000 
     40 H40         6.0036   55.5245   19.6251 H         1 UNK         0.0000 
     41 H41         6.7249   52.0957   17.1123 H         1 UNK         0.0000 
     42 H42         8.4799   53.3411   15.9362 H         1 UNK         0.0000 
     43 H43         5.1044   52.0091   18.6362 H         1 UNK         0.0000 
     44 H44         3.6621   51.3977   19.9059 H         1 UNK         0.0000 
     45 H45         3.1060   54.1826   22.2313 H         1 UNK         0.0000 
     46 H46         2.4682   49.9896   21.4387 H         1 UNK         0.0000 
     47 H47        -0.8040   49.3346   26.5818 H         1 UNK         0.0000 
     48 H48        -3.6633   49.6001   28.6881 H         1 UNK         0.0000 
     49 H49        -5.8277   48.4798   28.4172 H         1 UNK         0.0000 
     50 H50        -6.1244   49.9967   24.4040 H         1 UNK         0.0000 
     51 H51        -3.9545   51.1288   24.6739 H         1 UNK         0.0000 
     52 H52        -7.4171   47.4699   26.6848 H         1 UNK         0.0000 
     53 H53        -8.2499   49.0254   26.7202 H         1 UNK         0.0000 
     54 H54        -7.7102   48.3192   25.1808 H         1 UNK         0.0000 
     55 H55         0.7044   54.7327   24.4816 H         1 UNK         0.0000 
     56 H56         2.0650   54.2571   25.4952 H         1 UNK         0.0000 
     57 H57         2.3367   55.2911   24.0818 H         1 UNK         0.0000 
@<TRIPOS>BOND
     1    1    2 1    
     2    1   34 1    
     3    1   35 1    
     4    1   36 1    
     5    2    3 1    
     6    2   37 1    
     7    2   38 1    
     8    3    8 ar   
     9    3    4 ar   
    10    4    5 ar   
    11    4   39 1    
    12    5    6 ar   
    13    5   40 1    
    14    6    7 ar   
    15    6    9 1    
    16    7    8 ar   
    17    7   41 1    
    18    8   42 1    
    19    9   10 am   BACKBONE|DICT|INTERRES
    20    9   43 1    
    21   10   11 2    
    22   10   12 am   BACKBONE|DICT|INTERRES
    23   12   13 1    
    24   12   44 1    
    25   13   18 ar   
    26   13   14 ar   
    27   14   15 ar   
    28   14   45 1    
    29   15   16 ar   
    30   15   33 1    
    31   16   21 1    
    32   16   17 ar   
    33   17   18 ar   
    34   17   19 1    
    35   18   46 1    
    36   19   20 1    
    37   20   21 2    
    38   20   22 1    
    39   22   23 1    
    40   22   47 1    
    41   23   24 2    
    42   23   25 2    
    43   23   26 1    
    44   26   31 ar   
    45   26   27 ar   
    46   27   28 ar   
    47   27   48 1    
    48   28   29 ar   
    49   28   49 1    
    50   29   30 ar   
    51   29   32 1    
    52   30   31 ar   
    53   30   50 1    
    54   31   51 1    
    55   32   52 1    
    56   32   53 1    
    57   32   54 1    
    58   33   55 1    
    59   33   56 1    
    60   33   57 1    
@<TRIPOS>SUBSTRUCTURE
     1 UNK         1 GROUP             0       ****    0 ROOT    
