@<TRIPOS>MOLECULE
ZINC35702187_5904
59   62    1
SMALL
USER_CHARGES


@<TRIPOS>ATOM
      1 C1         -2.3674   50.1344   19.2983 C.3       1 UNK         0.0000 
      2 C2         -1.7879   50.4166   20.6823 C.2       1 UNK         0.0000 
      3 C3         -0.5011   50.2094   21.0904 C.2       1 UNK         0.0000 
      4 C4         -0.0687   50.5286   22.5611 C.3       1 UNK         0.0000 
      5 H5          0.3749   49.6291   22.9929 H         1 UNK         0.0000 
      6 N6         -1.2873   50.8008   23.3907 N.pl3     1 UNK         0.0000 
      7 C7         -1.3215   50.9428   24.7752 C.2       1 UNK         0.0000 
      8 C8         -2.5618   51.2394   25.2114 C.2       1 UNK         0.0000 
      9 S9         -3.7540   51.4150   23.9397 S.3       1 UNK         0.0000 
     10 C10        -2.5155   50.9934   22.7505 C.2       1 UNK         0.0000 
     11 N11        -2.7658   50.8956   21.5030 N.2       1 UNK         0.0000 
     12 C12        -0.1703   50.8774   25.6740 C.2       1 UNK         0.0000 
     13 C13        -0.0110   51.6087   26.7991 C.2       1 UNK         0.0000 
     14 O14        -0.7927   52.4971   27.3070 O.co2     1 UNK         0.0000 
     15 N15         1.1267   51.4702   27.5696 N.pl3     1 UNK         0.0000 
     16 C16         1.4867   52.0862   28.8490 C.3       1 UNK         0.0000 
     17 C17         1.9496   53.5530   28.7369 C.3       1 UNK         0.0000 
     18 C18         3.2889   53.7371   28.0384 C.ar      1 UNK         0.0000 
     19 C19         3.3576   54.0248   26.6715 C.ar      1 UNK         0.0000 
     20 C20         4.6144   54.2054   26.0893 C.ar      1 UNK         0.0000 
     21 C21         5.7604   54.0977   26.8801 C.ar      1 UNK         0.0000 
     22 C22         5.6081   53.8061   28.2367 C.ar      1 UNK         0.0000 
     23 N23         4.3953   53.6242   28.8220 N.ar      1 UNK         0.0000 
     24 C24         1.0259   51.6175   22.6411 C.ar      1 UNK         0.0000 
     25 C25         2.3051   51.3240   22.1493 C.ar      1 UNK         0.0000 
     26 C26         3.2828   52.3082   22.0816 C.ar      1 UNK         0.0000 
     27 C27         3.0257   53.5676   22.6060 C.ar      1 UNK         0.0000 
     28 C28         1.7821   53.8644   23.1571 C.ar      1 UNK         0.0000 
     29 C29         0.7786   52.8971   23.1590 C.ar      1 UNK         0.0000 
     30 F30         4.0041   54.4975   22.5920 F         1 UNK         0.0000 
     31 C31         0.4967   49.6184   20.2210 C.2       1 UNK         0.0000 
     32 O32         0.8402   48.4507   20.4072 O.2       1 UNK         0.0000 
     33 N33         1.0621   50.4120   19.2693 N.am      1 UNK         0.0000 
     34 C34         2.1683   49.9288   18.4382 C.3       1 UNK         0.0000 
     35 C35         0.7691   51.8349   19.0525 C.3       1 UNK         0.0000 
     36 H36        -3.0537   49.2855   19.3492 H         1 UNK         0.0000 
     37 H37        -2.9224   50.9988   18.9222 H         1 UNK         0.0000 
     38 H38        -1.6068   49.8946   18.5539 H         1 UNK         0.0000 
     39 H39        -2.8486   51.4076   26.2391 H         1 UNK         0.0000 
     40 H40         0.6110   50.1781   25.4147 H         1 UNK         0.0000 
     41 H41         1.9209   51.0613   27.1053 H         1 UNK         0.0000 
     42 H42         0.5936   52.0592   29.4768 H         1 UNK         0.0000 
     43 H43         2.2233   51.4753   29.3728 H         1 UNK         0.0000 
     44 H44         1.1921   54.1415   28.2174 H         1 UNK         0.0000 
     45 H45         2.0099   53.9942   29.7321 H         1 UNK         0.0000 
     46 H46         2.4586   54.0978   26.0753 H         1 UNK         0.0000 
     47 H47         4.7009   54.4228   25.0351 H         1 UNK         0.0000 
     48 H48         6.7416   54.2278   26.4497 H         1 UNK         0.0000 
     49 H49         6.4705   53.7182   28.8815 H         1 UNK         0.0000 
     50 H50         2.5434   50.3375   21.7817 H         1 UNK         0.0000 
     51 H51         4.2537   52.0816   21.6687 H         1 UNK         0.0000 
     52 H52         1.5924   54.8481   23.5622 H         1 UNK         0.0000 
     53 H53        -0.1893   53.1606   23.5584 H         1 UNK         0.0000 
     54 H54         2.3515   48.8570   18.5380 H         1 UNK         0.0000 
     55 H55         1.9726   50.1241   17.3831 H         1 UNK         0.0000 
     56 H56         3.0935   50.4449   18.7039 H         1 UNK         0.0000 
     57 H57         1.6593   52.4320   19.2566 H         1 UNK         0.0000 
     58 H58         0.4848   52.0030   18.0130 H         1 UNK         0.0000 
     59 H59        -0.0328   52.2254   19.6813 H         1 UNK         0.0000 
@<TRIPOS>BOND
     1    1    2 1    
     2    1   36 1    
     3    1   37 1    
     4    1   38 1    
     5    2   11 1    
     6    2    3 2    
     7    3    4 1    
     8    3   31 1    
     9    4    5 1    
    10    4    6 1    
    11    4   24 1    
    12    6   10 1    
    13    6    7 1    
    14    7    8 2    
    15    7   12 1    
    16    8    9 1    
    17    8   39 1    
    18    9   10 1    
    19   10   11 2    
    20   12   13 2    
    21   12   40 1    
    22   13   14 1    
    23   13   15 1    
    24   15   16 1    
    25   15   41 1    
    26   16   17 1    
    27   16   42 1    
    28   16   43 1    
    29   17   18 1    
    30   17   44 1    
    31   17   45 1    
    32   18   23 ar   
    33   18   19 ar   
    34   19   20 ar   
    35   19   46 1    
    36   20   21 ar   
    37   20   47 1    
    38   21   22 ar   
    39   21   48 1    
    40   22   23 ar   
    41   22   49 1    
    42   24   29 ar   
    43   24   25 ar   
    44   25   26 ar   
    45   25   50 1    
    46   26   27 ar   
    47   26   51 1    
    48   27   28 ar   
    49   27   30 1    
    50   28   29 ar   
    51   28   52 1    
    52   29   53 1    
    53   31   32 2    
    54   31   33 am   BACKBONE|DICT|INTERRES
    55   33   34 1    
    56   33   35 1    
    57   34   54 1    
    58   34   55 1    
    59   34   56 1    
    60   35   57 1    
    61   35   58 1    
    62   35   59 1    
@<TRIPOS>SUBSTRUCTURE
     1 UNK         1 GROUP             0       ****    0 ROOT    
