@<TRIPOS>MOLECULE
ZINC21163011_6041
81   87    1
SMALL
USER_CHARGES


@<TRIPOS>ATOM
      1 C1          2.0977   53.0755   26.9803 C.3       1 UNK         0.0000 
      2 C2          3.4280   53.6938   26.6002 C.ar      1 UNK         0.0000 
      3 C3          4.4150   53.7353   27.5951 C.ar      1 UNK         0.0000 
      4 C4          5.6534   54.3219   27.3534 C.ar      1 UNK         0.0000 
      5 C5          5.9087   54.8878   26.1111 C.ar      1 UNK         0.0000 
      6 C6          4.9332   54.8467   25.1198 C.ar      1 UNK         0.0000 
      7 C7          3.6872   54.2330   25.3193 C.ar      1 UNK         0.0000 
      8 C8          2.6662   54.2871   24.1528 C.3       1 UNK         0.0000 
      9 N9          2.2991   53.0429   23.4418 N.pl3     1 UNK         0.0000 
     10 C10         1.1540   52.2634   23.6855 C.ar      1 UNK         0.0000 
     11 C11         0.0836   52.4122   24.5807 C.ar      1 UNK         0.0000 
     12 C12        -0.8786   51.4002   24.6077 C.ar      1 UNK         0.0000 
     13 C13        -0.8095   50.3018   23.7543 C.ar      1 UNK         0.0000 
     14 C14         0.2085   50.1732   22.8080 C.ar      1 UNK         0.0000 
     15 C15         1.1739   51.1815   22.7842 C.ar      1 UNK         0.0000 
     16 N16         2.2424   51.3873   21.9377 N.pl3     1 UNK         0.0000 
     17 C17         2.9172   52.5224   22.3081 C.ar      1 UNK         0.0000 
     18 N18         3.9616   53.0548   21.6054 N.pl3     1 UNK         0.0000 
     19 C19         5.2969   53.2022   22.2178 C.3       1 UNK         0.0000 
     20 C20         5.9777   54.4841   21.6850 C.3       1 UNK         0.0000 
     21 C21         5.9745   54.5860   20.1364 C.3       1 UNK         0.0000 
     22 C22         4.6339   54.1419   19.4934 C.3       1 UNK         0.0000 
     23 C23         4.0874   52.8520   20.1448 C.3       1 UNK         0.0000 
     24 C24         6.3981   55.9875   19.6414 C.2       1 UNK         0.0000 
     25 O25         6.7046   56.8799   20.4376 O.2       1 UNK         0.0000 
     26 N26         6.4907   56.1378   18.3100 N.am      1 UNK         0.0000 
     27 C27         6.8772   57.3491   17.5770 C.3       1 UNK         0.0000 
     28 H28         7.8083   57.6986   18.0341 H         1 UNK         0.0000 
     29 C29         5.8248   58.4635   17.7971 C.3       1 UNK         0.0000 
     30 C30         7.2184   57.0435   16.0721 C.3       1 UNK         0.0000 
     31 C31         7.8547   58.2842   15.3591 C.3       1 UNK         0.0000 
     32 C32         8.2006   57.9707   13.8775 C.3       1 UNK         0.0000 
     33 C33         9.2190   56.8055   13.8219 C.3       1 UNK         0.0000 
     34 C34         8.6046   55.5506   14.4868 C.3       1 UNK         0.0000 
     35 C35         8.2570   55.8705   15.9640 C.3       1 UNK         0.0000 
     36 C36         7.3101   55.1397   13.7393 C.3       1 UNK         0.0000 
     37 C37         6.2874   56.3048   13.7913 C.3       1 UNK         0.0000 
     38 C38         6.9063   57.5614   13.1250 C.3       1 UNK         0.0000 
     39 C39         5.9402   56.6235   15.2712 C.3       1 UNK         0.0000 
     40 H40         2.0606   52.7802   28.0289 H         1 UNK         0.0000 
     41 H41         1.2981   53.7945   26.8277 H         1 UNK         0.0000 
     42 H42         1.9082   52.1835   26.3877 H         1 UNK         0.0000 
     43 H43         4.2258   53.3099   28.5709 H         1 UNK         0.0000 
     44 H44         6.4054   54.3516   28.1300 H         1 UNK         0.0000 
     45 H45         6.8585   55.3587   25.9124 H         1 UNK         0.0000 
     46 H46         5.1678   55.2990   24.1752 H         1 UNK         0.0000 
     47 H47         3.0257   54.9879   23.3969 H         1 UNK         0.0000 
     48 H48         1.7419   54.7473   24.4988 H         1 UNK         0.0000 
     49 H49        -0.0049   53.2594   25.2369 H         1 UNK         0.0000 
     50 H50        -1.6990   51.4680   25.3089 H         1 UNK         0.0000 
     51 H51        -1.5765   49.5421   23.8193 H         1 UNK         0.0000 
     52 H52         0.2370   49.3380   22.1255 H         1 UNK         0.0000 
     53 H53         5.8897   52.3094   22.0136 H         1 UNK         0.0000 
     54 H54         5.1996   53.2115   23.2970 H         1 UNK         0.0000 
     55 H55         6.9901   54.5202   22.0894 H         1 UNK         0.0000 
     56 H56         5.3717   55.2965   22.0758 H         1 UNK         0.0000 
     57 H57         6.7046   53.9131   19.6853 H         1 UNK         0.0000 
     58 H58         3.8616   54.8916   19.6789 H         1 UNK         0.0000 
     59 H59         4.7346   53.9450   18.4238 H         1 UNK         0.0000 
     60 H60         4.7338   51.9919   19.9549 H         1 UNK         0.0000 
     61 H61         3.1068   52.6186   19.7202 H         1 UNK         0.0000 
     62 H62         6.2933   55.3345   17.7320 H         1 UNK         0.0000 
     63 H63         5.9459   59.2968   17.1122 H         1 UNK         0.0000 
     64 H64         4.8057   58.0945   17.6790 H         1 UNK         0.0000 
     65 H65         5.9050   58.8947   18.7948 H         1 UNK         0.0000 
     66 H66         8.7564   58.6037   15.8836 H         1 UNK         0.0000 
     67 H67         7.1797   59.1376   15.3764 H         1 UNK         0.0000 
     68 H68         8.6305   58.8578   13.4093 H         1 UNK         0.0000 
     69 H69         9.4954   56.5870   12.7878 H         1 UNK         0.0000 
     70 H70        10.1456   57.0868   14.3282 H         1 UNK         0.0000 
     71 H71         9.3261   54.7329   14.4463 H         1 UNK         0.0000 
     72 H72         7.8742   54.9619   16.4306 H         1 UNK         0.0000 
     73 H73         9.1692   56.1183   16.5106 H         1 UNK         0.0000 
     74 H74         6.8856   54.2423   14.1887 H         1 UNK         0.0000 
     75 H75         7.5351   54.8853   12.7035 H         1 UNK         0.0000 
     76 H76         5.3812   56.0115   13.2557 H         1 UNK         0.0000 
     77 H77         7.1224   57.3637   12.0734 H         1 UNK         0.0000 
     78 H78         6.1875   58.3829   13.1318 H         1 UNK         0.0000 
     79 H79         5.1897   57.4164   15.2998 H         1 UNK         0.0000 
     80 H80         5.4675   55.7571   15.7340 H         1 UNK         0.0000 
     81 H81         2.5139   50.8273   21.1410 H         1 UNK         0.0000 
@<TRIPOS>BOND
     1    1    2 1    
     2    1   40 1    
     3    1   41 1    
     4    1   42 1    
     5    2    7 ar   
     6    2    3 ar   
     7    3    4 ar   
     8    3   43 1    
     9    4    5 ar   
    10    4   44 1    
    11    5    6 ar   
    12    5   45 1    
    13    6    7 ar   
    14    6   46 1    
    15    7    8 1    
    16    8    9 1    
    17    8   47 1    
    18    8   48 1    
    19    9   17 ar   
    20    9   10 ar   
    21   10   15 ar   
    22   10   11 ar   
    23   11   12 ar   
    24   11   49 1    
    25   12   13 ar   
    26   12   50 1    
    27   13   14 ar   
    28   13   51 1    
    29   14   15 ar   
    30   14   52 1    
    31   15   16 ar   
    32   16   17 ar   
    33   16   81 1    
    34   17   18 1    
    35   18   23 1    
    36   18   19 1    
    37   19   20 1    
    38   19   53 1    
    39   19   54 1    
    40   20   21 1    
    41   20   55 1    
    42   20   56 1    
    43   21   22 1    
    44   21   24 1    
    45   21   57 1    
    46   22   23 1    
    47   22   58 1    
    48   22   59 1    
    49   23   60 1    
    50   23   61 1    
    51   24   25 2    
    52   24   26 am   BACKBONE|DICT|INTERRES
    53   26   27 1    
    54   26   62 1    
    55   27   28 1    
    56   27   29 1    
    57   27   30 1    
    58   29   63 1    
    59   29   64 1    
    60   29   65 1    
    61   30   35 1    
    62   30   39 1    
    63   30   31 1    
    64   31   32 1    
    65   31   66 1    
    66   31   67 1    
    67   32   38 1    
    68   32   33 1    
    69   32   68 1    
    70   33   34 1    
    71   33   69 1    
    72   33   70 1    
    73   34   35 1    
    74   34   36 1    
    75   34   71 1    
    76   35   72 1    
    77   35   73 1    
    78   36   37 1    
    79   36   74 1    
    80   36   75 1    
    81   37   38 1    
    82   37   39 1    
    83   37   76 1    
    84   38   77 1    
    85   38   78 1    
    86   39   79 1    
    87   39   80 1    
@<TRIPOS>SUBSTRUCTURE
     1 UNK         1 GROUP             0       ****    0 ROOT    
