ZINC16572344_4482
                    3D
 Schrodinger Suite 2024-2.
 52 54  0  0  1  0            999 V2000
    8.4537   59.0692   17.5698 C   0  0  0  0  0  0
    7.5729   57.9952   18.2278 C   0  0  0  0  0  0
    8.1298   56.5567   18.0751 C   0  0  1  0  0  0
    8.3281   56.4466   17.0081 H   0  0  0  0  0  0
    9.5046   56.3955   18.7643 C   0  0  0  0  0  0
    7.0958   55.4232   18.4250 C   0  0  2  0  0  0
    6.2056   55.5945   17.8155 H   0  0  0  0  0  0
    6.6176   55.4381   19.9099 C   0  0  0  0  0  0
    7.1012   56.2341   20.7196 O   0  0  0  0  0  0
    5.6684   54.5264   20.2225 N   0  0  0  0  0  0
    5.1236   54.3231   21.4825 C   0  0  0  0  0  0
    3.9007   53.8890   21.6448 N   0  0  0  0  0  0
    3.5461   53.7887   22.9844 N   0  0  0  0  0  0
    4.5211   54.0965   23.8138 C   0  0  0  0  0  0
    6.0077   54.4967   22.9860 S   0  0  0  0  0  0
    4.3936   54.0973   25.3126 C   0  0  0  0  0  0
    5.4652   54.4623   26.1409 C   0  0  0  0  0  0
    5.3252   54.4463   27.5282 C   0  0  0  0  0  0
    4.1111   54.0651   28.0958 C   0  0  0  0  0  0
    3.0378   53.7040   27.2873 C   0  0  0  0  0  0
    3.1787   53.7228   25.9037 C   0  0  0  0  0  0
    3.9043   54.0337   29.9880 Br  0  0  0  0  0  0
    7.6199   54.0912   18.0880 N   0  0  0  0  0  0
    7.8073   53.5808   16.8622 C   0  0  0  0  0  0
    7.4057   54.1251   15.8339 O   0  0  0  0  0  0
    8.5238   52.4407   16.9284 N   0  0  0  0  0  0
    8.9396   51.5743   15.9030 C   0  0  0  0  0  0
    9.8888   50.6080   16.2567 C   0  0  0  0  0  0
   10.3624   49.6975   15.3102 C   0  0  0  0  0  0
    9.8814   49.7419   14.0019 C   0  0  0  0  0  0
    8.9246   50.6899   13.6419 C   0  0  0  0  0  0
    8.4541   51.6063   14.5845 C   0  0  0  0  0  0
    8.4460   50.7189   12.3770 F   0  0  0  0  0  0
    7.8999   59.9961   17.4240 H   0  0  0  0  0  0
    9.3196   59.3009   18.1903 H   0  0  0  0  0  0
    8.8159   58.7503   16.5925 H   0  0  0  0  0  0
    6.5755   58.0472   17.7886 H   0  0  0  0  0  0
    7.4505   58.2546   19.2791 H   0  0  0  0  0  0
    9.4586   56.5720   19.8380 H   0  0  0  0  0  0
    9.9043   55.3922   18.6149 H   0  0  0  0  0  0
   10.2409   57.0880   18.3569 H   0  0  0  0  0  0
    5.2366   54.0208   19.4618 H   0  0  0  0  0  0
    6.4143   54.7570   25.7210 H   0  0  0  0  0  0
    6.1533   54.7282   28.1625 H   0  0  0  0  0  0
    2.0995   53.4066   27.7310 H   0  0  0  0  0  0
    2.3356   53.4365   25.2926 H   0  0  0  0  0  0
    7.8702   53.5277   18.8840 H   0  0  0  0  0  0
    8.8584   52.1732   17.8424 H   0  0  0  0  0  0
   10.2697   50.5594   17.2683 H   0  0  0  0  0  0
   11.1023   48.9617   15.5877 H   0  0  0  0  0  0
   10.2539   49.0476   13.2615 H   0  0  0  0  0  0
    7.7060   52.3174   14.2736 H   0  0  0  0  0  0
  1  2  1  0  0  0
  1 34  1  0  0  0
  1 35  1  0  0  0
  1 36  1  0  0  0
  2  3  1  0  0  0
  2 37  1  0  0  0
  2 38  1  0  0  0
  3  4  1  0  0  0
  3  5  1  0  0  0
  3  6  1  0  0  0
  5 39  1  0  0  0
  5 40  1  0  0  0
  5 41  1  0  0  0
  6  7  1  0  0  0
  6  8  1  0  0  0
  6 23  1  0  0  0
  8  9  2  0  0  0
  8 10  1  0  0  0
 10 11  1  0  0  0
 10 42  1  0  0  0
 11 15  1  0  0  0
 11 12  2  0  0  0
 12 13  1  0  0  0
 13 14  2  0  0  0
 14 15  1  0  0  0
 14 16  1  0  0  0
 16 21  2  0  0  0
 16 17  1  0  0  0
 17 18  2  0  0  0
 17 43  1  0  0  0
 18 19  1  0  0  0
 18 44  1  0  0  0
 19 20  2  0  0  0
 19 22  1  0  0  0
 20 21  1  0  0  0
 20 45  1  0  0  0
 21 46  1  0  0  0
 23 24  1  0  0  0
 23 47  1  0  0  0
 24 25  2  0  0  0
 24 26  1  0  0  0
 26 27  1  0  0  0
 26 48  1  0  0  0
 27 32  2  0  0  0
 27 28  1  0  0  0
 28 29  2  0  0  0
 28 49  1  0  0  0
 29 30  1  0  0  0
 29 50  1  0  0  0
 30 31  2  0  0  0
 30 51  1  0  0  0
 31 32  1  0  0  0
 31 33  1  0  0  0
 32 52  1  0  0  0
M  END
> <i_i_glide_confnum>
213

> <i_i_glide_lignum>
4483

> <i_i_glide_posenum>
306

> <i_i_glide_rotatable_bonds>
10

> <i_m_Source_File_Index>
2213

> <b_m_subgroup_collapsed>
0

> <r_i_docking_score>
-5.16373

> <r_i_glide_ecoul>
-3.79352

> <r_i_glide_eff_state_penalty>
0

> <r_i_glide_einternal>
6.22577

> <r_i_glide_emodel>
-62.4649

> <r_i_glide_energy>
-49.2092

> <r_i_glide_erotb>
0.638286

> <r_i_glide_esite>
-0.00876122

> <r_i_glide_evdw>
-45.4156

> <r_i_glide_gscore>
-5.16373

> <r_i_glide_hbond>
-0.146372

> <r_i_glide_ligand_efficiency>
-0.166572

> <r_i_glide_ligand_efficiency_ln>
-1.16458

> <r_i_glide_ligand_efficiency_sa>
-0.523266

> <r_i_glide_lipo>
-2.57297

> <r_i_glide_metal>
0

> <r_i_glide_rewards>
-0.234097

> <s_i_glide_gridfile>
wee1_glide-grid

> <s_m_Source_File>
wee1_decoys_glide_SP.sdf

> <s_m_Source_Path>
/Users/zhangxujun/Desktop

> <s_m_entry_id>
2488

> <s_m_entry_name>
wee1_decoys_glide_SP.2213

> <s_m_subgroup_title>
wee1_decoys_glide_SP

> <s_m_subgroupid>
wee1_decoys_glide_SP


$$$$
