@<TRIPOS>MOLECULE
ZINC13430036_3309
56   59    1
SMALL
USER_CHARGES


@<TRIPOS>ATOM
      1 C1         -1.2407   57.3926   17.2851 C.3       1 UNK         0.0000 
      2 C2         -0.7489   56.0926   16.6426 C.3       1 UNK         0.0000 
      3 H3         -1.1665   56.0544   15.6364 H         1 UNK         0.0000 
      4 C4          0.7968   56.0110   16.5800 C.3       1 UNK         0.0000 
      5 N5          1.1949   54.6730   16.0742 N.pl3     1 UNK         0.0000 
      6 C6          0.6303   53.5720   16.8967 C.3       1 UNK         0.0000 
      7 C7         -0.9088   53.6883   16.9368 C.3       1 UNK         0.0000 
      8 H8         -1.2895   52.9771   17.6715 H         1 UNK         0.0000 
      9 O9         -1.2558   54.9957   17.4120 O.3       1 UNK         0.0000 
     10 C10        -1.5969   53.3472   15.6000 C.3       1 UNK         0.0000 
     11 S11         2.8873   54.4721   15.5701 S.o2      1 UNK         0.0000 
     12 O12         3.2782   55.6648   14.8093 O.2       1 UNK         0.0000 
     13 O13         3.0245   53.1343   14.9825 O.2       1 UNK         0.0000 
     14 C14         3.8291   54.4697   17.0956 C.ar      1 UNK         0.0000 
     15 C15         4.4635   55.6324   17.5384 C.ar      1 UNK         0.0000 
     16 C16         5.0808   55.6512   18.7864 C.ar      1 UNK         0.0000 
     17 C17         5.0164   54.5246   19.6149 C.ar      1 UNK         0.0000 
     18 C18         4.4556   53.3353   19.1259 C.ar      1 UNK         0.0000 
     19 C19         3.8717   53.3057   17.8647 C.ar      1 UNK         0.0000 
     20 C20         5.4575   54.6337   21.0505 C.2       1 UNK         0.0000 
     21 O21         6.4736   55.2608   21.3572 O.2       1 UNK         0.0000 
     22 N22         4.5859   54.0746   21.9152 N.am      1 UNK         0.0000 
     23 C23         4.5472   54.0936   23.3228 C.ar      1 UNK         0.0000 
     24 C24         5.7233   54.2380   24.0792 C.ar      1 UNK         0.0000 
     25 C25         5.6648   54.2289   25.4683 C.ar      1 UNK         0.0000 
     26 C26         4.4331   54.0942   26.1196 C.ar      1 UNK         0.0000 
     27 C27         3.2648   53.9671   25.3837 C.ar      1 UNK         0.0000 
     28 C28         3.2943   53.9245   23.9810 C.ar      1 UNK         0.0000 
     29 C29         1.9947   53.6704   23.2543 C.2       1 UNK         0.0000 
     30 O30         2.0521   53.2299   22.0837 O.co2     1 UNK         0.0000 
     31 O31         4.3197   54.1030   27.4945 O.3       1 UNK         0.0000 
     32 C32         5.5257   53.7295   28.1634 C.3       1 UNK         0.0000 
     33 C33         6.7200   54.4974   27.5560 C.3       1 UNK         0.0000 
     34 O34         6.8618   54.2491   26.1563 O.3       1 UNK         0.0000 
     35 H35        -0.8491   58.2651   16.7619 H         1 UNK         0.0000 
     36 H36        -2.3303   57.4498   17.2584 H         1 UNK         0.0000 
     37 H37        -0.9252   57.4618   18.3269 H         1 UNK         0.0000 
     38 H38         1.1359   56.0929   17.6141 H         1 UNK         0.0000 
     39 H39         1.1996   56.7936   15.9383 H         1 UNK         0.0000 
     40 H40         0.9407   52.6004   16.5105 H         1 UNK         0.0000 
     41 H41         0.9555   53.7310   17.9255 H         1 UNK         0.0000 
     42 H42        -1.4266   52.3026   15.3347 H         1 UNK         0.0000 
     43 H43        -2.6752   53.4990   15.6625 H         1 UNK         0.0000 
     44 H44        -1.2195   53.9489   14.7748 H         1 UNK         0.0000 
     45 H45         4.4468   56.5306   16.9388 H         1 UNK         0.0000 
     46 H46         5.5207   56.5734   19.1419 H         1 UNK         0.0000 
     47 H47         4.4226   52.4345   19.7251 H         1 UNK         0.0000 
     48 H48         3.4134   52.3898   17.5149 H         1 UNK         0.0000 
     49 H49         3.7228   53.7063   21.5189 H         1 UNK         0.0000 
     50 H50         6.6928   54.3175   23.6087 H         1 UNK         0.0000 
     51 H51         2.3319   53.8523   25.9177 H         1 UNK         0.0000 
     52 H52         5.4330   53.9427   29.2279 H         1 UNK         0.0000 
     53 H53         5.6922   52.6566   28.0509 H         1 UNK         0.0000 
     54 H54         6.5542   55.5674   27.6807 H         1 UNK         0.0000 
     55 H55         7.6432   54.2389   28.0744 H         1 UNK         0.0000 
     56 O56         0.9238   53.8839   23.8663 O.co2     1 UNK         0.0000 
@<TRIPOS>BOND
     1    1    2 1    
     2    1   35 1    
     3    1   36 1    
     4    1   37 1    
     5    2    3 1    
     6    2    9 1    
     7    2    4 1    
     8    4    5 1    
     9    4   38 1    
    10    4   39 1    
    11    5    6 1    
    12    5   11 1    
    13    6    7 1    
    14    6   40 1    
    15    6   41 1    
    16    7    8 1    
    17    7    9 1    
    18    7   10 1    
    19   10   42 1    
    20   10   43 1    
    21   10   44 1    
    22   11   12 2    
    23   11   13 2    
    24   11   14 1    
    25   14   19 ar   
    26   14   15 ar   
    27   15   16 ar   
    28   15   45 1    
    29   16   17 ar   
    30   16   46 1    
    31   17   18 ar   
    32   17   20 1    
    33   18   19 ar   
    34   18   47 1    
    35   19   48 1    
    36   20   21 2    
    37   20   22 am   BACKBONE|DICT|INTERRES
    38   22   23 1    
    39   22   49 1    
    40   23   28 ar   
    41   23   24 ar   
    42   24   25 ar   
    43   24   50 1    
    44   25   34 1    
    45   25   26 ar   
    46   26   27 ar   
    47   26   31 1    
    48   27   28 ar   
    49   27   51 1    
    50   28   29 1    
    51   29   30 2    
    52   29   56 1    
    53   31   32 1    
    54   32   33 1    
    55   32   52 1    
    56   32   53 1    
    57   33   34 1    
    58   33   54 1    
    59   33   55 1    
@<TRIPOS>SUBSTRUCTURE
     1 UNK         1 GROUP             0       ****    0 ROOT    
