@<TRIPOS>MOLECULE
ZINC09250233_6088
51   54    1
SMALL
USER_CHARGES


@<TRIPOS>ATOM
      1 C1          3.7756   53.5470   18.5721 C.3       1 UNK         0.0000 
      2 C2          4.7187   54.3155   19.4948 C.ar      1 UNK         0.0000 
      3 C3          5.3712   55.4393   18.9832 C.ar      1 UNK         0.0000 
      4 C4          6.2546   56.1418   19.7979 C.ar      1 UNK         0.0000 
      5 N5          6.5288   55.7723   21.0747 N.ar      1 UNK         0.0000 
      6 C6          5.9077   54.6703   21.5763 C.ar      1 UNK         0.0000 
      7 C7          4.9786   53.9152   20.8245 C.ar      1 UNK         0.0000 
      8 C8          4.2728   52.7315   21.4281 C.2       1 UNK         0.0000 
      9 O9          4.8883   51.6978   21.6800 O.2       1 UNK         0.0000 
     10 N10         2.9718   52.9634   21.6905 N.am      1 UNK         0.0000 
     11 C11         2.0686   52.1478   22.3866 C.ar      1 UNK         0.0000 
     12 C12         2.1732   50.7506   22.4815 C.ar      1 UNK         0.0000 
     13 C13         1.2334   50.0275   23.2164 C.ar      1 UNK         0.0000 
     14 C14         0.1759   50.6866   23.8437 C.ar      1 UNK         0.0000 
     15 C15         0.0552   52.0722   23.7310 C.ar      1 UNK         0.0000 
     16 C16         1.0004   52.7979   23.0076 C.ar      1 UNK         0.0000 
     17 Cl17       -1.2633   52.8950   24.4814 Cl        1 UNK         0.0000 
     18 S18         6.4483   54.1761   23.2061 S.3       1 UNK         0.0000 
     19 C19         5.5073   55.1809   24.3802 C.3       1 UNK         0.0000 
     20 C20         5.4079   54.5776   25.7765 C.2       1 UNK         0.0000 
     21 O21         6.4384   54.3713   26.4186 O.2       1 UNK         0.0000 
     22 N22         4.1456   54.3591   26.2034 N.am      1 UNK         0.0000 
     23 C23         3.7204   53.8593   27.4169 C.2       1 UNK         0.0000 
     24 N24         2.4439   53.7885   27.6642 N.2       1 UNK         0.0000 
     25 C25         2.2063   53.2512   28.8901 C.ar      1 UNK         0.0000 
     26 C26         0.9347   53.0642   29.4534 C.ar      1 UNK         0.0000 
     27 C27         0.8496   52.4967   30.7261 C.ar      1 UNK         0.0000 
     28 C28         1.9946   52.0975   31.4167 C.ar      1 UNK         0.0000 
     29 C29         3.2719   52.2807   30.8825 C.ar      1 UNK         0.0000 
     30 C30         3.3664   52.8735   29.6190 C.ar      1 UNK         0.0000 
     31 S31         4.7912   53.2885   28.6841 S.3       1 UNK         0.0000 
     32 C32         6.9629   57.3805   19.2837 C.3       1 UNK         0.0000 
     33 H33         2.7480   53.5989   18.9359 H         1 UNK         0.0000 
     34 H34         3.7959   53.9263   17.5484 H         1 UNK         0.0000 
     35 H35         4.0638   52.4946   18.5331 H         1 UNK         0.0000 
     36 H36         5.1911   55.7637   17.9683 H         1 UNK         0.0000 
     37 H37         2.6183   53.8705   21.4201 H         1 UNK         0.0000 
     38 H38         2.9740   50.2133   21.9959 H         1 UNK         0.0000 
     39 H39         1.3292   48.9548   23.3018 H         1 UNK         0.0000 
     40 H40        -0.5500   50.1213   24.4123 H         1 UNK         0.0000 
     41 H41         0.9048   53.8717   22.9425 H         1 UNK         0.0000 
     42 H42         4.5075   55.2966   23.9637 H         1 UNK         0.0000 
     43 H43         5.9694   56.1630   24.4708 H         1 UNK         0.0000 
     44 H44         3.3965   54.5946   25.5730 H         1 UNK         0.0000 
     45 H45         0.0430   53.3490   28.9164 H         1 UNK         0.0000 
     46 H46        -0.1198   52.3446   31.1855 H         1 UNK         0.0000 
     47 H47         1.8838   51.6665   32.4034 H         1 UNK         0.0000 
     48 H48         4.1562   51.9997   31.4389 H         1 UNK         0.0000 
     49 H49         6.6723   57.6092   18.2574 H         1 UNK         0.0000 
     50 H50         6.7042   58.2480   19.8915 H         1 UNK         0.0000 
     51 H51         8.0444   57.2375   19.2888 H         1 UNK         0.0000 
@<TRIPOS>BOND
     1    1    2 1    
     2    1   33 1    
     3    1   34 1    
     4    1   35 1    
     5    2    7 ar   
     6    2    3 ar   
     7    3    4 ar   
     8    3   36 1    
     9    4    5 ar   
    10    4   32 1    
    11    5    6 ar   
    12    6    7 ar   
    13    6   18 1    
    14    7    8 1    
    15    8    9 2    
    16    8   10 am   BACKBONE|DICT|INTERRES
    17   10   11 1    
    18   10   37 1    
    19   11   16 ar   
    20   11   12 ar   
    21   12   13 ar   
    22   12   38 1    
    23   13   14 ar   
    24   13   39 1    
    25   14   15 ar   
    26   14   40 1    
    27   15   16 ar   
    28   15   17 1    
    29   16   41 1    
    30   18   19 1    
    31   19   20 1    
    32   19   42 1    
    33   19   43 1    
    34   20   21 2    
    35   20   22 am   BACKBONE|DICT|INTERRES
    36   22   23 am   BACKBONE|DICT|INTERRES
    37   22   44 1    
    38   23   31 1    
    39   23   24 2    
    40   24   25 1    
    41   25   30 ar   
    42   25   26 ar   
    43   26   27 ar   
    44   26   45 1    
    45   27   28 ar   
    46   27   46 1    
    47   28   29 ar   
    48   28   47 1    
    49   29   30 ar   
    50   29   48 1    
    51   30   31 1    
    52   32   49 1    
    53   32   50 1    
    54   32   51 1    
@<TRIPOS>SUBSTRUCTURE
     1 UNK         1 GROUP             0       ****    0 ROOT    
