@<TRIPOS>MOLECULE
ZINC53853448_2523
40   43    1
SMALL
USER_CHARGES


@<TRIPOS>ATOM
      1 C1          6.5463   53.6719   28.1129 C.3       1 UNK         0.0000 
      2 C2          5.2478   54.2026   27.4656 C.3       1 UNK         0.0000 
      3 H3          5.1900   55.2702   27.6932 H         1 UNK         0.0000 
      4 C4          3.9459   53.6239   28.0627 C.ar      1 UNK         0.0000 
      5 C5          3.8630   53.3133   29.4358 C.ar      1 UNK         0.0000 
      6 C6          2.6960   52.7823   29.9992 C.ar      1 UNK         0.0000 
      7 C7          1.6037   52.5699   29.1653 C.ar      1 UNK         0.0000 
      8 C8          1.6664   52.8544   27.8320 C.ar      1 UNK         0.0000 
      9 C9          2.8157   53.3875   27.2543 C.ar      1 UNK         0.0000 
     10 N10         0.4449   52.5113   27.3074 N.pl3     1 UNK         0.0000 
     11 H11         0.1888   52.5726   26.3350 H         1 UNK         0.0000 
     12 C12        -0.3918   52.0571   28.2608 C.ar      1 UNK         0.0000 
     13 O13        -1.5554   51.6968   28.1198 O.2       1 UNK         0.0000 
     14 N14         0.3331   52.0945   29.3975 N.pl3     1 UNK         0.0000 
     15 H15        -0.0375   51.8147   30.2947 H         1 UNK         0.0000 
     16 N16         5.3192   54.0964   26.0045 N.am      1 UNK         0.0000 
     17 C17         6.0983   54.8494   25.2107 C.2       1 UNK         0.0000 
     18 O18         6.8833   55.6967   25.6357 O.2       1 UNK         0.0000 
     19 C19         5.9046   54.6428   23.7999 C.ar      1 UNK         0.0000 
     20 C20         4.8261   54.0946   23.1114 C.ar      1 UNK         0.0000 
     21 C21         5.0671   54.2523   21.7083 C.ar      1 UNK         0.0000 
     22 C22         4.3667   53.9022   20.5441 C.ar      1 UNK         0.0000 
     23 C23         4.9089   54.2415   19.3047 C.ar      1 UNK         0.0000 
     24 C24         6.1194   54.9247   19.2073 C.ar      1 UNK         0.0000 
     25 C25         6.8451   55.2972   20.3392 C.ar      1 UNK         0.0000 
     26 C26         6.3061   54.9449   21.5811 C.ar      1 UNK         0.0000 
     27 N27         6.7750   55.1478   22.8606 N.pl3     1 UNK         0.0000 
     28 H28         7.6423   55.5951   23.1338 H         1 UNK         0.0000 
     29 Br29        6.8074   55.3550   17.4865 Br        1 UNK         0.0000 
     30 H30         6.6426   53.9903   29.1503 H         1 UNK         0.0000 
     31 H31         6.5876   52.5829   28.0812 H         1 UNK         0.0000 
     32 H32         7.4402   54.0414   27.6121 H         1 UNK         0.0000 
     33 H33         4.7044   53.4912   30.0815 H         1 UNK         0.0000 
     34 H34         2.6520   52.5473   31.0527 H         1 UNK         0.0000 
     35 H35         2.8277   53.6121   26.1982 H         1 UNK         0.0000 
     36 H36         4.8908   53.2743   25.6015 H         1 UNK         0.0000 
     37 H37         3.9543   53.6461   23.5644 H         1 UNK         0.0000 
     38 H38         3.4196   53.3860   20.5990 H         1 UNK         0.0000 
     39 H39         4.3812   53.9701   18.4011 H         1 UNK         0.0000 
     40 H40         7.7892   55.8140   20.2472 H         1 UNK         0.0000 
@<TRIPOS>BOND
     1    1    2 1    
     2    1   30 1    
     3    1   31 1    
     4    1   32 1    
     5    2    3 1    
     6    2    4 1    
     7    2   16 1    
     8    4    9 ar   
     9    4    5 ar   
    10    5    6 ar   
    11    5   33 1    
    12    6    7 ar   
    13    6   34 1    
    14    7   14 ar   
    15    7    8 ar   
    16    8    9 ar   
    17    8   10 ar   
    18    9   35 1    
    19   10   11 1    
    20   10   12 ar   
    21   12   13 2    
    22   12   14 ar   
    23   14   15 1    
    24   16   17 am   BACKBONE|DICT|INTERRES
    25   16   36 1    
    26   17   18 2    
    27   17   19 1    
    28   19   27 ar   
    29   19   20 ar   
    30   20   21 ar   
    31   20   37 1    
    32   21   26 ar   
    33   21   22 ar   
    34   22   23 ar   
    35   22   38 1    
    36   23   24 ar   
    37   23   39 1    
    38   24   25 ar   
    39   24   29 1    
    40   25   26 ar   
    41   25   40 1    
    42   26   27 ar   
    43   27   28 1    
@<TRIPOS>SUBSTRUCTURE
     1 UNK         1 GROUP             0       ****    0 ROOT    
