@<TRIPOS>MOLECULE
ZINC14230452_1571
43   44    1
SMALL
USER_CHARGES


@<TRIPOS>ATOM
      1 C1          5.5074   54.2220   28.7157 C.3       1 UNK         0.0000 
      2 C2          4.9738   53.8574   27.3192 C.3       1 UNK         0.0000 
      3 H3          5.1116   52.7802   27.2060 H         1 UNK         0.0000 
      4 C4          3.4832   54.2210   27.1794 C.3       1 UNK         0.0000 
      5 C5          2.8646   53.6681   25.8796 C.3       1 UNK         0.0000 
      6 C6          3.7973   53.9307   24.6843 C.2       1 UNK         0.0000 
      7 C7          5.1331   54.3238   24.8762 C.2       1 UNK         0.0000 
      8 S8          5.9870   54.4967   23.3881 S.3       1 UNK         0.0000 
      9 C9          4.5625   54.0789   22.4669 C.2       1 UNK         0.0000 
     10 C10         3.4769   53.7462   23.3101 C.2       1 UNK         0.0000 
     11 C11         2.1599   53.3347   22.8521 C.2       1 UNK         0.0000 
     12 O12         1.1201   53.7255   23.3758 O.2       1 UNK         0.0000 
     13 N13         2.1395   52.4970   21.8136 N.am      1 UNK         0.0000 
     14 N14         4.5793   54.0014   21.0720 N.am      1 UNK         0.0000 
     15 C15         5.5039   54.4757   20.2115 C.2       1 UNK         0.0000 
     16 O16         6.3816   55.2909   20.4981 O.2       1 UNK         0.0000 
     17 C17         5.4456   53.8872   18.7927 C.3       1 UNK         0.0000 
     18 C18         4.1225   53.9840   17.9960 C.3       1 UNK         0.0000 
     19 N19         3.5269   55.3082   17.8542 N.am      1 UNK         0.0000 
     20 C20         3.9018   56.1664   16.8917 C.2       1 UNK         0.0000 
     21 O21         4.7775   55.9173   16.0643 O.2       1 UNK         0.0000 
     22 C22         3.1834   57.5072   16.8443 C.3       1 UNK         0.0000 
     23 C23         5.7948   54.5794   26.2254 C.3       1 UNK         0.0000 
     24 H24         5.4693   55.2964   28.9010 H         1 UNK         0.0000 
     25 H25         4.9207   53.7329   29.4923 H         1 UNK         0.0000 
     26 H26         6.5443   53.9066   28.8389 H         1 UNK         0.0000 
     27 H27         2.9273   53.8162   28.0265 H         1 UNK         0.0000 
     28 H28         3.3449   55.2965   27.2666 H         1 UNK         0.0000 
     29 H29         1.8766   54.1071   25.7461 H         1 UNK         0.0000 
     30 H30         2.7047   52.5955   25.9857 H         1 UNK         0.0000 
     31 H31         2.9799   52.0285   21.5137 H         1 UNK         0.0000 
     32 H32         1.2462   52.2173   21.4354 H         1 UNK         0.0000 
     33 H33         3.7644   53.5741   20.6574 H         1 UNK         0.0000 
     34 H34         5.8913   52.8966   18.7044 H         1 UNK         0.0000 
     35 H35         6.1774   54.4279   18.1902 H         1 UNK         0.0000 
     36 H36         3.3866   53.5468   18.6711 H         1 UNK         0.0000 
     37 H37         4.0041   53.2507   17.1961 H         1 UNK         0.0000 
     38 H38         2.7878   55.5570   18.4990 H         1 UNK         0.0000 
     39 H39         2.1028   57.3776   16.8823 H         1 UNK         0.0000 
     40 H40         3.4258   58.0390   15.9228 H         1 UNK         0.0000 
     41 H41         3.5024   58.1264   17.6801 H         1 UNK         0.0000 
     42 H42         6.8250   54.2213   26.2290 H         1 UNK         0.0000 
     43 H43         5.8290   55.6520   26.4167 H         1 UNK         0.0000 
@<TRIPOS>BOND
     1    1    2 1    
     2    1   24 1    
     3    1   25 1    
     4    1   26 1    
     5    2    3 1    
     6    2   23 1    
     7    2    4 1    
     8    4    5 1    
     9    4   27 1    
    10    4   28 1    
    11    5    6 1    
    12    5   29 1    
    13    5   30 1    
    14    6   10 1    
    15    6    7 2    
    16    7    8 1    
    17    7   23 1    
    18    8    9 1    
    19    9   10 2    
    20    9   14 am   BACKBONE|DICT|INTERRES
    21   10   11 1    
    22   11   12 2    
    23   11   13 am   BACKBONE|DICT|INTERRES
    24   13   31 1    
    25   13   32 1    
    26   14   15 am   BACKBONE|DICT|INTERRES
    27   14   33 1    
    28   15   16 2    
    29   15   17 1    
    30   17   18 1    
    31   17   34 1    
    32   17   35 1    
    33   18   19 1    
    34   18   36 1    
    35   18   37 1    
    36   19   20 am   BACKBONE|DICT|INTERRES
    37   19   38 1    
    38   20   21 2    
    39   20   22 1    
    40   22   39 1    
    41   22   40 1    
    42   22   41 1    
    43   23   42 1    
    44   23   43 1    
@<TRIPOS>SUBSTRUCTURE
     1 UNK         1 GROUP             0       ****    0 ROOT    
