@<TRIPOS>MOLECULE
ZINC39673277_3077
60   63    1
SMALL
USER_CHARGES


@<TRIPOS>ATOM
      1 C1          5.5589   54.0971   28.4782 C.ar      1 UNK         0.0000 
      2 C2          4.2254   53.9707   28.8687 C.ar      1 UNK         0.0000 
      3 C3          3.1957   53.9808   27.9143 C.ar      1 UNK         0.0000 
      4 C4          3.5361   54.1661   26.5645 C.ar      1 UNK         0.0000 
      5 C5          4.8713   54.2796   26.1743 C.ar      1 UNK         0.0000 
      6 C6          5.8830   54.2386   27.1307 C.ar      1 UNK         0.0000 
      7 Br7         5.3131   54.4964   24.3370 Br        1 UNK         0.0000 
      8 C8          1.7536   53.8666   28.3626 C.2       1 UNK         0.0000 
      9 O9          1.3932   54.5138   29.3494 O.2       1 UNK         0.0000 
     10 N10         0.8999   53.0533   27.6812 N.am      1 UNK         0.0000 
     11 C11        -0.4955   52.8929   28.0853 C.3       1 UNK         0.0000 
     12 C12        -0.9139   51.5275   27.4905 C.3       1 UNK         0.0000 
     13 H13        -0.6972   50.7635   28.2403 H         1 UNK         0.0000 
     14 C14        -0.0082   51.3093   26.2501 C.3       1 UNK         0.0000 
     15 C15         1.2797   52.0372   26.7006 C.3       1 UNK         0.0000 
     16 C16        -0.4544   51.9937   24.9114 C.3       1 UNK         0.0000 
     17 C17        -1.5417   51.2461   24.0931 C.3       1 UNK         0.0000 
     18 N18        -1.1789   49.7553   23.9423 N.4       1 UNK         0.0000 
     19 C19        -0.8626   49.0646   25.2816 C.3       1 UNK         0.0000 
     20 C20         0.3043   49.8222   25.9226 C.3       1 UNK         0.0000 
     21 C21        -2.4397   51.5427   27.2393 C.2       1 UNK         0.0000 
     22 O22        -2.9953   52.4967   26.6921 O.2       1 UNK         0.0000 
     23 N23        -3.1194   50.4966   27.7230 N.am      1 UNK         0.0000 
     24 C24        -4.5723   50.3385   27.7484 C.3       1 UNK         0.0000 
     25 C25        -5.1910   50.6715   29.1034 C.ar      1 UNK         0.0000 
     26 C26        -4.6111   50.1858   30.2805 C.ar      1 UNK         0.0000 
     27 C27        -5.1748   50.4954   31.5135 C.ar      1 UNK         0.0000 
     28 C28        -6.3233   51.2894   31.5785 C.ar      1 UNK         0.0000 
     29 C29        -6.8930   51.7864   30.4079 C.ar      1 UNK         0.0000 
     30 C30        -6.3310   51.4774   29.1720 C.ar      1 UNK         0.0000 
     31 O31        -6.8805   51.6433   32.7839 O.3       1 UNK         0.0000 
     32 C32        -7.4437   50.5805   33.5519 C.3       1 UNK         0.0000 
     33 F33        -6.5305   49.7358   34.0375 F         1 UNK         0.0000 
     34 F34        -8.4012   49.9248   32.8907 F         1 UNK         0.0000 
     35 H35         6.3466   54.0960   29.2177 H         1 UNK         0.0000 
     36 H36         3.9984   53.8630   29.9208 H         1 UNK         0.0000 
     37 H37         2.7732   54.2476   25.8033 H         1 UNK         0.0000 
     38 H38         6.9169   54.3271   26.8306 H         1 UNK         0.0000 
     39 H39        -1.0287   53.6957   27.5828 H         1 UNK         0.0000 
     40 H40        -0.6417   52.8858   29.1679 H         1 UNK         0.0000 
     41 H41         1.8631   51.3199   27.2824 H         1 UNK         0.0000 
     42 H42         1.9352   52.3216   25.8809 H         1 UNK         0.0000 
     43 H43        -0.7423   53.0309   25.0863 H         1 UNK         0.0000 
     44 H44         0.4115   52.0650   24.2502 H         1 UNK         0.0000 
     45 H45        -2.5302   51.2568   24.5490 H         1 UNK         0.0000 
     46 H46        -1.6393   51.6454   23.0827 H         1 UNK         0.0000 
     47 H47        -1.9361   49.2692   23.4821 H         1 UNK         0.0000 
     48 H48        -1.7674   49.0590   25.8894 H         1 UNK         0.0000 
     49 H49        -0.5961   48.0326   25.0469 H         1 UNK         0.0000 
     50 H50         1.1379   49.7609   25.2255 H         1 UNK         0.0000 
     51 H51         0.6426   49.2922   26.8159 H         1 UNK         0.0000 
     52 H52        -2.5789   49.7220   28.1066 H         1 UNK         0.0000 
     53 H53        -4.8000   49.2968   27.5189 H         1 UNK         0.0000 
     54 H54        -5.0436   50.9394   26.9672 H         1 UNK         0.0000 
     55 H55        -3.7160   49.5778   30.2462 H         1 UNK         0.0000 
     56 H56        -4.7005   50.1415   32.4190 H         1 UNK         0.0000 
     57 H57        -7.7752   52.4075   30.4614 H         1 UNK         0.0000 
     58 H58        -6.7872   51.8640   28.2718 H         1 UNK         0.0000 
     59 H59        -7.9362   51.0154   34.4220 H         1 UNK         0.0000 
     60 H60        -0.3718   49.6734   23.3390 H         1 UNK         0.0000 
@<TRIPOS>BOND
     1    1    6 ar   
     2    1    2 ar   
     3    1   35 1    
     4    2    3 ar   
     5    2   36 1    
     6    3    4 ar   
     7    3    8 1    
     8    4    5 ar   
     9    4   37 1    
    10    5    6 ar   
    11    5    7 1    
    12    6   38 1    
    13    8    9 2    
    14    8   10 am   BACKBONE|DICT|INTERRES
    15   10   15 1    
    16   10   11 1    
    17   11   12 1    
    18   11   39 1    
    19   11   40 1    
    20   12   13 1    
    21   12   14 1    
    22   12   21 1    
    23   14   20 1    
    24   14   15 1    
    25   14   16 1    
    26   15   41 1    
    27   15   42 1    
    28   16   17 1    
    29   16   43 1    
    30   16   44 1    
    31   17   18 1    
    32   17   45 1    
    33   17   46 1    
    34   18   19 1    
    35   18   47 1    
    36   18   60 1    
    37   19   20 1    
    38   19   48 1    
    39   19   49 1    
    40   20   50 1    
    41   20   51 1    
    42   21   22 2    
    43   21   23 am   BACKBONE|DICT|INTERRES
    44   23   24 1    
    45   23   52 1    
    46   24   25 1    
    47   24   53 1    
    48   24   54 1    
    49   25   30 ar   
    50   25   26 ar   
    51   26   27 ar   
    52   26   55 1    
    53   27   28 ar   
    54   27   56 1    
    55   28   29 ar   
    56   28   31 1    
    57   29   30 ar   
    58   29   57 1    
    59   30   58 1    
    60   31   32 1    
    61   32   33 1    
    62   32   34 1    
    63   32   59 1    
@<TRIPOS>SUBSTRUCTURE
     1 UNK         1 GROUP             0       ****    0 ROOT    
