ZINC12485518_720
                    3D
 Schrodinger Suite 2024-2.
 67 71  0  0  1  0            999 V2000
    0.0388   49.1433   21.5680 C   0  0  0  0  0  0
    0.0842   49.6968   22.9864 C   0  0  0  0  0  0
   -0.1849   48.8736   24.0842 C   0  0  0  0  0  0
    0.0194   49.6898   25.5747 S   0  0  0  0  0  0
    0.4468   51.1607   24.7636 C   0  0  0  0  0  0
    0.4386   51.0350   23.3560 C   0  0  0  0  0  0
    0.6617   52.2091   22.3593 C   0  0  2  0  0  0
    0.2628   53.1086   22.8324 H   0  0  0  0  0  0
   -0.1593   52.0969   21.0512 C   0  0  0  0  0  0
    0.4259   52.2561   19.7794 C   0  0  0  0  0  0
   -0.3153   52.0895   18.6113 C   0  0  0  0  0  0
   -1.6618   51.7602   18.6942 C   0  0  0  0  0  0
   -2.2700   51.6122   19.9487 C   0  0  0  0  0  0
   -1.5362   51.8242   21.1161 C   0  0  0  0  0  0
   -3.6052   51.2961   20.0772 O   0  0  0  0  0  0
   -4.1773   50.6950   18.9099 C   0  0  0  0  0  0
   -3.7578   51.4743   17.6415 C   0  0  0  0  0  0
   -2.3335   51.5134   17.5124 O   0  0  0  0  0  0
    3.0430   51.4119   21.6678 C   0  0  0  0  0  0
    4.4264   51.9304   21.1831 C   0  0  2  0  0  0
    5.0973   51.0688   21.1690 H   0  0  0  0  0  0
    5.0746   53.0365   22.0647 C   0  0  0  0  0  0
    4.1626   53.9026   22.9638 C   0  0  1  0  0  0
    3.8648   54.7331   22.3179 H   0  0  0  0  0  0
    2.8241   53.2596   23.3669 C   0  0  0  0  0  0
    4.9217   54.4983   24.1628 C   0  0  0  0  0  0
    4.3064   52.4689   19.7418 C   0  0  0  0  0  0
    0.8616   52.2549   25.5192 N   0  0  0  0  0  0
    0.6255   52.4960   26.8291 C   0  0  0  0  0  0
   -0.2769   51.9969   27.5009 O   0  0  0  0  0  0
    1.5359   53.4391   27.4190 C   0  0  0  0  0  0
    1.4790   54.1228   28.6284 C   0  0  0  0  0  0
    2.6800   54.8210   28.7560 C   0  0  0  0  0  0
    3.4353   54.5041   27.6396 C   0  0  0  0  0  0
    2.7356   53.6828   26.8184 O   0  0  0  0  0  0
   -0.5720   47.4236   24.1384 C   0  0  0  0  0  0
    0.7397   49.6203   20.8889 H   0  0  0  0  0  0
    0.3056   48.0973   21.5154 H   0  0  0  0  0  0
   -0.9565   49.2082   21.1329 H   0  0  0  0  0  0
    1.4649   52.5124   19.6642 H   0  0  0  0  0  0
    0.1636   52.1877   17.6474 H   0  0  0  0  0  0
   -2.0246   51.7164   22.0740 H   0  0  0  0  0  0
   -5.2633   50.6742   19.0086 H   0  0  0  0  0  0
   -3.8268   49.6645   18.8286 H   0  0  0  0  0  0
   -4.1398   52.4932   17.6996 H   0  0  0  0  0  0
   -4.1856   51.0140   16.7509 H   0  0  0  0  0  0
    3.1036   50.6893   22.4816 H   0  0  0  0  0  0
    2.5262   50.9276   20.8416 H   0  0  0  0  0  0
    5.6399   52.4372   22.7773 H   0  0  0  0  0  0
    5.8652   53.6084   21.5760 H   0  0  0  0  0  0
    2.1435   54.0382   23.7171 H   0  0  0  0  0  0
    2.9609   52.4963   24.1295 H   0  0  0  0  0  0
    5.2542   53.7152   24.8467 H   0  0  0  0  0  0
    5.8053   55.0506   23.8380 H   0  0  0  0  0  0
    4.2942   55.1849   24.7304 H   0  0  0  0  0  0
    3.6944   53.3715   19.6914 H   0  0  0  0  0  0
    5.2862   52.7131   19.3266 H   0  0  0  0  0  0
    3.8637   51.7288   19.0729 H   0  0  0  0  0  0
    1.4214   52.9432   25.0453 H   0  0  0  0  0  0
    0.6636   54.1079   29.3365 H   0  0  0  0  0  0
    2.9752   55.4651   29.5725 H   0  0  0  0  0  0
    4.4238   54.7881   27.3082 H   0  0  0  0  0  0
   -0.8933   47.0090   23.1830 H   0  0  0  0  0  0
    0.3028   46.8842   24.4826 H   0  0  0  0  0  0
   -1.3714   47.2380   24.8581 H   0  0  0  0  0  0
    2.1660   52.5932   22.1413 N   0  3  2  0  0  0
    2.1264   53.2872   21.4062 H   0  0  0  0  0  0
  1  2  1  0  0  0
  1 37  1  0  0  0
  1 38  1  0  0  0
  1 39  1  0  0  0
  2  6  1  0  0  0
  2  3  2  0  0  0
  3  4  1  0  0  0
  3 36  1  0  0  0
  4  5  1  0  0  0
  5  6  2  0  0  0
  5 28  1  0  0  0
  6  7  1  0  0  0
  7  8  1  0  0  0
  7  9  1  0  0  0
  7 66  1  0  0  0
  9 14  2  0  0  0
  9 10  1  0  0  0
 10 11  2  0  0  0
 10 40  1  0  0  0
 11 12  1  0  0  0
 11 41  1  0  0  0
 12 18  1  0  0  0
 12 13  2  0  0  0
 13 14  1  0  0  0
 13 15  1  0  0  0
 14 42  1  0  0  0
 15 16  1  0  0  0
 16 17  1  0  0  0
 16 43  1  0  0  0
 16 44  1  0  0  0
 17 18  1  0  0  0
 17 45  1  0  0  0
 17 46  1  0  0  0
 19 20  1  0  0  0
 19 47  1  0  0  0
 19 48  1  0  0  0
 19 66  1  0  0  0
 20 21  1  0  0  0
 20 22  1  0  0  0
 20 27  1  0  0  0
 22 23  1  0  0  0
 22 49  1  0  0  0
 22 50  1  0  0  0
 23 24  1  0  0  0
 23 25  1  0  0  0
 23 26  1  0  0  0
 25 51  1  0  0  0
 25 52  1  0  0  0
 25 66  1  0  0  0
 26 53  1  0  0  0
 26 54  1  0  0  0
 26 55  1  0  0  0
 27 56  1  0  0  0
 27 57  1  0  0  0
 27 58  1  0  0  0
 28 29  1  0  0  0
 28 59  1  0  0  0
 29 30  2  0  0  0
 29 31  1  0  0  0
 31 35  1  0  0  0
 31 32  2  0  0  0
 32 33  1  0  0  0
 32 60  1  0  0  0
 33 34  2  0  0  0
 33 61  1  0  0  0
 34 35  1  0  0  0
 34 62  1  0  0  0
 36 63  1  0  0  0
 36 64  1  0  0  0
 36 65  1  0  0  0
 66 67  1  0  0  0
M  CHG  1  66   1
M  END
> <i_i_glide_confnum>
212

> <i_i_glide_lignum>
721

> <i_i_glide_posenum>
11

> <i_i_glide_rotatable_bonds>
6

> <i_m_Source_File_Index>
368

> <b_m_subgroup_collapsed>
0

> <r_i_docking_score>
-3.59509

> <r_i_glide_ecoul>
-0.807758

> <r_i_glide_eff_state_penalty>
0

> <r_i_glide_einternal>
18.0215

> <r_i_glide_emodel>
-37.3943

> <r_i_glide_energy>
-37.1685

> <r_i_glide_erotb>
0.52476

> <r_i_glide_esite>
0

> <r_i_glide_evdw>
-36.3607

> <r_i_glide_gscore>
-3.59509

> <r_i_glide_hbond>
0

> <r_i_glide_ligand_efficiency>
-0.105738

> <r_i_glide_ligand_efficiency_ln>
-0.794257

> <r_i_glide_ligand_efficiency_sa>
-0.34255

> <r_i_glide_lipo>
-2.03868

> <r_i_glide_metal>
0

> <r_i_glide_rewards>
-0.141976

> <s_i_glide_gridfile>
wee1_glide-grid

> <s_m_Source_File>
wee1_decoys_glide_SP.sdf

> <s_m_Source_Path>
/Users/zhangxujun/Desktop

> <s_m_entry_id>
643

> <s_m_entry_name>
wee1_decoys_glide_SP.368

> <s_m_subgroup_title>
wee1_decoys_glide_SP

> <s_m_subgroupid>
wee1_decoys_glide_SP


$$$$
