@<TRIPOS>MOLECULE
ZINC38547000_581
54   57    1
SMALL
USER_CHARGES


@<TRIPOS>ATOM
      1 C1          2.3043   48.6793   21.0420 C.3       1 UNK         0.0000 
      2 C2          1.9436   50.0256   21.6318 C.ar      1 UNK         0.0000 
      3 C3          1.9441   51.1907   20.8630 C.ar      1 UNK         0.0000 
      4 C4          1.5112   52.3855   21.4372 C.ar      1 UNK         0.0000 
      5 C5          1.0760   52.3997   22.7640 C.ar      1 UNK         0.0000 
      6 C6          1.1111   51.2174   23.5201 C.ar      1 UNK         0.0000 
      7 N7          1.5529   50.0886   22.9235 N.pl3     1 UNK         0.0000 
      8 N8          0.7045   51.1297   24.8822 N.pl3     1 UNK         0.0000 
      9 C9         -0.0579   52.1548   25.6134 C.3       1 UNK         0.0000 
     10 H10         0.0797   53.0852   25.0702 H         1 UNK         0.0000 
     11 C11        -1.5524   51.8278   25.5344 C.ar      1 UNK         0.0000 
     12 C12        -2.0762   50.7104   26.1933 C.ar      1 UNK         0.0000 
     13 C13        -3.4338   50.4172   26.1117 C.ar      1 UNK         0.0000 
     14 C14        -4.2829   51.2297   25.3525 C.ar      1 UNK         0.0000 
     15 C15        -3.7545   52.3302   24.6698 C.ar      1 UNK         0.0000 
     16 C16        -2.3959   52.6209   24.7525 C.ar      1 UNK         0.0000 
     17 C17        -5.7781   50.9265   25.2597 C.3       1 UNK         0.0000 
     18 F18        -6.1948   50.1562   26.2669 F         1 UNK         0.0000 
     19 F19        -6.4906   52.0545   25.2801 F         1 UNK         0.0000 
     20 F20        -6.0203   50.2902   24.1138 F         1 UNK         0.0000 
     21 C21         0.5112   52.4563   27.0081 C.2       1 UNK         0.0000 
     22 C22        -0.1703   52.2785   28.2288 C.2       1 UNK         0.0000 
     23 C23         0.5145   52.6338   29.3819 C.2       1 UNK         0.0000 
     24 S24         2.0775   53.2361   28.9602 S.3       1 UNK         0.0000 
     25 C25         1.7750   53.0143   27.2512 C.2       1 UNK         0.0000 
     26 N26         2.7065   53.3497   26.2678 N.am      1 UNK         0.0000 
     27 C27         3.8750   54.0200   26.4092 C.2       1 UNK         0.0000 
     28 O28         4.3160   54.4968   27.4554 O.2       1 UNK         0.0000 
     29 C29         4.6295   54.1133   25.1863 C.2       1 UNK         0.0000 
     30 C30         4.2522   54.0967   23.8439 C.2       1 UNK         0.0000 
     31 C31         5.4178   54.2521   23.0908 C.2       1 UNK         0.0000 
     32 C32         6.4440   54.4412   23.9993 C.2       1 UNK         0.0000 
     33 O33         5.9631   54.3817   25.2679 O.3       1 UNK         0.0000 
     34 C34         0.0535   52.5599   30.8138 C.3       1 UNK         0.0000 
     35 H35         2.7879   48.7909   20.0701 H         1 UNK         0.0000 
     36 H36         2.9751   48.1225   21.6966 H         1 UNK         0.0000 
     37 H37         1.3987   48.0965   20.8814 H         1 UNK         0.0000 
     38 H38         2.2595   51.1706   19.8281 H         1 UNK         0.0000 
     39 H39         1.5031   53.2925   20.8538 H         1 UNK         0.0000 
     40 H40         0.7371   53.3373   23.1729 H         1 UNK         0.0000 
     41 H41         0.7622   50.2291   25.3372 H         1 UNK         0.0000 
     42 H42        -1.4362   50.0705   26.7857 H         1 UNK         0.0000 
     43 H43        -3.8122   49.5556   26.6446 H         1 UNK         0.0000 
     44 H44        -4.3981   52.9614   24.0737 H         1 UNK         0.0000 
     45 H45        -2.0046   53.4698   24.2121 H         1 UNK         0.0000 
     46 H46        -1.1741   51.8891   28.2955 H         1 UNK         0.0000 
     47 H47         2.4724   53.0576   25.3327 H         1 UNK         0.0000 
     48 H48         3.2565   53.9659   23.4515 H         1 UNK         0.0000 
     49 H49         5.4982   54.2599   22.0133 H         1 UNK         0.0000 
     50 H50         7.5041   54.6236   23.8967 H         1 UNK         0.0000 
     51 H51        -0.8953   52.0266   30.8828 H         1 UNK         0.0000 
     52 H52         0.7638   52.0353   31.4525 H         1 UNK         0.0000 
     53 H53        -0.0961   53.5489   31.2466 H         1 UNK         0.0000 
     54 H54         1.5836   49.2391   23.4711 H         1 UNK         0.0000 
@<TRIPOS>BOND
     1    1    2 1    
     2    1   35 1    
     3    1   36 1    
     4    1   37 1    
     5    2    7 ar   
     6    2    3 ar   
     7    3    4 ar   
     8    3   38 1    
     9    4    5 ar   
    10    4   39 1    
    11    5    6 ar   
    12    5   40 1    
    13    6    7 ar   
    14    6    8 1    
    15    7   54 1    
    16    8    9 1    
    17    8   41 1    
    18    9   10 1    
    19    9   11 1    
    20    9   21 1    
    21   11   16 ar   
    22   11   12 ar   
    23   12   13 ar   
    24   12   42 1    
    25   13   14 ar   
    26   13   43 1    
    27   14   15 ar   
    28   14   17 1    
    29   15   16 ar   
    30   15   44 1    
    31   16   45 1    
    32   17   18 1    
    33   17   19 1    
    34   17   20 1    
    35   21   25 2    
    36   21   22 1    
    37   22   23 2    
    38   22   46 1    
    39   23   24 1    
    40   23   34 1    
    41   24   25 1    
    42   25   26 am   BACKBONE|DICT|INTERRES
    43   26   27 am   BACKBONE|DICT|INTERRES
    44   26   47 1    
    45   27   28 2    
    46   27   29 1    
    47   29   33 1    
    48   29   30 2    
    49   30   31 1    
    50   30   48 1    
    51   31   32 2    
    52   31   49 1    
    53   32   33 1    
    54   32   50 1    
    55   34   51 1    
    56   34   52 1    
    57   34   53 1    
@<TRIPOS>SUBSTRUCTURE
     1 UNK         1 GROUP             0       ****    0 ROOT    
