@<TRIPOS>MOLECULE
ZINC26405847_1492
53   55    1
SMALL
USER_CHARGES


@<TRIPOS>ATOM
      1 C1          0.2130   48.9763   25.6482 C.3       1 UNK         0.0000 
      2 C2         -0.0857   50.4263   25.1900 C.3       1 UNK         0.0000 
      3 C3         -1.5611   50.4812   24.7237 C.3       1 UNK         0.0000 
      4 C4          0.0715   51.3437   26.4279 C.3       1 UNK         0.0000 
      5 C5          0.9050   50.8653   24.0490 C.3       1 UNK         0.0000 
      6 C6          0.6682   52.3076   23.5013 C.3       1 UNK         0.0000 
      7 C7          1.7145   52.6994   22.4342 C.3       1 UNK         0.0000 
      8 C8          1.6886   51.6921   21.2560 C.3       1 UNK         0.0000 
      9 C9          2.0579   50.2990   21.8255 C.3       1 UNK         0.0000 
     10 C10         1.0218   49.8500   22.8707 C.3       1 UNK         0.0000 
     11 C11         2.7061   52.0581   20.1893 C.2       1 UNK         0.0000 
     12 O12         3.9208   52.1995   20.3606 O.2       1 UNK         0.0000 
     13 N13         1.9998   52.1096   19.0342 N.am      1 UNK         0.0000 
     14 C14         0.6549   52.0123   19.1990 C.2       1 UNK         0.0000 
     15 O15        -0.2354   52.3401   18.4162 O.2       1 UNK         0.0000 
     16 N16         0.4776   51.7016   20.4832 N.am      1 UNK         0.0000 
     17 C17         2.6151   52.2700   17.7039 C.3       1 UNK         0.0000 
     18 C18         3.0078   53.7353   17.4698 C.2       1 UNK         0.0000 
     19 O19         2.2392   54.4649   16.8433 O.2       1 UNK         0.0000 
     20 N20         4.1970   54.1106   17.9863 N.am      1 UNK         0.0000 
     21 C21         4.7690   55.3715   17.9390 C.ar      1 UNK         0.0000 
     22 C22         5.9348   55.7175   18.6379 C.ar      1 UNK         0.0000 
     23 C23         6.1903   57.0377   18.3153 C.ar      1 UNK         0.0000 
     24 N24         5.1838   57.3906   17.4557 N.pl3     1 UNK         0.0000 
     25 N25         4.3161   56.3965   17.2384 N.2       1 UNK         0.0000 
     26 C26         4.9654   58.6730   16.8159 C.3       1 UNK         0.0000 
     27 H27        -0.4229   48.6869   26.4817 H         1 UNK         0.0000 
     28 H28         1.2481   48.8535   25.9701 H         1 UNK         0.0000 
     29 H29         0.0179   48.2390   24.8718 H         1 UNK         0.0000 
     30 H30        -1.8783   51.4934   24.4731 H         1 UNK         0.0000 
     31 H31        -1.7367   49.8571   23.8481 H         1 UNK         0.0000 
     32 H32        -2.2375   50.1261   25.5041 H         1 UNK         0.0000 
     33 H33        -0.2505   52.3652   26.2286 H         1 UNK         0.0000 
     34 H34        -0.5278   50.9857   27.2677 H         1 UNK         0.0000 
     35 H35         1.1065   51.3841   26.7719 H         1 UNK         0.0000 
     36 H36         1.9039   50.9230   24.4799 H         1 UNK         0.0000 
     37 H37        -0.3361   52.3951   23.0858 H         1 UNK         0.0000 
     38 H38         0.7025   53.0341   24.3127 H         1 UNK         0.0000 
     39 H39         1.4400   53.6920   22.0700 H         1 UNK         0.0000 
     40 H40         2.7185   52.8248   22.8442 H         1 UNK         0.0000 
     41 H41         3.0846   50.2626   22.1990 H         1 UNK         0.0000 
     42 H42         2.0315   49.5573   21.0241 H         1 UNK         0.0000 
     43 H43         1.3258   48.8723   23.2401 H         1 UNK         0.0000 
     44 H44         0.0493   49.6916   22.4036 H         1 UNK         0.0000 
     45 H45        -0.3622   51.2622   20.8314 H         1 UNK         0.0000 
     46 H46         3.5071   51.6443   17.6457 H         1 UNK         0.0000 
     47 H47         1.9736   51.9208   16.8943 H         1 UNK         0.0000 
     48 H48         4.6958   53.4153   18.5228 H         1 UNK         0.0000 
     49 H49         6.5160   55.0791   19.2882 H         1 UNK         0.0000 
     50 H50         6.9653   57.7365   18.5947 H         1 UNK         0.0000 
     51 H51         5.8506   59.2964   16.9346 H         1 UNK         0.0000 
     52 H52         4.7711   58.5329   15.7507 H         1 UNK         0.0000 
     53 H53         4.1130   59.1718   17.2801 H         1 UNK         0.0000 
@<TRIPOS>BOND
     1    1    2 1    
     2    1   27 1    
     3    1   28 1    
     4    1   29 1    
     5    2    3 1    
     6    2    4 1    
     7    2    5 1    
     8    3   30 1    
     9    3   31 1    
    10    3   32 1    
    11    4   33 1    
    12    4   34 1    
    13    4   35 1    
    14    5   10 1    
    15    5    6 1    
    16    5   36 1    
    17    6    7 1    
    18    6   37 1    
    19    6   38 1    
    20    7    8 1    
    21    7   39 1    
    22    7   40 1    
    23    8   16 1    
    24    8    9 1    
    25    8   11 1    
    26    9   10 1    
    27    9   41 1    
    28    9   42 1    
    29   10   43 1    
    30   10   44 1    
    31   11   12 2    
    32   11   13 am   BACKBONE|DICT|INTERRES
    33   13   14 am   BACKBONE|DICT|INTERRES
    34   13   17 1    
    35   14   15 2    
    36   14   16 am   BACKBONE|DICT|INTERRES
    37   16   45 1    
    38   17   18 1    
    39   17   46 1    
    40   17   47 1    
    41   18   19 2    
    42   18   20 am   BACKBONE|DICT|INTERRES
    43   20   21 1    
    44   20   48 1    
    45   21   25 ar   
    46   21   22 ar   
    47   22   23 ar   
    48   22   49 1    
    49   23   24 ar   
    50   23   50 1    
    51   24   25 ar   
    52   24   26 1    
    53   26   51 1    
    54   26   52 1    
    55   26   53 1    
@<TRIPOS>SUBSTRUCTURE
     1 UNK         1 GROUP             0       ****    0 ROOT    
