@<TRIPOS>MOLECULE
ZINC16094811_2096
39   40    1
SMALL
USER_CHARGES


@<TRIPOS>ATOM
      1 C1          6.9647   55.7298   24.9062 C.3       1 UNK         0.0000 
      2 O2          6.7033   55.2958   26.2385 O.3       1 UNK         0.0000 
      3 C3          5.4903   54.6873   26.5048 C.ar      1 UNK         0.0000 
      4 C4          4.4942   54.4856   25.5406 C.ar      1 UNK         0.0000 
      5 C5          3.2985   53.8181   25.8388 C.ar      1 UNK         0.0000 
      6 C6          3.0903   53.4052   27.1635 C.ar      1 UNK         0.0000 
      7 C7          4.0584   53.6224   28.1592 C.ar      1 UNK         0.0000 
      8 C8          5.2521   54.2558   27.8089 C.ar      1 UNK         0.0000 
      9 O9          3.9182   53.2416   29.4808 O.3       1 UNK         0.0000 
     10 C10         2.7409   52.5485   29.8827 C.3       1 UNK         0.0000 
     11 C11         2.2652   53.5191   24.7668 C.2       1 UNK         0.0000 
     12 O12         1.2293   52.9122   25.0508 O.2       1 UNK         0.0000 
     13 N13         2.5487   53.9456   23.5173 N.am      1 UNK         0.0000 
     14 N14         1.7803   53.5871   22.4280 N.pl3     1 UNK         0.0000 
     15 S15         2.4849   52.4134   21.2993 S.o2      1 UNK         0.0000 
     16 O16         3.1062   51.3384   22.0772 O.2       1 UNK         0.0000 
     17 O17         1.4221   52.0951   20.3391 O.2       1 UNK         0.0000 
     18 C18         3.7770   53.2968   20.3725 C.ar      1 UNK         0.0000 
     19 C19         3.5045   53.6628   19.0464 C.ar      1 UNK         0.0000 
     20 C20         4.3888   54.4552   18.3176 C.ar      1 UNK         0.0000 
     21 C21         5.5759   54.8848   18.9008 C.ar      1 UNK         0.0000 
     22 C22         5.8843   54.4967   20.2011 C.ar      1 UNK         0.0000 
     23 C23         5.0110   53.6793   20.9262 C.ar      1 UNK         0.0000 
     24 Br24        5.5929   53.0759   22.6301 Br        1 UNK         0.0000 
     25 Br25        3.9578   54.9741   16.5386 Br        1 UNK         0.0000 
     26 H26         7.9046   56.2602   24.8715 H         1 UNK         0.0000 
     27 H27         7.0471   54.8895   24.2187 H         1 UNK         0.0000 
     28 H28         6.2136   56.4341   24.5452 H         1 UNK         0.0000 
     29 H29         4.6663   54.8368   24.5391 H         1 UNK         0.0000 
     30 H30         2.1700   52.8964   27.4104 H         1 UNK         0.0000 
     31 H31         6.0080   54.4175   28.5641 H         1 UNK         0.0000 
     32 H32         2.8065   52.3120   30.9453 H         1 UNK         0.0000 
     33 H33         2.6246   51.6077   29.3413 H         1 UNK         0.0000 
     34 H34         1.8474   53.1577   29.7362 H         1 UNK         0.0000 
     35 H35         3.3660   54.4988   23.3067 H         1 UNK         0.0000 
     36 H36         1.4117   54.4144   21.9475 H         1 UNK         0.0000 
     37 H37         2.5731   53.3739   18.5812 H         1 UNK         0.0000 
     38 H38         6.2609   55.5038   18.3400 H         1 UNK         0.0000 
     39 H39         6.8216   54.8081   20.6376 H         1 UNK         0.0000 
@<TRIPOS>BOND
     1    1    2 1    
     2    1   26 1    
     3    1   27 1    
     4    1   28 1    
     5    2    3 1    
     6    3    8 ar   
     7    3    4 ar   
     8    4    5 ar   
     9    4   29 1    
    10    5    6 ar   
    11    5   11 1    
    12    6    7 ar   
    13    6   30 1    
    14    7    8 ar   
    15    7    9 1    
    16    8   31 1    
    17    9   10 1    
    18   10   32 1    
    19   10   33 1    
    20   10   34 1    
    21   11   12 2    
    22   11   13 am   BACKBONE|DICT|INTERRES
    23   13   14 1    
    24   13   35 1    
    25   14   15 1    
    26   14   36 1    
    27   15   16 2    
    28   15   17 2    
    29   15   18 1    
    30   18   23 ar   
    31   18   19 ar   
    32   19   20 ar   
    33   19   37 1    
    34   20   21 ar   
    35   20   25 1    
    36   21   22 ar   
    37   21   38 1    
    38   22   23 ar   
    39   22   39 1    
    40   23   24 1    
@<TRIPOS>SUBSTRUCTURE
     1 UNK         1 GROUP             0       ****    0 ROOT    
