@<TRIPOS>MOLECULE
ZINC57352567_3954
44   48    1
SMALL
USER_CHARGES


@<TRIPOS>ATOM
      1 C1          3.6581   57.1096   15.2682 C.3       1 UNK         0.0000 
      2 O2          3.5806   56.1465   16.3146 O.3       1 UNK         0.0000 
      3 C3          4.5003   56.1924   17.3429 C.ar      1 UNK         0.0000 
      4 C4          5.5711   57.0994   17.4054 C.ar      1 UNK         0.0000 
      5 C5          6.4642   57.1232   18.4787 C.ar      1 UNK         0.0000 
      6 C6          6.2554   56.2139   19.5393 C.ar      1 UNK         0.0000 
      7 C7          5.1709   55.2968   19.4716 C.ar      1 UNK         0.0000 
      8 C8          4.3055   55.2705   18.3717 C.ar      1 UNK         0.0000 
      9 S9          5.1048   54.3666   20.9584 S.3       1 UNK         0.0000 
     10 C10         6.4814   55.2966   21.5328 C.2       1 UNK         0.0000 
     11 N11         6.9861   56.1492   20.6908 N.2       1 UNK         0.0000 
     12 N12         7.0127   55.1310   22.7868 N.pl3     1 UNK         0.0000 
     13 C13         6.3423   54.7961   23.9359 C.2       1 UNK         0.0000 
     14 N14         5.0711   54.4965   24.1273 N.2       1 UNK         0.0000 
     15 C15         4.9756   54.3471   25.4833 C.ar      1 UNK         0.0000 
     16 C16         3.8888   54.0305   26.3132 C.ar      1 UNK         0.0000 
     17 C17         4.0988   53.9257   27.7035 C.ar      1 UNK         0.0000 
     18 C18         5.3852   54.1647   28.2212 C.ar      1 UNK         0.0000 
     19 C19         6.4778   54.4919   27.4211 C.ar      1 UNK         0.0000 
     20 C20         6.2323   54.5680   26.0562 C.ar      1 UNK         0.0000 
     21 O21         7.1044   54.8656   25.0633 O.3       1 UNK         0.0000 
     22 C22         2.9762   53.5664   28.6279 C.ar      1 UNK         0.0000 
     23 C23         3.2153   52.8208   29.7939 C.ar      1 UNK         0.0000 
     24 C24         2.1752   52.4968   30.6619 C.ar      1 UNK         0.0000 
     25 C25         0.8782   52.9061   30.3705 C.ar      1 UNK         0.0000 
     26 C26         0.6173   53.6419   29.2184 C.ar      1 UNK         0.0000 
     27 C27         1.6607   53.9705   28.3555 C.ar      1 UNK         0.0000 
     28 N28         7.5027   58.0613   18.4750 N.pl3     1 UNK         0.0000 
     29 H29         2.8393   56.9450   14.5670 H         1 UNK         0.0000 
     30 H30         3.5641   58.1281   15.6506 H         1 UNK         0.0000 
     31 H31         4.5912   57.0202   14.7092 H         1 UNK         0.0000 
     32 H32         5.7206   57.8132   16.6094 H         1 UNK         0.0000 
     33 H33         3.4709   54.5840   18.3365 H         1 UNK         0.0000 
     34 H34         7.9997   55.3337   22.9037 H         1 UNK         0.0000 
     35 H35         2.9205   53.8407   25.8769 H         1 UNK         0.0000 
     36 H36         5.5540   54.1132   29.2819 H         1 UNK         0.0000 
     37 H37         7.4558   54.6761   27.8389 H         1 UNK         0.0000 
     38 H38         4.2118   52.4781   30.0317 H         1 UNK         0.0000 
     39 H39         2.3683   51.9302   31.5620 H         1 UNK         0.0000 
     40 H40         0.0696   52.6488   31.0428 H         1 UNK         0.0000 
     41 H41        -0.3909   53.9582   28.9959 H         1 UNK         0.0000 
     42 H42         1.4401   54.5530   27.4736 H         1 UNK         0.0000 
     43 H43         8.2718   57.9594   19.1244 H         1 UNK         0.0000 
     44 H44         7.5361   58.7560   17.7397 H         1 UNK         0.0000 
@<TRIPOS>BOND
     1    1    2 1    
     2    1   29 1    
     3    1   30 1    
     4    1   31 1    
     5    2    3 1    
     6    3    8 ar   
     7    3    4 ar   
     8    4    5 ar   
     9    4   32 1    
    10    5    6 ar   
    11    5   28 1    
    12    6   11 1    
    13    6    7 ar   
    14    7    8 ar   
    15    7    9 1    
    16    8   33 1    
    17    9   10 1    
    18   10   11 2    
    19   10   12 1    
    20   12   13 1    
    21   12   34 1    
    22   13   21 1    
    23   13   14 2    
    24   14   15 1    
    25   15   20 ar   
    26   15   16 ar   
    27   16   17 ar   
    28   16   35 1    
    29   17   18 ar   
    30   17   22 1    
    31   18   19 ar   
    32   18   36 1    
    33   19   20 ar   
    34   19   37 1    
    35   20   21 1    
    36   22   27 ar   
    37   22   23 ar   
    38   23   24 ar   
    39   23   38 1    
    40   24   25 ar   
    41   24   39 1    
    42   25   26 ar   
    43   25   40 1    
    44   26   27 ar   
    45   26   41 1    
    46   27   42 1    
    47   28   43 1    
    48   28   44 1    
@<TRIPOS>SUBSTRUCTURE
     1 UNK         1 GROUP             0       ****    0 ROOT    
