ZINC22506141_5822
                    3D
 Schrodinger Suite 2024-2.
 68 70  0  0  1  0            999 V2000
    6.3332   57.9203   16.4280 C   0  0  0  0  0  0
    5.6337   57.3269   17.6754 C   0  0  1  0  0  0
    5.5043   58.2196   18.2906 H   0  0  0  0  0  0
    4.1796   56.8252   17.4010 C   0  0  0  0  0  0
    3.9791   55.3749   16.8947 C   0  0  0  0  0  0
    4.2872   55.1392   15.4025 C   0  0  0  0  0  0
    4.0858   53.6753   14.9486 C   0  0  0  0  0  0
    5.0571   52.6500   15.5773 C   0  0  0  0  0  0
    6.5269   52.7941   15.1168 C   0  0  0  0  0  0
    7.5803   52.5229   16.2133 C   0  0  0  0  0  0
    7.6213   53.5345   17.3808 C   0  0  0  0  0  0
    7.9910   54.9775   16.9807 C   0  0  0  0  0  0
    7.9156   56.0227   18.1248 C   0  0  0  0  0  0
    6.4658   56.3706   18.5779 C   0  0  0  0  0  0
    5.8863   55.9666   19.6545 N   0  0  0  0  0  0
    6.5782   55.2972   20.5562 N   0  5  0  0  0  0
    5.9044   54.8244   21.5237 C   0  0  0  0  0  0
    4.6750   54.5521   21.7178 N   0  0  0  0  0  0
    4.3839   54.0967   22.9822 C   0  0  0  0  0  0
    3.2552   53.8278   23.3910 O   0  0  0  0  0  0
    5.6166   53.9615   23.8811 C   0  0  1  0  0  0
    5.8032   52.9097   24.0799 H   0  0  0  0  0  0
    6.9921   54.4966   22.8819 S   0  0  0  0  0  0
    5.5802   54.8119   25.1811 C   0  0  0  0  0  0
    4.9908   54.0980   26.4039 C   0  0  0  0  0  0
    5.7486   53.7620   27.3147 O   0  0  0  0  0  0
    3.6574   53.8928   26.3794 N   0  0  0  0  0  0
    2.8287   53.3083   27.3559 C   0  0  0  0  0  0
    1.5253   53.0002   26.9575 C   0  0  0  0  0  0
    0.6286   52.4262   27.8567 C   0  0  0  0  0  0
    1.0309   52.1515   29.1623 C   0  0  0  0  0  0
    2.3303   52.4365   29.5838 C   0  0  0  0  0  0
    3.2216   53.0325   28.6771 C   0  0  0  0  0  0
    2.6512   52.0969   30.8832 O   0  0  0  0  0  0
    4.0006   52.2085   31.3175 C   0  0  0  0  0  0
    7.2249   58.4859   16.6990 H   0  0  0  0  0  0
    6.6155   57.1856   15.6815 H   0  0  0  0  0  0
    5.6711   58.6285   15.9263 H   0  0  0  0  0  0
    3.6367   56.8959   18.3417 H   0  0  0  0  0  0
    3.6626   57.5221   16.7401 H   0  0  0  0  0  0
    2.9381   55.0993   17.0702 H   0  0  0  0  0  0
    4.5546   54.6912   17.5167 H   0  0  0  0  0  0
    5.3005   55.4547   15.1697 H   0  0  0  0  0  0
    3.6382   55.7814   14.8053 H   0  0  0  0  0  0
    4.1712   53.6230   13.8628 H   0  0  0  0  0  0
    3.0620   53.3744   15.1743 H   0  0  0  0  0  0
    4.7139   51.6464   15.3223 H   0  0  0  0  0  0
    4.9796   52.6850   16.6629 H   0  0  0  0  0  0
    6.7106   53.7718   14.6742 H   0  0  0  0  0  0
    6.6977   52.0949   14.2961 H   0  0  0  0  0  0
    8.5672   52.4895   15.7500 H   0  0  0  0  0  0
    7.4145   51.5242   16.6211 H   0  0  0  0  0  0
    8.3789   53.1934   18.0817 H   0  0  0  0  0  0
    6.6779   53.5187   17.9263 H   0  0  0  0  0  0
    7.3645   55.2838   16.1518 H   0  0  0  0  0  0
    9.0050   54.9776   16.5788 H   0  0  0  0  0  0
    8.4260   56.9336   17.8157 H   0  0  0  0  0  0
    8.5257   55.6668   18.9552 H   0  0  0  0  0  0
    5.1005   55.7755   25.0282 H   0  0  0  0  0  0
    6.6017   55.0820   25.4566 H   0  0  0  0  0  0
    3.1980   54.1081   25.5031 H   0  0  0  0  0  0
    1.1995   53.2020   25.9467 H   0  0  0  0  0  0
   -0.3769   52.1863   27.5430 H   0  0  0  0  0  0
    0.3336   51.6970   29.8517 H   0  0  0  0  0  0
    4.2144   53.2794   29.0084 H   0  0  0  0  0  0
    4.0939   51.7583   32.3036 H   0  0  0  0  0  0
    4.6945   51.6951   30.6509 H   0  0  0  0  0  0
    4.3040   53.2515   31.3945 H   0  0  0  0  0  0
  1  2  1  0  0  0
  1 36  1  0  0  0
  1 37  1  0  0  0
  1 38  1  0  0  0
  2  3  1  0  0  0
  2 14  1  0  0  0
  2  4  1  0  0  0
  4  5  1  0  0  0
  4 39  1  0  0  0
  4 40  1  0  0  0
  5  6  1  0  0  0
  5 41  1  0  0  0
  5 42  1  0  0  0
  6  7  1  0  0  0
  6 43  1  0  0  0
  6 44  1  0  0  0
  7  8  1  0  0  0
  7 45  1  0  0  0
  7 46  1  0  0  0
  8  9  1  0  0  0
  8 47  1  0  0  0
  8 48  1  0  0  0
  9 10  1  0  0  0
  9 49  1  0  0  0
  9 50  1  0  0  0
 10 11  1  0  0  0
 10 51  1  0  0  0
 10 52  1  0  0  0
 11 12  1  0  0  0
 11 53  1  0  0  0
 11 54  1  0  0  0
 12 13  1  0  0  0
 12 55  1  0  0  0
 12 56  1  0  0  0
 13 14  1  0  0  0
 13 57  1  0  0  0
 13 58  1  0  0  0
 14 15  2  0  0  0
 15 16  1  0  0  0
 16 17  1  0  0  0
 17 23  1  0  0  0
 17 18  2  0  0  0
 18 19  1  0  0  0
 19 20  2  0  0  0
 19 21  1  0  0  0
 21 22  1  0  0  0
 21 23  1  0  0  0
 21 24  1  0  0  0
 24 25  1  0  0  0
 24 59  1  0  0  0
 24 60  1  0  0  0
 25 26  2  0  0  0
 25 27  1  0  0  0
 27 28  1  0  0  0
 27 61  1  0  0  0
 28 33  2  0  0  0
 28 29  1  0  0  0
 29 30  2  0  0  0
 29 62  1  0  0  0
 30 31  1  0  0  0
 30 63  1  0  0  0
 31 32  2  0  0  0
 31 64  1  0  0  0
 32 33  1  0  0  0
 32 34  1  0  0  0
 33 65  1  0  0  0
 34 35  1  0  0  0
 35 66  1  0  0  0
 35 67  1  0  0  0
 35 68  1  0  0  0
M  CHG  1  16  -1
M  END
> <i_i_glide_confnum>
142

> <i_i_glide_lignum>
5823

> <i_i_glide_posenum>
321

> <i_i_glide_rotatable_bonds>
7

> <i_m_Source_File_Index>
3843

> <b_m_subgroup_collapsed>
0

> <r_i_docking_score>
-4.79865

> <r_i_glide_ecoul>
0.610544

> <r_i_glide_eff_state_penalty>
0

> <r_i_glide_einternal>
9.439

> <r_i_glide_emodel>
-49.1005

> <r_i_glide_energy>
-39.5669

> <r_i_glide_erotb>
0.545243

> <r_i_glide_esite>
0

> <r_i_glide_evdw>
-40.1774

> <r_i_glide_gscore>
-4.79865

> <r_i_glide_hbond>
-0.32

> <r_i_glide_ligand_efficiency>
-0.145413

> <r_i_glide_ligand_efficiency_ln>
-1.06719

> <r_i_glide_ligand_efficiency_sa>
-0.466419

> <r_i_glide_lipo>
-1.92283

> <r_i_glide_metal>
0

> <r_i_glide_rewards>
-1.18376

> <s_i_glide_gridfile>
wee1_glide-grid

> <s_m_Source_File>
wee1_decoys_glide_SP.sdf

> <s_m_Source_Path>
/Users/zhangxujun/Desktop

> <s_m_entry_id>
4118

> <s_m_entry_name>
wee1_decoys_glide_SP.3843

> <s_m_subgroup_title>
wee1_decoys_glide_SP

> <s_m_subgroupid>
wee1_decoys_glide_SP


$$$$
