ZINC10316680_2699
                    3D
 Schrodinger Suite 2024-2.
 55 58  0  0  1  0            999 V2000
    0.6994   54.0882   30.7887 C   0  0  0  0  0  0
   -0.0953   52.9493   30.7022 C   0  0  0  0  0  0
   -0.1816   52.2301   29.5100 C   0  0  0  0  0  0
    0.5683   52.6417   28.4141 C   0  0  0  0  0  0
    1.4067   53.7447   28.5203 C   0  0  0  0  0  0
    1.4698   54.4885   29.7013 C   0  0  0  0  0  0
    2.2761   54.0965   27.3450 C   0  0  0  0  0  0
    3.1039   54.9998   27.4407 O   0  0  0  0  0  0
    2.0522   53.3291   26.2078 N   0  0  0  0  0  0
    1.1271   52.2651   26.1774 C   0  0  0  0  0  0
    0.4557   51.9350   27.2228 N   0  0  0  0  0  0
    0.8568   51.2128   24.6989 S   0  0  0  0  0  0
   -0.3881   49.9864   25.2424 C   0  0  0  0  0  0
   -1.8000   50.5588   25.4040 C   0  0  0  0  0  0
   -2.2381   51.3669   24.5791 O   0  0  0  0  0  0
   -2.4675   50.0974   26.4822 N   0  0  0  0  0  0
   -3.6266   50.5457   27.0047 C   0  0  0  0  0  0
   -4.3574   51.4240   26.5412 O   0  0  0  0  0  0
   -3.9030   49.8624   28.1268 N   0  0  0  0  0  0
   -5.1403   49.9128   28.9064 C   0  0  0  0  0  0
   -5.3535   48.6315   29.7464 C   0  0  0  0  0  0
   -6.6298   48.6561   30.6057 C   0  0  0  0  0  0
   -6.7270   49.9297   31.4644 C   0  0  0  0  0  0
   -6.6207   51.1944   30.5951 C   0  0  0  0  0  0
   -5.3365   51.2067   29.7435 C   0  0  0  0  0  0
    2.8007   53.6993   25.0292 C   0  0  0  0  0  0
    2.1272   53.9013   23.8088 C   0  0  0  0  0  0
    2.8297   54.0942   22.6213 C   0  0  0  0  0  0
    4.2161   54.1822   22.6307 C   0  0  0  0  0  0
    4.9014   54.0964   23.8372 C   0  0  0  0  0  0
    4.2118   53.8411   25.0227 C   0  0  0  0  0  0
    4.9539   53.6943   26.1449 F   0  0  0  0  0  0
    0.7052   54.6597   31.7061 H   0  0  0  0  0  0
   -0.6541   52.6399   31.5646 H   0  0  0  0  0  0
   -0.8208   51.3613   29.4367 H   0  0  0  0  0  0
    2.0961   55.3642   29.7815 H   0  0  0  0  0  0
   -0.0482   49.5271   26.1706 H   0  0  0  0  0  0
   -0.4245   49.1904   24.5037 H   0  0  0  0  0  0
   -1.9924   49.3957   27.0460 H   0  0  0  0  0  0
   -3.1542   49.2989   28.5233 H   0  0  0  0  0  0
   -5.9575   49.9110   28.1799 H   0  0  0  0  0  0
   -4.5007   48.5096   30.4200 H   0  0  0  0  0  0
   -5.3697   47.7540   29.0981 H   0  0  0  0  0  0
   -6.6625   47.7728   31.2441 H   0  0  0  0  0  0
   -7.5074   48.5911   29.9568 H   0  0  0  0  0  0
   -5.9332   49.9267   32.2134 H   0  0  0  0  0  0
   -7.6699   49.9341   32.0152 H   0  0  0  0  0  0
   -6.6566   52.0816   31.2284 H   0  0  0  0  0  0
   -7.4906   51.2562   29.9399 H   0  0  0  0  0  0
   -5.3335   52.0952   29.1080 H   0  0  0  0  0  0
   -4.4911   51.2980   30.4268 H   0  0  0  0  0  0
    1.0505   53.8461   23.7601 H   0  0  0  0  0  0
    2.3015   54.1431   21.6824 H   0  0  0  0  0  0
    4.7537   54.3324   21.7031 H   0  0  0  0  0  0
    5.9799   54.1673   23.8485 H   0  0  0  0  0  0
  1  6  2  0  0  0
  1  2  1  0  0  0
  1 33  1  0  0  0
  2  3  2  0  0  0
  2 34  1  0  0  0
  3  4  1  0  0  0
  3 35  1  0  0  0
  4 11  1  0  0  0
  4  5  2  0  0  0
  5  6  1  0  0  0
  5  7  1  0  0  0
  6 36  1  0  0  0
  7  8  2  0  0  0
  7  9  1  0  0  0
  9 10  1  0  0  0
  9 26  1  0  0  0
 10 11  2  0  0  0
 10 12  1  0  0  0
 12 13  1  0  0  0
 13 14  1  0  0  0
 13 37  1  0  0  0
 13 38  1  0  0  0
 14 15  2  0  0  0
 14 16  1  0  0  0
 16 17  1  0  0  0
 16 39  1  0  0  0
 17 18  2  0  0  0
 17 19  1  0  0  0
 19 20  1  0  0  0
 19 40  1  0  0  0
 20 25  1  0  0  0
 20 21  1  0  0  0
 20 41  1  0  0  0
 21 22  1  0  0  0
 21 42  1  0  0  0
 21 43  1  0  0  0
 22 23  1  0  0  0
 22 44  1  0  0  0
 22 45  1  0  0  0
 23 24  1  0  0  0
 23 46  1  0  0  0
 23 47  1  0  0  0
 24 25  1  0  0  0
 24 48  1  0  0  0
 24 49  1  0  0  0
 25 50  1  0  0  0
 25 51  1  0  0  0
 26 31  2  0  0  0
 26 27  1  0  0  0
 27 28  2  0  0  0
 27 52  1  0  0  0
 28 29  1  0  0  0
 28 53  1  0  0  0
 29 30  2  0  0  0
 29 54  1  0  0  0
 30 31  1  0  0  0
 30 55  1  0  0  0
 31 32  1  0  0  0
M  END
> <i_i_glide_confnum>
5

> <i_i_glide_lignum>
2700

> <i_i_glide_posenum>
308

> <i_i_glide_rotatable_bonds>
8

> <i_m_Source_File_Index>
2568

> <b_m_subgroup_collapsed>
0

> <r_i_docking_score>
-6.14787

> <r_i_glide_ecoul>
-10.0799

> <r_i_glide_eff_state_penalty>
0

> <r_i_glide_einternal>
3.43203

> <r_i_glide_emodel>
-59.8185

> <r_i_glide_energy>
-43.8036

> <r_i_glide_erotb>
0.680451

> <r_i_glide_esite>
-0.29568

> <r_i_glide_evdw>
-33.7237

> <r_i_glide_gscore>
-6.14787

> <r_i_glide_hbond>
-0.304

> <r_i_glide_ligand_efficiency>
-0.192121

> <r_i_glide_ligand_efficiency_ln>
-1.37668

> <r_i_glide_ligand_efficiency_sa>
-0.609946

> <r_i_glide_lipo>
-2.18759

> <r_i_glide_metal>
0

> <r_i_glide_rewards>
-0.842892

> <s_i_glide_gridfile>
wee1_glide-grid

> <s_m_Source_File>
wee1_decoys_glide_SP.sdf

> <s_m_Source_Path>
/Users/zhangxujun/Desktop

> <s_m_entry_id>
2843

> <s_m_entry_name>
wee1_decoys_glide_SP.2568

> <s_m_subgroup_title>
wee1_decoys_glide_SP

> <s_m_subgroupid>
wee1_decoys_glide_SP


$$$$
