@<TRIPOS>MOLECULE
ZINC08741095_4656
51   55    1
SMALL
USER_CHARGES


@<TRIPOS>ATOM
      1 C1          6.4898   55.2547   19.2714 C.ar      1 UNK         0.0000 
      2 C2          7.5531   55.7022   20.0494 C.ar      1 UNK         0.0000 
      3 C3          7.5038   55.6005   21.4358 C.ar      1 UNK         0.0000 
      4 C4          6.3756   55.0294   22.0748 C.ar      1 UNK         0.0000 
      5 C5          6.3079   54.8949   23.4847 C.ar      1 UNK         0.0000 
      6 C6          5.1684   54.3750   24.1085 C.ar      1 UNK         0.0000 
      7 C7          4.0868   53.9776   23.3105 C.ar      1 UNK         0.0000 
      8 C8          4.1309   54.0683   21.9226 C.ar      1 UNK         0.0000 
      9 C9          5.2765   54.5902   21.2800 C.ar      1 UNK         0.0000 
     10 C10         5.3580   54.7061   19.8691 C.ar      1 UNK         0.0000 
     11 C11         5.1307   54.2279   25.6056 C.2       1 UNK         0.0000 
     12 C12         6.1446   54.5613   26.5055 C.2       1 UNK         0.0000 
     13 S13         5.7073   54.0896   28.1160 S.3       1 UNK         0.0000 
     14 C14         4.2013   53.4999   27.4855 C.2       1 UNK         0.0000 
     15 N15         4.0703   53.6971   26.1941 N.2       1 UNK         0.0000 
     16 C16         3.1957   52.8089   28.3098 C.2       1 UNK         0.0000 
     17 C17         1.9602   52.4288   27.9200 C.2       1 UNK         0.0000 
     18 N18         1.3530   52.6019   26.6931 N.pl3     1 UNK         0.0000 
     19 C19         0.1239   52.0986   26.2436 C.ar      1 UNK         0.0000 
     20 C20        -0.6639   51.2298   27.0030 C.ar      1 UNK         0.0000 
     21 C21        -1.8854   50.7862   26.5117 C.ar      1 UNK         0.0000 
     22 C22        -2.3485   51.2250   25.2725 C.ar      1 UNK         0.0000 
     23 C23        -1.5556   52.0761   24.5000 C.ar      1 UNK         0.0000 
     24 C24        -0.3165   52.4966   24.9786 C.ar      1 UNK         0.0000 
     25 S25        -3.9676   50.7024   24.6845 S.o2      1 UNK         0.0000 
     26 O26        -4.0082   51.1330   23.2830 O.2       1 UNK         0.0000 
     27 O27        -4.0168   49.2574   24.9327 O.2       1 UNK         0.0000 
     28 N28        -4.8922   51.5858   25.6015 N.2       1 UNK         0.0000 
     29 C29        -5.3815   51.3083   26.8279 C.2       1 UNK         0.0000 
     30 N30        -6.1203   52.1410   27.5234 N.2       1 UNK         0.0000 
     31 C31        -6.4822   51.6687   28.7015 C.2       1 UNK         0.0000 
     32 C32        -6.0396   50.3926   29.0133 C.2       1 UNK         0.0000 
     33 S33        -5.1177   49.7919   27.6695 S.3       1 UNK         0.0000 
     34 C34         3.6078   52.4934   29.6404 C.1       1 UNK         0.0000 
     35 N35         3.9025   52.1879   30.7173 N.1       1 UNK         0.0000 
     36 H36         6.5418   55.3391   18.1955 H         1 UNK         0.0000 
     37 H37         8.4251   56.1269   19.5721 H         1 UNK         0.0000 
     38 H38         8.3292   55.9506   22.0353 H         1 UNK         0.0000 
     39 H39         7.1563   55.2155   24.0690 H         1 UNK         0.0000 
     40 H40         3.1942   53.5731   23.7634 H         1 UNK         0.0000 
     41 H41         3.2877   53.7476   21.3293 H         1 UNK         0.0000 
     42 H42         4.5304   54.3701   19.2588 H         1 UNK         0.0000 
     43 H43         7.1035   55.0052   26.3119 H         1 UNK         0.0000 
     44 H44         1.3256   51.9214   28.6311 H         1 UNK         0.0000 
     45 H45         1.8298   53.1622   26.0034 H         1 UNK         0.0000 
     46 H46        -0.3601   50.8648   27.9739 H         1 UNK         0.0000 
     47 H47        -2.4617   50.0969   27.1088 H         1 UNK         0.0000 
     48 H48        -1.9019   52.4130   23.5337 H         1 UNK         0.0000 
     49 H49         0.2816   53.1602   24.3716 H         1 UNK         0.0000 
     50 H50        -7.0911   52.2833   29.3482 H         1 UNK         0.0000 
     51 H51        -6.1947   49.8050   29.9053 H         1 UNK         0.0000 
@<TRIPOS>BOND
     1    1   10 ar   
     2    1    2 ar   
     3    1   36 1    
     4    2    3 ar   
     5    2   37 1    
     6    3    4 ar   
     7    3   38 1    
     8    4    9 ar   
     9    4    5 ar   
    10    5    6 ar   
    11    5   39 1    
    12    6    7 ar   
    13    6   11 1    
    14    7    8 ar   
    15    7   40 1    
    16    8    9 ar   
    17    8   41 1    
    18    9   10 ar   
    19   10   42 1    
    20   11   15 1    
    21   11   12 2    
    22   12   13 1    
    23   12   43 1    
    24   13   14 1    
    25   14   15 2    
    26   14   16 1    
    27   16   17 2    
    28   16   34 1    
    29   17   18 1    
    30   17   44 1    
    31   18   19 1    
    32   18   45 1    
    33   19   24 ar   
    34   19   20 ar   
    35   20   21 ar   
    36   20   46 1    
    37   21   22 ar   
    38   21   47 1    
    39   22   23 ar   
    40   22   25 1    
    41   23   24 ar   
    42   23   48 1    
    43   24   49 1    
    44   25   26 2    
    45   25   27 2    
    46   25   28 1    
    47   28   29 1    
    48   29   33 1    
    49   29   30 2    
    50   30   31 1    
    51   31   32 2    
    52   31   50 1    
    53   32   33 1    
    54   32   51 1    
    55   34   35 3    
@<TRIPOS>SUBSTRUCTURE
     1 UNK         1 GROUP             0       ****    0 ROOT    
