ZINC39352274_2729
                    3D
 Schrodinger Suite 2024-2.
 52 55  0  0  1  0            999 V2000
   -0.7223   48.3400   19.6594 C   0  0  0  0  0  0
   -0.4956   48.6512   21.1231 C   0  0  0  0  0  0
    0.4776   49.4549   21.3640 N   0  0  0  0  0  0
    0.8872   49.8765   22.6388 C   0  0  0  0  0  0
    1.9060   50.5167   22.8857 O   0  0  0  0  0  0
   -0.0410   49.4743   23.8385 C   0  0  1  0  0  0
    0.6219   49.0057   24.5683 H   0  0  0  0  0  0
   -0.8007   50.6720   24.5288 C   0  0  1  0  0  0
   -1.3405   51.2203   23.7529 H   0  0  0  0  0  0
   -1.9118   50.1355   25.4524 C   0  0  0  0  0  0
   -2.3695   48.8708   25.3160 C   0  0  0  0  0  0
   -1.9492   47.9935   24.3745 O   0  0  0  0  0  0
   -1.0773   48.4252   23.4375 C   0  0  0  0  0  0
   -1.2954   48.0800   22.1630 C   0  0  0  0  0  0
   -3.3148   48.2501   26.0817 N   0  0  0  0  0  0
   -2.4979   50.9959   26.4300 C   0  0  0  0  0  0
   -3.0053   51.6959   27.1977 N   0  0  0  0  0  0
    0.1353   51.7125   25.1672 C   0  0  0  0  0  0
    0.5857   52.7935   24.4030 C   0  0  0  0  0  0
    1.5036   53.6949   24.9295 C   0  0  0  0  0  0
    1.9768   53.5408   26.2324 C   0  0  0  0  0  0
    1.4685   52.5222   27.0494 C   0  0  0  0  0  0
    0.5688   51.5943   26.4962 C   0  0  0  0  0  0
    1.8969   52.4817   28.3623 O   0  0  0  0  0  0
    0.9986   51.9637   29.3363 C   0  0  0  0  0  0
    2.9211   54.4233   26.7012 O   0  0  0  0  0  0
    4.2585   53.9288   26.7052 C   0  0  0  0  0  0
    4.9725   54.2791   25.4031 C   0  0  0  0  0  0
    4.5789   53.6990   24.1914 C   0  0  0  0  0  0
    5.2386   54.0076   23.0080 C   0  0  0  0  0  0
    6.3049   54.8968   23.0384 C   0  0  0  0  0  0
    6.7078   55.4709   24.2406 C   0  0  0  0  0  0
    6.0461   55.1680   25.4240 C   0  0  0  0  0  0
    7.1069   55.3222   21.5739 Cl  0  0  0  0  0  0
   -0.8405   49.2550   19.0776 H   0  0  0  0  0  0
    0.1222   47.7886   19.2451 H   0  0  0  0  0  0
   -1.6177   47.7377   19.5103 H   0  0  0  0  0  0
   -2.1005   47.3986   21.9348 H   0  0  0  0  0  0
   -3.5432   48.6887   26.9639 H   0  0  0  0  0  0
   -3.3133   47.2430   26.1158 H   0  0  0  0  0  0
    0.2605   52.9142   23.3801 H   0  0  0  0  0  0
    1.8639   54.5102   24.3189 H   0  0  0  0  0  0
    0.2114   50.7654   27.0898 H   0  0  0  0  0  0
    0.0285   52.4642   29.2936 H   0  0  0  0  0  0
    0.8457   50.8956   29.2179 H   0  0  0  0  0  0
    1.4104   52.1268   30.3323 H   0  0  0  0  0  0
    4.7719   54.3885   27.5509 H   0  0  0  0  0  0
    4.3180   52.8547   26.8830 H   0  0  0  0  0  0
    3.7751   52.9820   24.1577 H   0  0  0  0  0  0
    4.9244   53.5582   22.0767 H   0  0  0  0  0  0
    7.5468   56.1459   24.2510 H   0  0  0  0  0  0
    6.3674   55.6205   26.3506 H   0  0  0  0  0  0
  1  2  1  0  0  0
  1 35  1  0  0  0
  1 36  1  0  0  0
  1 37  1  0  0  0
  2 14  1  0  0  0
  2  3  2  0  0  0
  3  4  1  0  0  0
  4  5  2  0  0  0
  4  6  1  0  0  0
  6  7  1  0  0  0
  6 13  1  0  0  0
  6  8  1  0  0  0
  8  9  1  0  0  0
  8 10  1  0  0  0
  8 18  1  0  0  0
 10 11  2  0  0  0
 10 16  1  0  0  0
 11 12  1  0  0  0
 11 15  1  0  0  0
 12 13  1  0  0  0
 13 14  2  0  0  0
 14 38  1  0  0  0
 15 39  1  0  0  0
 15 40  1  0  0  0
 16 17  3  0  0  0
 18 23  2  0  0  0
 18 19  1  0  0  0
 19 20  2  0  0  0
 19 41  1  0  0  0
 20 21  1  0  0  0
 20 42  1  0  0  0
 21 22  2  0  0  0
 21 26  1  0  0  0
 22 23  1  0  0  0
 22 24  1  0  0  0
 23 43  1  0  0  0
 24 25  1  0  0  0
 25 44  1  0  0  0
 25 45  1  0  0  0
 25 46  1  0  0  0
 26 27  1  0  0  0
 27 28  1  0  0  0
 27 47  1  0  0  0
 27 48  1  0  0  0
 28 33  2  0  0  0
 28 29  1  0  0  0
 29 30  2  0  0  0
 29 49  1  0  0  0
 30 31  1  0  0  0
 30 50  1  0  0  0
 31 32  2  0  0  0
 31 34  1  0  0  0
 32 33  1  0  0  0
 32 51  1  0  0  0
 33 52  1  0  0  0
M  END
> <i_i_glide_confnum>
25

> <i_i_glide_lignum>
2730

> <i_i_glide_posenum>
130

> <i_i_glide_rotatable_bonds>
6

> <i_m_Source_File_Index>
5104

> <b_m_subgroup_collapsed>
0

> <r_i_docking_score>
-5.16056

> <r_i_glide_ecoul>
-2.3601

> <r_i_glide_eff_state_penalty>
0

> <r_i_glide_einternal>
10.0789

> <r_i_glide_emodel>
-45.5577

> <r_i_glide_energy>
-37.8847

> <r_i_glide_erotb>
0.396142

> <r_i_glide_esite>
-0.147064

> <r_i_glide_evdw>
-35.5246

> <r_i_glide_gscore>
-5.16056

> <r_i_glide_hbond>
0

> <r_i_glide_ligand_efficiency>
-0.161268

> <r_i_glide_ligand_efficiency_ln>
-1.15559

> <r_i_glide_ligand_efficiency_sa>
-0.511993

> <r_i_glide_lipo>
-2.71585

> <r_i_glide_metal>
0

> <r_i_glide_rewards>
-0.563549

> <s_i_glide_gridfile>
wee1_glide-grid

> <s_m_Source_File>
wee1_decoys_glide_SP.sdf

> <s_m_Source_Path>
/Users/zhangxujun/Desktop

> <s_m_entry_id>
5379

> <s_m_entry_name>
wee1_decoys_glide_SP.5104

> <s_m_subgroup_title>
wee1_decoys_glide_SP

> <s_m_subgroupid>
wee1_decoys_glide_SP


$$$$
