@<TRIPOS>MOLECULE
ZINC13041664_1966
44   46    1
SMALL
USER_CHARGES


@<TRIPOS>ATOM
      1 C1         -0.9443   51.2981   27.7910 C.ar      1 UNK         0.0000 
      2 C2          0.1606   51.6839   28.5485 C.ar      1 UNK         0.0000 
      3 C3          1.2242   52.3907   27.9814 C.ar      1 UNK         0.0000 
      4 C4          1.1518   52.6825   26.6115 C.ar      1 UNK         0.0000 
      5 C5          0.0512   52.3026   25.8350 C.ar      1 UNK         0.0000 
      6 C6         -1.0003   51.6090   26.4358 C.ar      1 UNK         0.0000 
      7 S7         -0.0262   52.7002   24.0816 S.o2      1 UNK         0.0000 
      8 O8         -1.4247   53.1033   23.8925 O.2       1 UNK         0.0000 
      9 O9          0.9807   53.7559   23.9136 O.2       1 UNK         0.0000 
     10 N10         0.3917   51.0831   23.5413 N.2       1 UNK         0.0000 
     11 C11         0.8989   50.9387   22.3900 C.2       1 UNK         0.0000 
     12 C12         1.2001   52.0018   21.3149 C.3       1 UNK         0.0000 
     13 C13         0.8866   51.6536   19.8427 C.3       1 UNK         0.0000 
     14 C14         1.9179   50.7571   19.1465 C.3       1 UNK         0.0000 
     15 C15         1.9836   49.3157   19.6669 C.3       1 UNK         0.0000 
     16 C16         2.3043   49.1709   21.1623 C.3       1 UNK         0.0000 
     17 N17         1.2652   49.6460   22.0677 N.pl3     1 UNK         0.0000 
     18 N18         2.2808   52.7332   28.7852 N.2       1 UNK         0.0000 
     19 S19         2.8673   54.1859   28.7963 S.o2      1 UNK         0.0000 
     20 O20         3.5030   54.4960   30.0814 O.2       1 UNK         0.0000 
     21 O21         1.9602   55.1974   28.2412 O.2       1 UNK         0.0000 
     22 C22         4.2524   54.1719   27.6224 C.2       1 UNK         0.0000 
     23 C23         4.1987   54.5711   26.2897 C.2       1 UNK         0.0000 
     24 C24         5.4443   54.5289   25.6571 C.2       1 UNK         0.0000 
     25 C25         6.4516   54.0960   26.5051 C.2       1 UNK         0.0000 
     26 S26         5.8583   53.6979   28.0820 S.3       1 UNK         0.0000 
     27 H27        -1.7547   50.7529   28.2516 H         1 UNK         0.0000 
     28 H28         0.1858   51.4315   29.5991 H         1 UNK         0.0000 
     29 H29         1.9686   53.1976   26.1388 H         1 UNK         0.0000 
     30 H30        -1.8575   51.3031   25.8536 H         1 UNK         0.0000 
     31 H31         0.6053   52.8896   21.5160 H         1 UNK         0.0000 
     32 H32         2.2294   52.3433   21.4173 H         1 UNK         0.0000 
     33 H33        -0.1048   51.2052   19.7674 H         1 UNK         0.0000 
     34 H34         0.8230   52.5867   19.2808 H         1 UNK         0.0000 
     35 H35         2.9067   51.2141   19.2209 H         1 UNK         0.0000 
     36 H36         1.6977   50.7285   18.0776 H         1 UNK         0.0000 
     37 H37         2.7467   48.7822   19.0971 H         1 UNK         0.0000 
     38 H38         1.0483   48.7986   19.4468 H         1 UNK         0.0000 
     39 H39         3.1861   49.7744   21.3810 H         1 UNK         0.0000 
     40 H40         2.5829   48.1425   21.3956 H         1 UNK         0.0000 
     41 H41         1.1577   49.0396   22.8663 H         1 UNK         0.0000 
     42 H42         3.2974   54.9032   25.7971 H         1 UNK         0.0000 
     43 H43         5.6011   54.8106   24.6258 H         1 UNK         0.0000 
     44 H44         7.4982   53.9701   26.2797 H         1 UNK         0.0000 
@<TRIPOS>BOND
     1    1    6 ar   
     2    1    2 ar   
     3    1   27 1    
     4    2    3 ar   
     5    2   28 1    
     6    3    4 ar   
     7    3   18 1    
     8    4    5 ar   
     9    4   29 1    
    10    5    6 ar   
    11    5    7 1    
    12    6   30 1    
    13    7    8 2    
    14    7    9 2    
    15    7   10 1    
    16   10   11 2    
    17   11   17 1    
    18   11   12 1    
    19   12   13 1    
    20   12   31 1    
    21   12   32 1    
    22   13   14 1    
    23   13   33 1    
    24   13   34 1    
    25   14   15 1    
    26   14   35 1    
    27   14   36 1    
    28   15   16 1    
    29   15   37 1    
    30   15   38 1    
    31   16   17 1    
    32   16   39 1    
    33   16   40 1    
    34   17   41 1    
    35   18   19 1    
    36   19   20 2    
    37   19   21 2    
    38   19   22 1    
    39   22   26 1    
    40   22   23 2    
    41   23   24 1    
    42   23   42 1    
    43   24   25 2    
    44   24   43 1    
    45   25   26 1    
    46   25   44 1    
@<TRIPOS>SUBSTRUCTURE
     1 UNK         1 GROUP             0       ****    0 ROOT    
