ZINC04556313_1315
                    3D
 Schrodinger Suite 2024-2.
 48 51  0  0  1  0            999 V2000
   -3.8727   45.8908   26.0373 C   0  0  0  0  0  0
   -3.7126   47.3499   26.4892 C   0  0  0  0  0  0
   -1.3464   47.6015   25.4889 C   0  0  0  0  0  0
   -0.5294   48.3357   24.3977 C   0  0  0  0  0  0
   -0.7550   49.8459   24.4492 C   0  0  0  0  0  0
   -1.8269   50.4023   25.1628 C   0  0  0  0  0  0
   -1.8682   52.1301   25.0755 S   0  0  0  0  0  0
   -0.4253   52.1291   24.1318 C   0  0  0  0  0  0
    0.0545   50.8427   23.8615 C   0  0  0  0  0  0
    1.2445   50.7748   23.0181 C   0  0  0  0  0  0
    1.9181   51.7726   22.6156 N   0  0  0  0  0  0
    1.5006   53.1171   23.0474 C   0  0  1  0  0  0
    1.4676   53.7442   22.1532 H   0  0  0  0  0  0
    0.1714   53.2898   23.6818 N   0  0  0  0  0  0
    2.6558   53.6721   23.8826 C   0  0  0  0  0  0
    2.5917   53.6961   25.2813 C   0  0  0  0  0  0
    3.6997   54.0738   26.0266 C   0  0  0  0  0  0
    4.8942   54.4204   25.3823 C   0  0  0  0  0  0
    4.9365   54.4676   23.9839 C   0  0  0  0  0  0
    3.8218   54.0959   23.2395 C   0  0  0  0  0  0
    6.1382   54.6886   26.1543 C   0  0  0  0  0  0
    7.1041   55.2946   25.6867 O   0  0  0  0  0  0
    6.1307   54.0825   27.3676 O   0  0  0  0  0  0
    7.3024   54.0001   28.1598 C   0  0  0  0  0  0
    1.7592   49.5840   22.5819 O   0  0  0  0  0  0
   -2.8125   49.6347   26.0178 C   0  0  0  0  0  0
   -4.6631   45.4054   26.6104 H   0  0  0  0  0  0
   -4.1425   45.8190   24.9839 H   0  0  0  0  0  0
   -2.9657   45.3164   26.2219 H   0  0  0  0  0  0
   -3.2958   47.4259   27.4962 H   0  0  0  0  0  0
   -4.6759   47.8619   26.4691 H   0  0  0  0  0  0
   -0.9099   47.7049   26.4791 H   0  0  0  0  0  0
   -1.3980   46.5422   25.2441 H   0  0  0  0  0  0
   -0.8226   47.9724   23.4121 H   0  0  0  0  0  0
    0.5225   48.0839   24.5248 H   0  0  0  0  0  0
    0.1217   54.1466   24.2184 H   0  0  0  0  0  0
    1.7056   53.3666   25.8049 H   0  0  0  0  0  0
    3.6324   54.0378   27.1037 H   0  0  0  0  0  0
    5.8400   54.7465   23.4604 H   0  0  0  0  0  0
    3.8812   54.0891   22.1606 H   0  0  0  0  0  0
    7.0369   53.8802   29.2085 H   0  0  0  0  0  0
    7.9201   54.8931   28.0781 H   0  0  0  0  0  0
    7.9030   53.1390   27.8602 H   0  0  0  0  0  0
    1.7754   48.9515   23.3019 H   0  0  0  0  0  0
   -2.5309   49.6967   27.0711 H   0  0  0  0  0  0
   -3.8383   49.9855   25.8930 H   0  0  0  0  0  0
   -2.7939   48.1600   25.5346 N   0  3  2  0  0  0
   -3.1885   48.1158   24.6051 H   0  0  0  0  0  0
  1  2  1  0  0  0
  1 27  1  0  0  0
  1 28  1  0  0  0
  1 29  1  0  0  0
  2 30  1  0  0  0
  2 31  1  0  0  0
  2 47  1  0  0  0
  3  4  1  0  0  0
  3 32  1  0  0  0
  3 33  1  0  0  0
  3 47  1  0  0  0
  4  5  1  0  0  0
  4 34  1  0  0  0
  4 35  1  0  0  0
  5  9  1  0  0  0
  5  6  2  0  0  0
  6  7  1  0  0  0
  6 26  1  0  0  0
  7  8  1  0  0  0
  8 14  1  0  0  0
  8  9  2  0  0  0
  9 10  1  0  0  0
 10 11  2  0  0  0
 10 25  1  0  0  0
 11 12  1  0  0  0
 12 13  1  0  0  0
 12 14  1  0  0  0
 12 15  1  0  0  0
 14 36  1  0  0  0
 15 20  2  0  0  0
 15 16  1  0  0  0
 16 17  2  0  0  0
 16 37  1  0  0  0
 17 18  1  0  0  0
 17 38  1  0  0  0
 18 19  2  0  0  0
 18 21  1  0  0  0
 19 20  1  0  0  0
 19 39  1  0  0  0
 20 40  1  0  0  0
 21 22  2  0  0  0
 21 23  1  0  0  0
 23 24  1  0  0  0
 24 41  1  0  0  0
 24 42  1  0  0  0
 24 43  1  0  0  0
 25 44  1  0  0  0
 26 45  1  0  0  0
 26 46  1  0  0  0
 26 47  1  0  0  0
 47 48  1  0  0  0
M  CHG  1  47   1
M  END
> <i_i_glide_confnum>
1

> <i_i_glide_lignum>
1316

> <i_i_glide_posenum>
195

> <i_i_glide_rotatable_bonds>
5

> <i_m_Source_File_Index>
4457

> <b_m_subgroup_collapsed>
0

> <r_i_docking_score>
-6.77737

> <r_i_glide_ecoul>
-6.71908

> <r_i_glide_eff_state_penalty>
0

> <r_i_glide_einternal>
3.01678

> <r_i_glide_emodel>
-54.8232

> <r_i_glide_energy>
-39.8435

> <r_i_glide_erotb>
0.27845

> <r_i_glide_esite>
-0.0879844

> <r_i_glide_evdw>
-33.1244

> <r_i_glide_gscore>
-6.77737

> <r_i_glide_hbond>
-0.480859

> <r_i_glide_ligand_efficiency>
-0.260668

> <r_i_glide_ligand_efficiency_ln>
-1.59164

> <r_i_glide_ligand_efficiency_sa>
-0.772228

> <r_i_glide_lipo>
-1.56619

> <r_i_glide_metal>
0

> <r_i_glide_rewards>
-2.2567

> <s_i_glide_gridfile>
wee1_glide-grid

> <s_m_Source_File>
wee1_decoys_glide_SP.sdf

> <s_m_Source_Path>
/Users/zhangxujun/Desktop

> <s_m_entry_id>
4732

> <s_m_entry_name>
wee1_decoys_glide_SP.4457

> <s_m_subgroup_title>
wee1_decoys_glide_SP

> <s_m_subgroupid>
wee1_decoys_glide_SP


$$$$
