@<TRIPOS>MOLECULE
ZINC32127725_2055
56   59    1
SMALL
USER_CHARGES


@<TRIPOS>ATOM
      1 C1         -5.5043   51.3216   24.2980 C.3       1 UNK         0.0000 
      2 C2         -4.2668   51.3380   25.1905 C.ar      1 UNK         0.0000 
      3 C3         -4.4429   51.5020   26.5682 C.ar      1 UNK         0.0000 
      4 C4         -3.3460   51.5387   27.4275 C.ar      1 UNK         0.0000 
      5 C5         -2.0467   51.3945   26.9353 C.ar      1 UNK         0.0000 
      6 C6         -1.8828   51.1747   25.5606 C.ar      1 UNK         0.0000 
      7 C7         -2.9663   51.2000   24.6714 C.ar      1 UNK         0.0000 
      8 N8         -2.7959   51.0590   23.2750 N.pl3     1 UNK         0.0000 
      9 C9         -1.8054   51.4667   22.4236 C.2       1 UNK         0.0000 
     10 S10        -2.0830   51.1544   20.8055 S.2       1 UNK         0.0000 
     11 N11        -0.7173   52.0959   22.9814 N.am      1 UNK         0.0000 
     12 C12         0.4854   52.4975   22.4849 C.2       1 UNK         0.0000 
     13 O13         0.8137   52.4216   21.2993 O.2       1 UNK         0.0000 
     14 C14         1.4690   53.0487   23.5062 C.ar      1 UNK         0.0000 
     15 C15         1.1038   53.2689   24.8400 C.ar      1 UNK         0.0000 
     16 C16         2.0342   53.6966   25.7795 C.ar      1 UNK         0.0000 
     17 C17         3.3645   53.9499   25.4242 C.ar      1 UNK         0.0000 
     18 C18         3.7208   53.7727   24.0776 C.ar      1 UNK         0.0000 
     19 C19         2.7909   53.3303   23.1353 C.ar      1 UNK         0.0000 
     20 C20         4.4085   54.3984   26.4884 C.3       1 UNK         0.0000 
     21 C21         5.3612   55.4780   25.9334 C.3       1 UNK         0.0000 
     22 C22         5.3093   53.2367   26.9122 C.3       1 UNK         0.0000 
     23 C23         3.7461   54.9066   27.7969 C.3       1 UNK         0.0000 
     24 C24        -0.8475   51.5137   27.8362 C.2       1 UNK         0.0000 
     25 N25        -0.8470   52.0969   29.0155 N.2       1 UNK         0.0000 
     26 N26         0.4498   52.1540   29.4670 N.pl3     1 UNK         0.0000 
     27 C27         1.1303   52.6812   30.5562 C.ar      1 UNK         0.0000 
     28 N28         2.4119   52.4092   30.4351 N.2       1 UNK         0.0000 
     29 N29         2.6156   51.6970   29.2591 N.2       1 UNK         0.0000 
     30 C30         1.4319   51.5810   28.7078 C.ar      1 UNK         0.0000 
     31 S31         0.7081   50.8969   27.2811 S.3       1 UNK         0.0000 
     32 C32         0.5338   53.4840   31.6814 C.3       1 UNK         0.0000 
     33 H33        -6.3238   51.8853   24.7460 H         1 UNK         0.0000 
     34 H34        -5.3153   51.7821   23.3290 H         1 UNK         0.0000 
     35 H35        -5.8363   50.2969   24.1305 H         1 UNK         0.0000 
     36 H36        -5.4360   51.6064   26.9806 H         1 UNK         0.0000 
     37 H37        -3.5094   51.6827   28.4854 H         1 UNK         0.0000 
     38 H38        -0.8956   50.9822   25.1775 H         1 UNK         0.0000 
     39 H39        -3.5951   50.6447   22.8179 H         1 UNK         0.0000 
     40 H40        -0.8140   52.2650   23.9690 H         1 UNK         0.0000 
     41 H41         0.0975   53.1013   25.1884 H         1 UNK         0.0000 
     42 H42         1.6873   53.8208   26.7929 H         1 UNK         0.0000 
     43 H43         4.7331   53.9387   23.7445 H         1 UNK         0.0000 
     44 H44         3.1182   53.1851   22.1142 H         1 UNK         0.0000 
     45 H45         6.1328   55.7003   26.6709 H         1 UNK         0.0000 
     46 H46         4.8308   56.3910   25.6817 H         1 UNK         0.0000 
     47 H47         5.9026   55.1601   25.0431 H         1 UNK         0.0000 
     48 H48         4.7132   52.4183   27.2981 H         1 UNK         0.0000 
     49 H49         5.9180   52.8967   26.0811 H         1 UNK         0.0000 
     50 H50         6.0034   53.5184   27.7062 H         1 UNK         0.0000 
     51 H51         3.2319   54.1105   28.3302 H         1 UNK         0.0000 
     52 H52         4.4859   55.2966   28.4964 H         1 UNK         0.0000 
     53 H53         3.0087   55.6887   27.6159 H         1 UNK         0.0000 
     54 H54         1.0427   53.2968   32.6262 H         1 UNK         0.0000 
     55 H55         0.5727   54.5555   31.4841 H         1 UNK         0.0000 
     56 H56        -0.5004   53.2265   31.8488 H         1 UNK         0.0000 
@<TRIPOS>BOND
     1    1    2 1    
     2    1   33 1    
     3    1   34 1    
     4    1   35 1    
     5    2    7 ar   
     6    2    3 ar   
     7    3    4 ar   
     8    3   36 1    
     9    4    5 ar   
    10    4   37 1    
    11    5    6 ar   
    12    5   24 1    
    13    6    7 ar   
    14    6   38 1    
    15    7    8 1    
    16    8    9 1    
    17    8   39 1    
    18    9   10 2    
    19    9   11 am   BACKBONE|DICT|INTERRES
    20   11   12 am   BACKBONE|DICT|INTERRES
    21   11   40 1    
    22   12   13 2    
    23   12   14 1    
    24   14   19 ar   
    25   14   15 ar   
    26   15   16 ar   
    27   15   41 1    
    28   16   17 ar   
    29   16   42 1    
    30   17   18 ar   
    31   17   20 1    
    32   18   19 ar   
    33   18   43 1    
    34   19   44 1    
    35   20   21 1    
    36   20   22 1    
    37   20   23 1    
    38   21   45 1    
    39   21   46 1    
    40   21   47 1    
    41   22   48 1    
    42   22   49 1    
    43   22   50 1    
    44   23   51 1    
    45   23   52 1    
    46   23   53 1    
    47   24   31 1    
    48   24   25 2    
    49   25   26 1    
    50   26   30 ar   
    51   26   27 ar   
    52   27   28 ar   
    53   27   32 1    
    54   28   29 ar   
    55   29   30 ar   
    56   30   31 1    
    57   32   54 1    
    58   32   55 1    
    59   32   56 1    
@<TRIPOS>SUBSTRUCTURE
     1 UNK         1 GROUP             0       ****    0 ROOT    
