@<TRIPOS>MOLECULE
ZINC26841482_771
57   61    1
SMALL
USER_CHARGES


@<TRIPOS>ATOM
      1 C1          5.7273   54.6810   28.6708 C.3       1 UNK         0.0000 
      2 C2          4.7967   53.5064   28.3311 C.3       1 UNK         0.0000 
      3 N3          3.5196   53.9149   27.7159 N.pl3     1 UNK         0.0000 
      4 C4          2.3644   54.0503   28.4954 C.2       1 UNK         0.0000 
      5 N5          2.5416   54.7379   29.6814 N.2       1 UNK         0.0000 
      6 C6          1.2022   53.5452   28.0336 C.2       1 UNK         0.0000 
      7 C7          1.1044   52.9172   26.7062 C.2       1 UNK         0.0000 
      8 C8          2.2073   53.3124   25.7786 C.ar      1 UNK         0.0000 
      9 C9          3.3640   53.7786   26.3321 C.ar      1 UNK         0.0000 
     10 N10         4.4222   54.1501   25.5360 N.pl3     1 UNK         0.0000 
     11 C11         4.4224   54.1116   24.1943 C.ar      1 UNK         0.0000 
     12 C12         5.5653   54.4946   23.4668 C.ar      1 UNK         0.0000 
     13 C13         5.4973   54.3932   22.1198 C.ar      1 UNK         0.0000 
     14 C14         4.3001   53.9349   21.4622 C.ar      1 UNK         0.0000 
     15 C15         3.2170   53.6257   22.1839 C.ar      1 UNK         0.0000 
     16 N16         3.2631   53.7099   23.5731 N.pl3     1 UNK         0.0000 
     17 C17         2.0097   53.3708   24.3278 C.ar      1 UNK         0.0000 
     18 O18         0.9588   53.2452   23.6917 O.2       1 UNK         0.0000 
     19 C19         6.8046   55.0828   24.1162 C.3       1 UNK         0.0000 
     20 C20         0.1214   52.0032   26.4443 C.2       1 UNK         0.0000 
     21 N21         0.0095   51.1911   25.3675 N.2       1 UNK         0.0000 
     22 C22        -1.0267   50.4587   25.3493 C.2       1 UNK         0.0000 
     23 C23        -1.9750   50.6618   26.4804 C.2       1 UNK         0.0000 
     24 S24        -1.1945   51.6976   27.6112 S.3       1 UNK         0.0000 
     25 N25        -3.1814   50.0959   26.5853 N.pl3     1 UNK         0.0000 
     26 C26        -4.0941   50.2711   27.6562 C.2       1 UNK         0.0000 
     27 O27        -4.2118   51.2907   28.3375 O.2       1 UNK         0.0000 
     28 C28        -4.9571   49.0337   27.8724 C.3       1 UNK         0.0000 
     29 C29        -1.2678   49.4592   24.2873 C.ar      1 UNK         0.0000 
     30 C30        -1.7813   48.1892   24.5943 C.ar      1 UNK         0.0000 
     31 C31        -1.9994   47.2583   23.5835 C.ar      1 UNK         0.0000 
     32 C32        -1.6959   47.5837   22.2644 C.ar      1 UNK         0.0000 
     33 C33        -1.1693   48.8337   21.9475 C.ar      1 UNK         0.0000 
     34 C34        -0.9521   49.7692   22.9562 C.ar      1 UNK         0.0000 
     35 F35        -1.8998   46.6725   21.2869 F         1 UNK         0.0000 
     36 H36         6.7054   54.3130   28.9819 H         1 UNK         0.0000 
     37 H37         5.8914   55.3371   27.8159 H         1 UNK         0.0000 
     38 H38         5.3407   55.2858   29.4976 H         1 UNK         0.0000 
     39 H39         4.5960   52.9341   29.2387 H         1 UNK         0.0000 
     40 H40         5.3180   52.8044   27.6759 H         1 UNK         0.0000 
     41 H41         1.6102   54.8012   30.1190 H         1 UNK         0.0000 
     42 H42         0.3150   53.6845   28.6330 H         1 UNK         0.0000 
     43 H43         6.3346   54.7043   21.5099 H         1 UNK         0.0000 
     44 H44         4.2667   53.8639   20.3827 H         1 UNK         0.0000 
     45 H45         2.2970   53.2951   21.7187 H         1 UNK         0.0000 
     46 H46         7.5041   55.4688   23.3757 H         1 UNK         0.0000 
     47 H47         6.5342   55.9114   24.7701 H         1 UNK         0.0000 
     48 H48         7.3063   54.3197   24.7087 H         1 UNK         0.0000 
     49 H49        -3.4692   49.4418   25.8670 H         1 UNK         0.0000 
     50 H50        -5.5780   48.8291   27.0007 H         1 UNK         0.0000 
     51 H51        -4.3277   48.1659   28.0805 H         1 UNK         0.0000 
     52 H52        -5.6134   49.1791   28.7301 H         1 UNK         0.0000 
     53 H53        -1.9807   47.9016   25.6183 H         1 UNK         0.0000 
     54 H54        -2.3896   46.2815   23.8218 H         1 UNK         0.0000 
     55 H55        -0.9270   49.0736   20.9226 H         1 UNK         0.0000 
     56 H56        -0.5396   50.7352   22.6983 H         1 UNK         0.0000 
     57 H57         5.2740   54.4561   25.9822 H         1 UNK         0.0000 
@<TRIPOS>BOND
     1    1    2 1    
     2    1   36 1    
     3    1   37 1    
     4    1   38 1    
     5    2    3 1    
     6    2   39 1    
     7    2   40 1    
     8    3    9 1    
     9    3    4 1    
    10    4    5 1    
    11    4    6 2    
    12    5   41 1    
    13    6    7 1    
    14    6   42 1    
    15    7    8 1    
    16    7   20 2    
    17    8   17 ar   
    18    8    9 ar   
    19    9   10 ar   
    20   10   11 ar   
    21   10   57 1    
    22   11   16 ar   
    23   11   12 ar   
    24   12   13 ar   
    25   12   19 1    
    26   13   14 ar   
    27   13   43 1    
    28   14   15 ar   
    29   14   44 1    
    30   15   16 ar   
    31   15   45 1    
    32   16   17 ar   
    33   17   18 2    
    34   19   46 1    
    35   19   47 1    
    36   19   48 1    
    37   20   24 1    
    38   20   21 1    
    39   21   22 2    
    40   22   23 1    
    41   22   29 1    
    42   23   24 1    
    43   23   25 2    
    44   25   26 1    
    45   25   49 1    
    46   26   27 2    
    47   26   28 1    
    48   28   50 1    
    49   28   51 1    
    50   28   52 1    
    51   29   34 ar   
    52   29   30 ar   
    53   30   31 ar   
    54   30   53 1    
    55   31   32 ar   
    56   31   54 1    
    57   32   33 ar   
    58   32   35 1    
    59   33   34 ar   
    60   33   55 1    
    61   34   56 1    
@<TRIPOS>SUBSTRUCTURE
     1 UNK         1 GROUP             0       ****    0 ROOT    
