@<TRIPOS>MOLECULE
ZINC08979813_1424
48   52    1
SMALL
USER_CHARGES


@<TRIPOS>ATOM
      1 C1          1.5048   55.5153   30.0541 C.ar      1 UNK         0.0000 
      2 C2          2.6407   55.0632   29.3794 C.ar      1 UNK         0.0000 
      3 C3          2.8558   53.6878   29.2182 C.ar      1 UNK         0.0000 
      4 C4          1.8987   52.8086   29.7405 C.ar      1 UNK         0.0000 
      5 N5          0.7941   53.2290   30.4068 N.ar      1 UNK         0.0000 
      6 C6          0.6139   54.5647   30.5559 C.ar      1 UNK         0.0000 
      7 C7          4.0696   53.1622   28.4715 C.3       1 UNK         0.0000 
      8 N8          4.2685   53.8516   27.2018 N.am      1 UNK         0.0000 
      9 C9          5.4480   54.1830   26.6551 C.2       1 UNK         0.0000 
     10 O10         6.5259   53.9041   27.1798 O.2       1 UNK         0.0000 
     11 C11         5.3811   55.0208   25.3571 C.3       1 UNK         0.0000 
     12 H12         4.9870   55.9828   25.6811 H         1 UNK         0.0000 
     13 C13         6.7335   55.2096   24.6239 C.3       1 UNK         0.0000 
     14 C14         6.7038   54.4604   23.2752 C.3       1 UNK         0.0000 
     15 C15         5.2541   54.0965   23.1597 C.2       1 UNK         0.0000 
     16 C16         4.5222   54.3881   24.2834 C.2       1 UNK         0.0000 
     17 N17         3.2409   54.0846   24.2508 N.2       1 UNK         0.0000 
     18 C18         2.9264   53.5205   23.1004 C.2       1 UNK         0.0000 
     19 S19         4.2338   53.3739   21.9565 S.3       1 UNK         0.0000 
     20 N20         1.6919   53.0121   22.7272 N.am      1 UNK         0.0000 
     21 C21         0.6746   52.7072   23.5656 C.2       1 UNK         0.0000 
     22 O22         0.7102   52.8971   24.7855 O.2       1 UNK         0.0000 
     23 C23        -0.5605   52.0969   22.9323 C.ar      1 UNK         0.0000 
     24 C24        -0.5903   51.6968   21.5707 C.ar      1 UNK         0.0000 
     25 C25        -1.7241   51.0891   21.0126 C.ar      1 UNK         0.0000 
     26 C26        -2.8196   50.8895   21.8392 C.ar      1 UNK         0.0000 
     27 C27        -2.8149   51.2798   23.1470 C.ar      1 UNK         0.0000 
     28 C28        -1.7111   51.8932   23.7233 C.ar      1 UNK         0.0000 
     29 O29        -4.0183   50.9950   23.7093 O.3       1 UNK         0.0000 
     30 C30        -4.7151   50.2280   22.7566 C.3       1 UNK         0.0000 
     31 O31        -4.0213   50.3336   21.5364 O.3       1 UNK         0.0000 
     32 H32         1.3276   56.5719   30.1931 H         1 UNK         0.0000 
     33 H33         3.3511   55.7764   28.9866 H         1 UNK         0.0000 
     34 H34         1.9963   51.7404   29.6207 H         1 UNK         0.0000 
     35 H35        -0.2700   54.8722   31.0962 H         1 UNK         0.0000 
     36 H36         4.9443   53.2533   29.1193 H         1 UNK         0.0000 
     37 H37         3.9583   52.0972   28.2677 H         1 UNK         0.0000 
     38 H38         3.4386   53.9880   26.6462 H         1 UNK         0.0000 
     39 H39         6.8863   56.2707   24.4352 H         1 UNK         0.0000 
     40 H40         7.5988   54.8909   25.1989 H         1 UNK         0.0000 
     41 H41         7.0525   55.0999   22.4628 H         1 UNK         0.0000 
     42 H42         7.3502   53.5810   23.2916 H         1 UNK         0.0000 
     43 H43         1.5961   52.7607   21.7570 H         1 UNK         0.0000 
     44 H44         0.2666   51.8293   20.9244 H         1 UNK         0.0000 
     45 H45        -1.7339   50.7772   19.9768 H         1 UNK         0.0000 
     46 H46        -1.7371   52.1865   24.7635 H         1 UNK         0.0000 
     47 H47        -5.7342   50.6130   22.6442 H         1 UNK         0.0000 
     48 H48        -4.7348   49.1797   23.0743 H         1 UNK         0.0000 
@<TRIPOS>BOND
     1    1    6 ar   
     2    1    2 ar   
     3    1   32 1    
     4    2    3 ar   
     5    2   33 1    
     6    3    4 ar   
     7    3    7 1    
     8    4    5 ar   
     9    4   34 1    
    10    5    6 ar   
    11    6   35 1    
    12    7    8 1    
    13    7   36 1    
    14    7   37 1    
    15    8    9 am   BACKBONE|DICT|INTERRES
    16    8   38 1    
    17    9   10 2    
    18    9   11 1    
    19   11   12 1    
    20   11   16 1    
    21   11   13 1    
    22   13   14 1    
    23   13   39 1    
    24   13   40 1    
    25   14   15 1    
    26   14   41 1    
    27   14   42 1    
    28   15   19 1    
    29   15   16 2    
    30   16   17 1    
    31   17   18 2    
    32   18   19 1    
    33   18   20 am   BACKBONE|DICT|INTERRES
    34   20   21 am   BACKBONE|DICT|INTERRES
    35   20   43 1    
    36   21   22 2    
    37   21   23 1    
    38   23   28 ar   
    39   23   24 ar   
    40   24   25 ar   
    41   24   44 1    
    42   25   26 ar   
    43   25   45 1    
    44   26   31 1    
    45   26   27 ar   
    46   27   28 ar   
    47   27   29 1    
    48   28   46 1    
    49   29   30 1    
    50   30   31 1    
    51   30   47 1    
    52   30   48 1    
@<TRIPOS>SUBSTRUCTURE
     1 UNK         1 GROUP             0       ****    0 ROOT    
