ZINC39636103_782
                    3D
 Schrodinger Suite 2024-2.
 66 69  0  0  1  0            999 V2000
   -8.0547   52.4517   26.7600 C   0  0  0  0  0  0
   -6.8408   51.4981   26.7094 C   0  0  1  0  0  0
   -6.5935   51.2484   27.7437 H   0  0  0  0  0  0
   -7.1703   50.1561   26.0024 C   0  0  0  0  0  0
   -7.2910   50.2851   24.4707 C   0  0  0  0  0  0
   -6.0407   50.9445   23.8610 C   0  0  0  0  0  0
   -5.7343   52.2928   24.5430 C   0  0  0  0  0  0
   -5.5815   52.1737   26.0855 C   0  0  2  0  0  0
   -5.5180   53.1886   26.4879 H   0  0  0  0  0  0
   -4.3554   51.4708   26.4868 N   0  0  0  0  0  0
   -3.1162   51.9915   26.4406 C   0  0  0  0  0  0
   -2.9031   53.1593   26.1197 O   0  0  0  0  0  0
   -1.9519   51.0540   26.8463 C   0  0  2  0  0  0
   -2.3955   50.1567   27.2836 H   0  0  0  0  0  0
   -0.9484   51.6830   27.8272 C   0  0  0  0  0  0
    0.1606   52.1821   26.9975 N   0  0  0  0  0  0
    0.0246   51.7192   25.6113 C   0  0  0  0  0  0
   -1.0855   50.6324   25.6248 C   0  0  0  0  0  0
   -0.5047   49.2258   25.9245 C   0  0  0  0  0  0
    0.5053   48.7402   24.8742 C   0  0  0  0  0  0
   -0.1330   48.7923   23.4706 N   0  3  0  0  0  0
   -0.8166   50.1285   23.1227 C   0  0  0  0  0  0
   -1.8082   50.4637   24.2537 C   0  0  0  0  0  0
    1.2125   52.8402   27.5712 C   0  0  0  0  0  0
    1.2471   53.0147   28.7938 O   0  0  0  0  0  0
    2.3884   53.3621   26.7474 C   0  0  0  0  0  0
    3.6150   53.6080   27.3918 C   0  0  0  0  0  0
    4.7203   54.1048   26.7029 C   0  0  0  0  0  0
    4.6255   54.3801   25.3349 C   0  0  0  0  0  0
    3.4091   54.1650   24.6745 C   0  0  0  0  0  0
    2.3043   53.6849   25.3821 C   0  0  0  0  0  0
    3.2380   54.4953   22.9849 Cl  0  0  0  0  0  0
    5.7034   54.8978   24.6578 O   0  0  0  0  0  0
    6.5644   53.9206   24.0870 C   0  0  0  0  0  0
    6.1955   54.3797   27.5574 Cl  0  0  0  0  0  0
   -8.3744   52.7662   25.7675 H   0  0  0  0  0  0
   -8.9078   51.9723   27.2410 H   0  0  0  0  0  0
   -7.8266   53.3507   27.3347 H   0  0  0  0  0  0
   -8.0890   49.7314   26.4101 H   0  0  0  0  0  0
   -6.3872   49.4278   26.2328 H   0  0  0  0  0  0
   -7.4476   49.3015   24.0259 H   0  0  0  0  0  0
   -8.1757   50.8721   24.2189 H   0  0  0  0  0  0
   -5.1835   50.2776   23.9640 H   0  0  0  0  0  0
   -6.1852   51.0914   22.7894 H   0  0  0  0  0  0
   -4.8295   52.7221   24.1096 H   0  0  0  0  0  0
   -6.5269   53.0060   24.3046 H   0  0  0  0  0  0
   -4.4735   50.5492   26.8804 H   0  0  0  0  0  0
   -1.3894   52.4260   28.4876 H   0  0  0  0  0  0
   -0.5830   50.8920   28.4816 H   0  0  0  0  0  0
    0.9413   51.3780   25.1290 H   0  0  0  0  0  0
   -0.3941   52.5453   25.0354 H   0  0  0  0  0  0
    0.0243   49.2417   26.8798 H   0  0  0  0  0  0
   -1.2949   48.4870   26.0786 H   0  0  0  0  0  0
    1.4320   49.3077   24.8320 H   0  0  0  0  0  0
    0.7414   47.6958   25.0442 H   0  0  0  0  0  0
    0.5650   48.5709   22.7730 H   0  0  0  0  0  0
   -0.0231   50.8682   23.0037 H   0  0  0  0  0  0
   -1.3113   49.9838   22.1608 H   0  0  0  0  0  0
   -2.6125   49.7293   24.3184 H   0  0  0  0  0  0
   -2.2977   51.3957   23.9641 H   0  0  0  0  0  0
    3.7260   53.4030   28.4463 H   0  0  0  0  0  0
    1.3823   53.6189   24.8321 H   0  0  0  0  0  0
    7.3628   54.4185   23.5371 H   0  0  0  0  0  0
    7.0302   53.2978   24.8557 H   0  0  0  0  0  0
    6.0344   53.2755   23.3835 H   0  0  0  0  0  0
   -0.8317   48.0636   23.4216 H   0  0  0  0  0  0
  1  2  1  0  0  0
  1 36  1  0  0  0
  1 37  1  0  0  0
  1 38  1  0  0  0
  2  3  1  0  0  0
  2  8  1  0  0  0
  2  4  1  0  0  0
  4  5  1  0  0  0
  4 39  1  0  0  0
  4 40  1  0  0  0
  5  6  1  0  0  0
  5 41  1  0  0  0
  5 42  1  0  0  0
  6  7  1  0  0  0
  6 43  1  0  0  0
  6 44  1  0  0  0
  7  8  1  0  0  0
  7 45  1  0  0  0
  7 46  1  0  0  0
  8  9  1  0  0  0
  8 10  1  0  0  0
 10 11  1  0  0  0
 10 47  1  0  0  0
 11 12  2  0  0  0
 11 13  1  0  0  0
 13 14  1  0  0  0
 13 18  1  0  0  0
 13 15  1  0  0  0
 15 16  1  0  0  0
 15 48  1  0  0  0
 15 49  1  0  0  0
 16 17  1  0  0  0
 16 24  1  0  0  0
 17 18  1  0  0  0
 17 50  1  0  0  0
 17 51  1  0  0  0
 18 23  1  0  0  0
 18 19  1  0  0  0
 19 20  1  0  0  0
 19 52  1  0  0  0
 19 53  1  0  0  0
 20 21  1  0  0  0
 20 54  1  0  0  0
 20 55  1  0  0  0
 21 22  1  0  0  0
 21 56  1  0  0  0
 21 66  1  0  0  0
 22 23  1  0  0  0
 22 57  1  0  0  0
 22 58  1  0  0  0
 23 59  1  0  0  0
 23 60  1  0  0  0
 24 25  2  0  0  0
 24 26  1  0  0  0
 26 31  2  0  0  0
 26 27  1  0  0  0
 27 28  2  0  0  0
 27 61  1  0  0  0
 28 29  1  0  0  0
 28 35  1  0  0  0
 29 30  2  0  0  0
 29 33  1  0  0  0
 30 31  1  0  0  0
 30 32  1  0  0  0
 31 62  1  0  0  0
 33 34  1  0  0  0
 34 63  1  0  0  0
 34 64  1  0  0  0
 34 65  1  0  0  0
M  CHG  1  21   1
M  END
> <i_i_glide_confnum>
369

> <i_i_glide_lignum>
783

> <i_i_glide_posenum>
324

> <i_i_glide_rotatable_bonds>
6

> <i_m_Source_File_Index>
4334

> <b_m_subgroup_collapsed>
0

> <r_i_docking_score>
-4.4475

> <r_i_glide_ecoul>
-4.88226

> <r_i_glide_eff_state_penalty>
0

> <r_i_glide_einternal>
4.8431

> <r_i_glide_emodel>
-51.1256

> <r_i_glide_energy>
-39.438

> <r_i_glide_erotb>
0.43429

> <r_i_glide_esite>
-0.0302413

> <r_i_glide_evdw>
-34.5558

> <r_i_glide_gscore>
-4.4475

> <r_i_glide_hbond>
0

> <r_i_glide_ligand_efficiency>
-0.138985

> <r_i_glide_ligand_efficiency_ln>
-0.995917

> <r_i_glide_ligand_efficiency_sa>
-0.441248

> <r_i_glide_lipo>
-2.05393

> <r_i_glide_metal>
0

> <r_i_glide_rewards>
-0.337491

> <s_i_glide_gridfile>
wee1_glide-grid

> <s_m_Source_File>
wee1_decoys_glide_SP.sdf

> <s_m_Source_Path>
/Users/zhangxujun/Desktop

> <s_m_entry_id>
4609

> <s_m_entry_name>
wee1_decoys_glide_SP.4334

> <s_m_subgroup_title>
wee1_decoys_glide_SP

> <s_m_subgroupid>
wee1_decoys_glide_SP


$$$$
