@<TRIPOS>MOLECULE
ZINC63350181_6068
54   58    1
SMALL
USER_CHARGES


@<TRIPOS>ATOM
      1 C1          2.8495   55.2684   29.3921 C.3       1 UNK         0.0000 
      2 O2          2.6859   54.6761   28.1164 O.3       1 UNK         0.0000 
      3 C3          1.6858   53.7455   27.9385 C.ar      1 UNK         0.0000 
      4 C4          0.9007   53.2602   28.9994 C.ar      1 UNK         0.0000 
      5 C5         -0.1567   52.3897   28.7650 C.ar      1 UNK         0.0000 
      6 C6         -0.4831   52.0039   27.4640 C.ar      1 UNK         0.0000 
      7 C7          0.3030   52.4846   26.4130 C.ar      1 UNK         0.0000 
      8 C8          1.4173   53.2963   26.6344 C.ar      1 UNK         0.0000 
      9 C9          2.2488   53.6777   25.4063 C.3       1 UNK         0.0000 
     10 O10         3.5905   54.0301   25.7358 O.3       1 UNK         0.0000 
     11 C11         4.4912   54.2987   24.7240 C.ar      1 UNK         0.0000 
     12 C12         4.2356   54.0965   23.3570 C.ar      1 UNK         0.0000 
     13 C13         5.2163   54.3791   22.4098 C.ar      1 UNK         0.0000 
     14 C14         6.4422   54.8961   22.8195 C.ar      1 UNK         0.0000 
     15 C15         6.7022   55.1115   24.1713 C.ar      1 UNK         0.0000 
     16 C16         5.7310   54.8015   25.1197 C.ar      1 UNK         0.0000 
     17 Br17        7.7487   55.3604   21.5151 Br        1 UNK         0.0000 
     18 C18        -1.6700   51.0494   27.2557 C.3       1 UNK         0.0000 
     19 H19        -1.6494   50.4966   28.1909 H         1 UNK         0.0000 
     20 C20        -1.5857   50.0108   26.0813 C.3       1 UNK         0.0000 
     21 H21        -2.1591   49.1218   26.3515 H         1 UNK         0.0000 
     22 C22        -2.0900   50.6211   24.7892 C.2       1 UNK         0.0000 
     23 C23        -1.1648   50.4775   23.8299 C.2       1 UNK         0.0000 
     24 C24        -1.1338   50.9260   22.4301 C.2       1 UNK         0.0000 
     25 C25        -0.0306   50.7424   21.6774 C.2       1 UNK         0.0000 
     26 C26         1.1261   50.1152   22.3014 C.2       1 UNK         0.0000 
     27 C27         1.1044   49.6962   23.5938 C.2       1 UNK         0.0000 
     28 C28        -0.0433   49.8463   24.3794 C.2       1 UNK         0.0000 
     29 N29        -0.2535   49.5283   25.6462 N.pl3     1 UNK         0.0000 
     30 C30        -3.4142   51.3577   24.8575 C.3       1 UNK         0.0000 
     31 C31        -3.3356   52.3674   26.0259 C.3       1 UNK         0.0000 
     32 N32        -2.9859   51.6966   27.2790 N.3       1 UNK         0.0000 
     33 H33         3.5306   56.0969   29.2821 H         1 UNK         0.0000 
     34 H34         1.9197   55.6753   29.7935 H         1 UNK         0.0000 
     35 H35         3.2841   54.5603   30.0963 H         1 UNK         0.0000 
     36 H36         1.0863   53.5507   30.0214 H         1 UNK         0.0000 
     37 H37        -0.7402   52.0321   29.6027 H         1 UNK         0.0000 
     38 H38         0.0536   52.2444   25.3963 H         1 UNK         0.0000 
     39 H39         2.2569   52.8171   24.7338 H         1 UNK         0.0000 
     40 H40         1.7558   54.4966   24.8831 H         1 UNK         0.0000 
     41 H41         3.2882   53.7168   23.0077 H         1 UNK         0.0000 
     42 H42         5.0156   54.2236   21.3596 H         1 UNK         0.0000 
     43 H43         7.6410   55.5375   24.4828 H         1 UNK         0.0000 
     44 H44         5.9281   54.9658   26.1690 H         1 UNK         0.0000 
     45 H45        -1.9915   51.3938   21.9685 H         1 UNK         0.0000 
     46 H46         0.0040   51.0591   20.6442 H         1 UNK         0.0000 
     47 H47         2.0383   50.0109   21.7295 H         1 UNK         0.0000 
     48 H48         2.0106   49.2967   24.0160 H         1 UNK         0.0000 
     49 H49        -3.6290   51.8863   23.9288 H         1 UNK         0.0000 
     50 H50        -4.2413   50.6636   25.0124 H         1 UNK         0.0000 
     51 H51        -2.6049   53.1440   25.7920 H         1 UNK         0.0000 
     52 H52        -4.3077   52.8497   26.1388 H         1 UNK         0.0000 
     53 H53        -3.6955   51.0231   27.5373 H         1 UNK         0.0000 
     54 H54         0.4034   49.0599   26.2669 H         1 UNK         0.0000 
@<TRIPOS>BOND
     1    1    2 1    
     2    1   33 1    
     3    1   34 1    
     4    1   35 1    
     5    2    3 1    
     6    3    8 ar   
     7    3    4 ar   
     8    4    5 ar   
     9    4   36 1    
    10    5    6 ar   
    11    5   37 1    
    12    6    7 ar   
    13    6   18 1    
    14    7    8 ar   
    15    7   38 1    
    16    8    9 1    
    17    9   10 1    
    18    9   39 1    
    19    9   40 1    
    20   10   11 1    
    21   11   16 ar   
    22   11   12 ar   
    23   12   13 ar   
    24   12   41 1    
    25   13   14 ar   
    26   13   42 1    
    27   14   15 ar   
    28   14   17 1    
    29   15   16 ar   
    30   15   43 1    
    31   16   44 1    
    32   18   19 1    
    33   18   32 1    
    34   18   20 1    
    35   20   21 1    
    36   20   29 1    
    37   20   22 1    
    38   22   23 2    
    39   22   30 1    
    40   23   28 1    
    41   23   24 1    
    42   24   25 2    
    43   24   45 1    
    44   25   26 1    
    45   25   46 1    
    46   26   27 2    
    47   26   47 1    
    48   27   28 1    
    49   27   48 1    
    50   28   29 2    
    51   29   54 1    
    52   30   31 1    
    53   30   49 1    
    54   30   50 1    
    55   31   32 1    
    56   31   51 1    
    57   31   52 1    
    58   32   53 1    
@<TRIPOS>SUBSTRUCTURE
     1 UNK         1 GROUP             0       ****    0 ROOT    
