@<TRIPOS>MOLECULE
ZINC40425347_223
53   56    1
SMALL
USER_CHARGES


@<TRIPOS>ATOM
      1 C1         -0.3639   50.9105   20.0286 C.3       1 UNK         0.0000 
      2 C2          1.1266   51.3549   19.9581 C.3       1 UNK         0.0000 
      3 C3          1.2439   52.3781   18.8011 C.3       1 UNK         0.0000 
      4 C4          1.6344   52.0076   21.2736 C.ar      1 UNK         0.0000 
      5 C5          2.9432   52.5007   21.3150 C.ar      1 UNK         0.0000 
      6 C6          3.4693   53.0598   22.4741 C.ar      1 UNK         0.0000 
      7 N7          2.7053   53.1247   23.6157 N.pl3     1 UNK         0.0000 
      8 C8          1.3934   52.6308   23.6227 C.ar      1 UNK         0.0000 
      9 C9          0.8478   52.0921   22.4383 C.ar      1 UNK         0.0000 
     10 N10         0.8482   52.7276   24.8537 N.2       1 UNK         0.0000 
     11 C11         1.7970   53.2192   25.6324 C.ar      1 UNK         0.0000 
     12 C12         2.9759   53.5433   24.9152 C.ar      1 UNK         0.0000 
     13 C13         4.3023   54.0968   25.3853 C.ar      1 UNK         0.0000 
     14 C14         5.1565   54.8495   24.5692 C.ar      1 UNK         0.0000 
     15 C15         6.3588   55.2962   25.1184 C.ar      1 UNK         0.0000 
     16 N16         6.7043   55.0445   26.4054 N.ar      1 UNK         0.0000 
     17 C17         5.8217   54.3169   27.1300 C.ar      1 UNK         0.0000 
     18 N18         4.6470   53.8140   26.6738 N.ar      1 UNK         0.0000 
     19 N19         6.1361   54.0955   28.4634 N.pl3     1 UNK         0.0000 
     20 C20         1.5045   53.3588   27.1008 C.ar      1 UNK         0.0000 
     21 C21         1.9205   54.4968   27.8002 C.ar      1 UNK         0.0000 
     22 C22         1.6120   54.6509   29.1509 C.ar      1 UNK         0.0000 
     23 C23         0.8862   53.6608   29.8090 C.ar      1 UNK         0.0000 
     24 C24         0.4718   52.5181   29.1293 C.ar      1 UNK         0.0000 
     25 C25         0.7806   52.3678   27.7790 C.ar      1 UNK         0.0000 
     26 F26         0.5804   53.8147   31.1162 F         1 UNK         0.0000 
     27 N27         2.0094   50.1089   19.6036 N.4       1 UNK         0.0000 
     28 C28         2.0059   49.0031   20.6889 C.3       1 UNK         0.0000 
     29 C29         1.8173   49.4729   18.2020 C.3       1 UNK         0.0000 
     30 H30        -1.0114   51.7650   20.2269 H         1 UNK         0.0000 
     31 H31        -0.7110   50.4740   19.0933 H         1 UNK         0.0000 
     32 H32        -0.5499   50.1813   20.8146 H         1 UNK         0.0000 
     33 H33         0.7108   53.2975   19.0456 H         1 UNK         0.0000 
     34 H34         2.2756   52.6517   18.5806 H         1 UNK         0.0000 
     35 H35         0.8016   52.0180   17.8708 H         1 UNK         0.0000 
     36 H36         3.5742   52.4348   20.4388 H         1 UNK         0.0000 
     37 H37         4.4955   53.3758   22.5257 H         1 UNK         0.0000 
     38 H38        -0.1616   51.7113   22.4648 H         1 UNK         0.0000 
     39 H39         4.9014   55.1039   23.5589 H         1 UNK         0.0000 
     40 H40         7.0577   55.8712   24.5262 H         1 UNK         0.0000 
     41 H41         5.4582   53.6112   29.0301 H         1 UNK         0.0000 
     42 H42         6.8616   54.6698   28.8825 H         1 UNK         0.0000 
     43 H43         2.4753   55.2719   27.2917 H         1 UNK         0.0000 
     44 H44         1.9258   55.5362   29.6822 H         1 UNK         0.0000 
     45 H45        -0.0908   51.7535   29.6470 H         1 UNK         0.0000 
     46 H46         0.4466   51.4817   27.2586 H         1 UNK         0.0000 
     47 H47         1.0007   48.5898   20.7656 H         1 UNK         0.0000 
     48 H48         2.3318   49.4447   21.6311 H         1 UNK         0.0000 
     49 H49         2.7054   48.2280   20.3792 H         1 UNK         0.0000 
     50 H50         0.7957   49.1056   18.1147 H         1 UNK         0.0000 
     51 H51         2.0481   50.2207   17.4445 H         1 UNK         0.0000 
     52 H52         2.5316   48.6532   18.0964 H         1 UNK         0.0000 
     53 H53         2.9556   50.4693   19.5772 H         1 UNK         0.0000 
@<TRIPOS>BOND
     1    1    2 1    
     2    1   30 1    
     3    1   31 1    
     4    1   32 1    
     5    2    3 1    
     6    2    4 1    
     7    2   27 1    
     8    3   33 1    
     9    3   34 1    
    10    3   35 1    
    11    4    9 ar   
    12    4    5 ar   
    13    5    6 ar   
    14    5   36 1    
    15    6    7 ar   
    16    6   37 1    
    17    7   12 ar   
    18    7    8 ar   
    19    8    9 ar   
    20    8   10 ar   
    21    9   38 1    
    22   10   11 ar   
    23   11   12 ar   
    24   11   20 1    
    25   12   13 1    
    26   13   18 ar   
    27   13   14 ar   
    28   14   15 ar   
    29   14   39 1    
    30   15   16 ar   
    31   15   40 1    
    32   16   17 ar   
    33   17   18 ar   
    34   17   19 1    
    35   19   41 1    
    36   19   42 1    
    37   20   25 ar   
    38   20   21 ar   
    39   21   22 ar   
    40   21   43 1    
    41   22   23 ar   
    42   22   44 1    
    43   23   24 ar   
    44   23   26 1    
    45   24   25 ar   
    46   24   45 1    
    47   25   46 1    
    48   27   28 1    
    49   27   29 1    
    50   27   53 1    
    51   28   47 1    
    52   28   48 1    
    53   28   49 1    
    54   29   50 1    
    55   29   51 1    
    56   29   52 1    
@<TRIPOS>SUBSTRUCTURE
     1 UNK         1 GROUP             0       ****    0 ROOT    
