@<TRIPOS>MOLECULE
ZINC63146597_1872
43   45    1
SMALL
USER_CHARGES


@<TRIPOS>ATOM
      1 C1         -0.7933   51.5284   22.8101 C.3       1 UNK         0.0000 
      2 C2         -0.9601   51.2591   24.3162 C.3       1 UNK         0.0000 
      3 C3         -0.8807   52.5603   25.1417 C.3       1 UNK         0.0000 
      4 C4         -1.1254   52.2796   26.6415 C.3       1 UNK         0.0000 
      5 C5         -0.1049   51.2628   27.2263 C.3       1 UNK         0.0000 
      6 C6         -0.1149   49.9764   26.3521 C.3       1 UNK         0.0000 
      7 C7          0.0926   50.2641   24.8466 C.3       1 UNK         0.0000 
      8 C8          1.3410   51.8194   27.3986 C.3       1 UNK         0.0000 
      9 N9          1.4613   53.0468   28.1978 N.pl3     1 UNK         0.0000 
     10 C10         2.3961   54.0632   28.1097 C.ar      1 UNK         0.0000 
     11 N11         2.1757   54.9388   29.0650 N.2       1 UNK         0.0000 
     12 N12         1.0987   54.4510   29.7967 N.2       1 UNK         0.0000 
     13 N13         0.6673   53.2566   29.2567 N.2       1 UNK         0.0000 
     14 C14         3.5180   54.1767   27.1121 C.ar      1 UNK         0.0000 
     15 C15         3.2126   54.1004   25.7469 C.ar      1 UNK         0.0000 
     16 C16         4.2104   54.2536   24.7859 C.ar      1 UNK         0.0000 
     17 C17         5.5288   54.4816   25.1761 C.ar      1 UNK         0.0000 
     18 C18         5.8525   54.5511   26.5289 C.ar      1 UNK         0.0000 
     19 C19         4.8553   54.4016   27.4949 C.ar      1 UNK         0.0000 
     20 N20         5.2228   54.4967   28.8388 N.pl3     1 UNK         0.0000 
     21 N21         6.5174   54.6354   24.2071 N.pl3     1 UNK         0.0000 
     22 H22         0.1744   51.9805   22.5895 H         1 UNK         0.0000 
     23 H23        -0.8761   50.6078   22.2292 H         1 UNK         0.0000 
     24 H24        -1.5662   52.2045   22.4424 H         1 UNK         0.0000 
     25 H25        -1.9476   50.8195   24.4835 H         1 UNK         0.0000 
     26 H26         0.0852   53.0461   24.9876 H         1 UNK         0.0000 
     27 H27        -1.6138   53.2770   24.7674 H         1 UNK         0.0000 
     28 H28        -1.1020   53.2163   27.2000 H         1 UNK         0.0000 
     29 H29        -2.1382   51.8924   26.7714 H         1 UNK         0.0000 
     30 H30        -0.4848   50.9589   28.2025 H         1 UNK         0.0000 
     31 H31        -1.0716   49.4657   26.4794 H         1 UNK         0.0000 
     32 H32         0.6393   49.2712   26.6998 H         1 UNK         0.0000 
     33 H33         1.0964   50.6481   24.6584 H         1 UNK         0.0000 
     34 H34         0.0428   49.3354   24.2770 H         1 UNK         0.0000 
     35 H35         1.9682   51.0728   27.8847 H         1 UNK         0.0000 
     36 H36         1.7843   52.0137   26.4273 H         1 UNK         0.0000 
     37 H37         2.1922   53.9602   25.4192 H         1 UNK         0.0000 
     38 H38         3.9536   54.2057   23.7381 H         1 UNK         0.0000 
     39 H39         6.8725   54.7208   26.8314 H         1 UNK         0.0000 
     40 H40         4.4802   54.5449   29.5180 H         1 UNK         0.0000 
     41 H41         6.1362   54.8680   29.0607 H         1 UNK         0.0000 
     42 H42         6.2772   54.4967   23.2361 H         1 UNK         0.0000 
     43 H43         7.4858   54.7424   24.4718 H         1 UNK         0.0000 
@<TRIPOS>BOND
     1    1    2 1    
     2    1   22 1    
     3    1   23 1    
     4    1   24 1    
     5    2    7 1    
     6    2    3 1    
     7    2   25 1    
     8    3    4 1    
     9    3   26 1    
    10    3   27 1    
    11    4    5 1    
    12    4   28 1    
    13    4   29 1    
    14    5    6 1    
    15    5    8 1    
    16    5   30 1    
    17    6    7 1    
    18    6   31 1    
    19    6   32 1    
    20    7   33 1    
    21    7   34 1    
    22    8    9 1    
    23    8   35 1    
    24    8   36 1    
    25    9   13 ar   
    26    9   10 ar   
    27   10   11 ar   
    28   10   14 1    
    29   11   12 ar   
    30   12   13 ar   
    31   14   19 ar   
    32   14   15 ar   
    33   15   16 ar   
    34   15   37 1    
    35   16   17 ar   
    36   16   38 1    
    37   17   18 ar   
    38   17   21 1    
    39   18   19 ar   
    40   18   39 1    
    41   19   20 1    
    42   20   40 1    
    43   20   41 1    
    44   21   42 1    
    45   21   43 1    
@<TRIPOS>SUBSTRUCTURE
     1 UNK         1 GROUP             0       ****    0 ROOT    
