@<TRIPOS>MOLECULE
ZINC03341234_3960
52   54    1
SMALL
USER_CHARGES


@<TRIPOS>ATOM
      1 C1          3.3633   55.8218   16.1525 C.3       1 UNK         0.0000 
      2 O2          3.4754   54.8147   17.1513 O.3       1 UNK         0.0000 
      3 C3          4.3016   55.0169   18.2464 C.ar      1 UNK         0.0000 
      4 C4          5.1117   56.1559   18.3989 C.ar      1 UNK         0.0000 
      5 C5          5.9160   56.3349   19.5341 C.ar      1 UNK         0.0000 
      6 C6          5.9046   55.3468   20.5221 C.ar      1 UNK         0.0000 
      7 C7          5.1038   54.2148   20.3827 C.ar      1 UNK         0.0000 
      8 C8          4.3042   54.0297   19.2470 C.ar      1 UNK         0.0000 
      9 N9          3.4972   52.8901   19.0445 N.pl3     1 UNK         0.0000 
     10 S10         3.2730   51.5115   20.1455 S.o2      1 UNK         0.0000 
     11 O11         4.5241   51.2967   20.8821 O.2       1 UNK         0.0000 
     12 O12         2.7041   50.4205   19.3507 O.2       1 UNK         0.0000 
     13 C13         2.0189   52.0107   21.3349 C.ar      1 UNK         0.0000 
     14 C14         2.4588   52.5650   22.5352 C.ar      1 UNK         0.0000 
     15 C15         1.5799   52.8852   23.5830 C.ar      1 UNK         0.0000 
     16 C16         0.2077   52.6099   23.3938 C.ar      1 UNK         0.0000 
     17 C17        -0.2396   52.0968   22.1767 C.ar      1 UNK         0.0000 
     18 C18         0.6429   51.8224   21.1364 C.ar      1 UNK         0.0000 
     19 Cl19       -0.0406   51.2729   19.6453 Cl        1 UNK         0.0000 
     20 Cl20       -1.0123   52.8967   24.5900 Cl        1 UNK         0.0000 
     21 C21         2.1365   53.4611   24.8737 C.2       1 UNK         0.0000 
     22 O22         1.5644   53.2976   25.9501 O.2       1 UNK         0.0000 
     23 N23         3.3233   54.0962   24.7645 N.am      1 UNK         0.0000 
     24 C24         4.1593   54.6768   25.8246 C.3       1 UNK         0.0000 
     25 C25         4.2680   53.8457   27.1317 C.3       1 UNK         0.0000 
     26 C26         5.7549   53.7474   27.5087 C.3       1 UNK         0.0000 
     27 C27         6.4808   54.7291   26.5947 C.3       1 UNK         0.0000 
     28 C28         5.6154   54.7796   25.3363 C.3       1 UNK         0.0000 
     29 Cl29        6.8779   55.5111   21.9432 Cl        1 UNK         0.0000 
     30 O30         6.7119   57.4465   19.7482 O.3       1 UNK         0.0000 
     31 C31         6.8493   58.4249   18.7193 C.3       1 UNK         0.0000 
     32 H32         2.6398   55.5019   15.4025 H         1 UNK         0.0000 
     33 H33         3.0081   56.7658   16.5695 H         1 UNK         0.0000 
     34 H34         4.3132   55.9892   15.6428 H         1 UNK         0.0000 
     35 H35         5.1098   56.9136   17.6336 H         1 UNK         0.0000 
     36 H36         5.1300   53.4941   21.1789 H         1 UNK         0.0000 
     37 H37         2.9807   52.8555   18.1786 H         1 UNK         0.0000 
     38 H38         3.5188   52.7231   22.6544 H         1 UNK         0.0000 
     39 H39        -1.2947   51.9202   22.0330 H         1 UNK         0.0000 
     40 H40         3.5849   54.3749   23.8328 H         1 UNK         0.0000 
     41 H41         3.8552   55.6948   26.0839 H         1 UNK         0.0000 
     42 H42         3.8907   52.8313   27.0049 H         1 UNK         0.0000 
     43 H43         3.6786   54.3018   27.9281 H         1 UNK         0.0000 
     44 H44         6.1169   52.7359   27.3196 H         1 UNK         0.0000 
     45 H45         5.9361   53.9646   28.5642 H         1 UNK         0.0000 
     46 H46         7.5036   54.4169   26.3844 H         1 UNK         0.0000 
     47 H47         6.5251   55.7036   27.0753 H         1 UNK         0.0000 
     48 H48         5.7883   55.6652   24.7248 H         1 UNK         0.0000 
     49 H49         5.8675   53.9259   24.7011 H         1 UNK         0.0000 
     50 H50         7.5359   59.2037   19.0516 H         1 UNK         0.0000 
     51 H51         7.2612   57.9903   17.8064 H         1 UNK         0.0000 
     52 H52         5.9050   58.9117   18.4836 H         1 UNK         0.0000 
@<TRIPOS>BOND
     1    1    2 1    
     2    1   32 1    
     3    1   33 1    
     4    1   34 1    
     5    2    3 1    
     6    3    8 ar   
     7    3    4 ar   
     8    4    5 ar   
     9    4   35 1    
    10    5    6 ar   
    11    5   30 1    
    12    6    7 ar   
    13    6   29 1    
    14    7    8 ar   
    15    7   36 1    
    16    8    9 1    
    17    9   10 1    
    18    9   37 1    
    19   10   11 2    
    20   10   12 2    
    21   10   13 1    
    22   13   18 ar   
    23   13   14 ar   
    24   14   15 ar   
    25   14   38 1    
    26   15   16 ar   
    27   15   21 1    
    28   16   17 ar   
    29   16   20 1    
    30   17   18 ar   
    31   17   39 1    
    32   18   19 1    
    33   21   22 2    
    34   21   23 am   BACKBONE|DICT|INTERRES
    35   23   24 1    
    36   23   40 1    
    37   24   28 1    
    38   24   25 1    
    39   24   41 1    
    40   25   26 1    
    41   25   42 1    
    42   25   43 1    
    43   26   27 1    
    44   26   44 1    
    45   26   45 1    
    46   27   28 1    
    47   27   46 1    
    48   27   47 1    
    49   28   48 1    
    50   28   49 1    
    51   30   31 1    
    52   31   50 1    
    53   31   51 1    
    54   31   52 1    
@<TRIPOS>SUBSTRUCTURE
     1 UNK         1 GROUP             0       ****    0 ROOT    
