ZINC39836223_948
                    3D
 Schrodinger Suite 2024-2.
 53 56  0  0  1  0            999 V2000
    7.1334   55.9708   16.4309 C   0  0  0  0  0  0
    6.6387   55.1136   17.6098 C   0  0  2  0  0  0
    7.1505   54.1512   17.5295 H   0  0  0  0  0  0
    5.1113   54.9181   17.5601 C   0  0  0  0  0  0
    4.6491   53.8632   18.5816 C   0  0  0  0  0  0
    5.2529   54.1596   19.9646 C   0  0  0  0  0  0
    6.3412   55.0407   20.0918 C   0  0  0  0  0  0
    6.7848   55.3099   21.7284 S   0  0  0  0  0  0
    5.4904   54.2939   22.3016 C   0  0  0  0  0  0
    4.7888   53.6834   21.2315 C   0  0  0  0  0  0
    3.6448   52.7991   21.4311 C   0  0  0  0  0  0
    3.0058   52.8125   22.4828 O   0  0  0  0  0  0
    3.3270   51.9715   20.4155 N   0  0  0  0  0  0
    2.1516   51.1004   20.4061 C   0  0  2  0  0  0
    2.1406   50.6014   21.3796 H   0  0  0  0  0  0
    2.2327   50.0179   19.3103 C   0  0  0  0  0  0
    1.9042   50.6690   17.9597 C   0  0  0  0  0  0
    0.5886   51.9461   18.3460 S   0  0  0  0  0  0
   -0.7437   51.4071   18.0531 O   0  0  0  0  0  0
    1.0046   53.2387   17.7958 O   0  0  0  0  0  0
    0.8465   51.8926   20.2039 C   0  0  0  0  0  0
    5.2260   54.1265   23.6681 N   0  0  0  0  0  0
    5.7444   54.7892   24.7304 C   0  0  0  0  0  0
    6.6037   55.6724   24.6623 O   0  0  0  0  0  0
    5.2239   54.3863   26.0944 C   0  0  0  0  0  0
    6.1369   54.3858   27.1604 C   0  0  0  0  0  0
    5.7384   54.0747   28.4546 C   0  0  0  0  0  0
    4.4115   53.7484   28.7157 C   0  0  0  0  0  0
    3.4854   53.7535   27.6786 C   0  0  0  0  0  0
    3.8716   54.0779   26.3759 C   0  0  0  0  0  0
    2.6075   54.0964   25.1956 Cl  0  0  0  0  0  0
    3.9043   53.3448   30.3157 Cl  0  0  0  0  0  0
    7.0366   55.7749   18.9494 C   0  0  0  0  0  0
    6.6716   56.9601   16.4297 H   0  0  0  0  0  0
    8.2145   56.1096   16.4678 H   0  0  0  0  0  0
    6.8998   55.4979   15.4759 H   0  0  0  0  0  0
    4.5962   55.8710   17.6894 H   0  0  0  0  0  0
    4.8209   54.5838   16.5643 H   0  0  0  0  0  0
    4.9502   52.8692   18.2450 H   0  0  0  0  0  0
    3.5580   53.8657   18.6114 H   0  0  0  0  0  0
    3.9551   51.8977   19.6307 H   0  0  0  0  0  0
    1.5153   49.2247   19.5302 H   0  0  0  0  0  0
    3.2071   49.5306   19.2884 H   0  0  0  0  0  0
    1.6143   50.0222   17.1328 H   0  0  0  0  0  0
    2.7983   51.2092   17.6406 H   0  0  0  0  0  0
    0.7783   52.8930   20.6294 H   0  0  0  0  0  0
    0.0258   51.2929   20.5989 H   0  0  0  0  0  0
    4.4613   53.4916   23.8657 H   0  0  0  0  0  0
    7.1747   54.6338   26.9977 H   0  0  0  0  0  0
    6.4759   54.0950   29.2362 H   0  0  0  0  0  0
    2.4521   53.5123   27.8842 H   0  0  0  0  0  0
    6.7279   56.8219   18.9561 H   0  0  0  0  0  0
    8.1222   55.7541   19.0736 H   0  0  0  0  0  0
  1  2  1  0  0  0
  1 34  1  0  0  0
  1 35  1  0  0  0
  1 36  1  0  0  0
  2  3  1  0  0  0
  2 33  1  0  0  0
  2  4  1  0  0  0
  4  5  1  0  0  0
  4 37  1  0  0  0
  4 38  1  0  0  0
  5  6  1  0  0  0
  5 39  1  0  0  0
  5 40  1  0  0  0
  6 10  1  0  0  0
  6  7  2  0  0  0
  7  8  1  0  0  0
  7 33  1  0  0  0
  8  9  1  0  0  0
  9 10  2  0  0  0
  9 22  1  0  0  0
 10 11  1  0  0  0
 11 12  2  0  0  0
 11 13  1  0  0  0
 13 14  1  0  0  0
 13 41  1  0  0  0
 14 15  1  0  0  0
 14 21  1  0  0  0
 14 16  1  0  0  0
 16 17  1  0  0  0
 16 42  1  0  0  0
 16 43  1  0  0  0
 17 18  1  0  0  0
 17 44  1  0  0  0
 17 45  1  0  0  0
 18 19  2  0  0  0
 18 20  2  0  0  0
 18 21  1  0  0  0
 21 46  1  0  0  0
 21 47  1  0  0  0
 22 23  1  0  0  0
 22 48  1  0  0  0
 23 24  2  0  0  0
 23 25  1  0  0  0
 25 30  2  0  0  0
 25 26  1  0  0  0
 26 27  2  0  0  0
 26 49  1  0  0  0
 27 28  1  0  0  0
 27 50  1  0  0  0
 28 29  2  0  0  0
 28 32  1  0  0  0
 29 30  1  0  0  0
 29 51  1  0  0  0
 30 31  1  0  0  0
 33 52  1  0  0  0
 33 53  1  0  0  0
M  END
> <i_i_glide_confnum>
285

> <i_i_glide_lignum>
949

> <i_i_glide_posenum>
387

> <i_i_glide_rotatable_bonds>
6

> <i_m_Source_File_Index>
146

> <b_m_subgroup_collapsed>
0

> <r_i_docking_score>
-5.55885

> <r_i_glide_ecoul>
-3.793

> <r_i_glide_eff_state_penalty>
0

> <r_i_glide_einternal>
5.12117

> <r_i_glide_emodel>
-67.1846

> <r_i_glide_energy>
-50.878

> <r_i_glide_erotb>
0.487409

> <r_i_glide_esite>
-0.0662683

> <r_i_glide_evdw>
-47.085

> <r_i_glide_gscore>
-5.55885

> <r_i_glide_hbond>
0

> <r_i_glide_ligand_efficiency>
-0.179318

> <r_i_glide_ligand_efficiency_ln>
-1.25369

> <r_i_glide_ligand_efficiency_sa>
-0.563305

> <r_i_glide_lipo>
-2.45486

> <r_i_glide_metal>
0

> <r_i_glide_rewards>
-0.601928

> <s_i_glide_gridfile>
wee1_glide-grid

> <s_m_Source_File>
wee1_decoys_glide_SP.sdf

> <s_m_Source_Path>
/Users/zhangxujun/Desktop

> <s_m_entry_id>
421

> <s_m_entry_name>
wee1_decoys_glide_SP.146

> <s_m_subgroup_title>
wee1_decoys_glide_SP

> <s_m_subgroupid>
wee1_decoys_glide_SP


$$$$
