@<TRIPOS>MOLECULE
ZINC38892985_5451
78   82    1
SMALL
USER_CHARGES


@<TRIPOS>ATOM
      1 C1         -6.5530   53.1658   14.9431 C.3       1 UNK         0.0000 
      2 C2         -5.4642   53.1236   16.0275 C.3       1 UNK         0.0000 
      3 C3         -5.1687   51.6989   16.5030 C.3       1 UNK         0.0000 
      4 C4         -4.1347   51.6932   17.6489 C.3       1 UNK         0.0000 
      5 N5         -2.8674   52.3963   17.3363 N.pl3     1 UNK         0.0000 
      6 C6         -3.0750   53.7030   16.6677 C.3       1 UNK         0.0000 
      7 C7         -4.1240   53.6789   15.5369 C.3       1 UNK         0.0000 
      8 C8         -1.7211   52.1877   18.1061 C.ar      1 UNK         0.0000 
      9 C9         -0.4605   52.5362   17.6021 C.ar      1 UNK         0.0000 
     10 C10         0.6985   52.2676   18.3243 C.ar      1 UNK         0.0000 
     11 C11         0.6286   51.6455   19.5733 C.ar      1 UNK         0.0000 
     12 C12        -0.6279   51.3222   20.0998 C.ar      1 UNK         0.0000 
     13 C13        -1.7850   51.5864   19.3720 C.ar      1 UNK         0.0000 
     14 C14         1.9368   51.2740   20.2860 C.3       1 UNK         0.0000 
     15 H15         2.5181   50.7483   19.5215 H         1 UNK         0.0000 
     16 C16         1.7800   50.2808   21.4647 C.3       1 UNK         0.0000 
     17 N17         2.6914   52.4698   20.6744 N.am      1 UNK         0.0000 
     18 C18         4.0045   52.4745   20.9671 C.2       1 UNK         0.0000 
     19 O19         4.7040   51.4629   20.9103 O.2       1 UNK         0.0000 
     20 C20         4.6303   53.8091   21.4116 C.3       1 UNK         0.0000 
     21 H21         3.7957   54.4777   21.6377 H         1 UNK         0.0000 
     22 C22         5.4528   54.3946   20.2350 C.3       1 UNK         0.0000 
     23 C23         6.2176   55.6503   20.6939 C.3       1 UNK         0.0000 
     24 C24         7.0758   55.3945   21.9505 C.3       1 UNK         0.0000 
     25 N25         6.1535   54.8964   23.0914 N.4       1 UNK         0.0000 
     26 C26         5.4676   53.5675   22.6988 C.3       1 UNK         0.0000 
     27 C27         6.9622   54.7910   24.4100 C.3       1 UNK         0.0000 
     28 C28         6.0966   54.6358   25.6493 C.2       1 UNK         0.0000 
     29 N29         4.8021   54.4933   25.7625 N.2       1 UNK         0.0000 
     30 C30         4.6452   54.3792   27.0693 C.2       1 UNK         0.0000 
     31 N31         5.7386   54.4973   27.7949 N.2       1 UNK         0.0000 
     32 O32         6.7371   54.6709   26.8414 O.3       1 UNK         0.0000 
     33 C33         3.3196   54.0751   27.6949 C.ar      1 UNK         0.0000 
     34 C34         2.9740   54.6043   28.9430 C.ar      1 UNK         0.0000 
     35 C35         1.7797   54.2299   29.5571 C.ar      1 UNK         0.0000 
     36 C36         0.9353   53.2987   28.9537 C.ar      1 UNK         0.0000 
     37 C37         1.2558   52.8079   27.6798 C.ar      1 UNK         0.0000 
     38 C38         2.4321   53.2066   27.0514 C.ar      1 UNK         0.0000 
     39 O39        -0.1720   52.9063   29.6794 O.3       1 UNK         0.0000 
     40 C40        -0.8999   51.7544   29.2562 C.3       1 UNK         0.0000 
     41 H41        -6.2651   52.5928   14.0596 H         1 UNK         0.0000 
     42 H42        -6.7479   54.1896   14.6211 H         1 UNK         0.0000 
     43 H43        -7.4923   52.7553   15.3147 H         1 UNK         0.0000 
     44 H44        -5.8000   53.7149   16.8805 H         1 UNK         0.0000 
     45 H45        -6.0947   51.2367   16.8492 H         1 UNK         0.0000 
     46 H46        -4.8461   51.0497   15.6883 H         1 UNK         0.0000 
     47 H47        -4.5721   52.0970   18.5602 H         1 UNK         0.0000 
     48 H48        -3.8968   50.6487   17.8555 H         1 UNK         0.0000 
     49 H49        -3.3394   54.4506   17.4122 H         1 UNK         0.0000 
     50 H50        -2.1426   54.0448   16.2214 H         1 UNK         0.0000 
     51 H51        -3.7477   53.1320   14.6716 H         1 UNK         0.0000 
     52 H52        -4.2714   54.6896   15.1570 H         1 UNK         0.0000 
     53 H53        -0.3587   52.9781   16.6227 H         1 UNK         0.0000 
     54 H54         1.6594   52.5187   17.8963 H         1 UNK         0.0000 
     55 H55        -0.7255   50.8446   21.0623 H         1 UNK         0.0000 
     56 H56        -2.7314   51.2993   19.8042 H         1 UNK         0.0000 
     57 H57         1.2391   49.3850   21.1597 H         1 UNK         0.0000 
     58 H58         2.7474   49.9446   21.8365 H         1 UNK         0.0000 
     59 H59         1.2509   50.7311   22.3044 H         1 UNK         0.0000 
     60 H60         2.1993   53.3516   20.6037 H         1 UNK         0.0000 
     61 H61         6.2194   53.6978   19.8916 H         1 UNK         0.0000 
     62 H62         4.8066   54.6923   19.4056 H         1 UNK         0.0000 
     63 H63         6.8564   56.0031   19.8824 H         1 UNK         0.0000 
     64 H64         5.5078   56.4558   20.8818 H         1 UNK         0.0000 
     65 H65         7.8580   54.6482   21.8002 H         1 UNK         0.0000 
     66 H66         7.5385   56.3245   22.2794 H         1 UNK         0.0000 
     67 H67         4.8116   53.2957   23.5245 H         1 UNK         0.0000 
     68 H68         6.2710   52.8346   22.5887 H         1 UNK         0.0000 
     69 H69         7.6687   53.9721   24.2699 H         1 UNK         0.0000 
     70 H70         7.5057   55.7319   24.4750 H         1 UNK         0.0000 
     71 H71         3.6376   55.2922   29.4458 H         1 UNK         0.0000 
     72 H72         1.5142   54.6317   30.5241 H         1 UNK         0.0000 
     73 H73         0.6133   52.1019   27.1743 H         1 UNK         0.0000 
     74 H74         2.6755   52.7930   26.0831 H         1 UNK         0.0000 
     75 H75        -1.6106   51.4616   30.0288 H         1 UNK         0.0000 
     76 H76        -1.4622   51.9485   28.3420 H         1 UNK         0.0000 
     77 H77        -0.2440   50.8968   29.0949 H         1 UNK         0.0000 
     78 H78         5.4332   55.5903   23.2409 H         1 UNK         0.0000 
@<TRIPOS>BOND
     1    1    2 1    
     2    1   41 1    
     3    1   42 1    
     4    1   43 1    
     5    2    7 1    
     6    2    3 1    
     7    2   44 1    
     8    3    4 1    
     9    3   45 1    
    10    3   46 1    
    11    4    5 1    
    12    4   47 1    
    13    4   48 1    
    14    5    6 1    
    15    5    8 1    
    16    6    7 1    
    17    6   49 1    
    18    6   50 1    
    19    7   51 1    
    20    7   52 1    
    21    8   13 ar   
    22    8    9 ar   
    23    9   10 ar   
    24    9   53 1    
    25   10   11 ar   
    26   10   54 1    
    27   11   12 ar   
    28   11   14 1    
    29   12   13 ar   
    30   12   55 1    
    31   13   56 1    
    32   14   15 1    
    33   14   16 1    
    34   14   17 1    
    35   16   57 1    
    36   16   58 1    
    37   16   59 1    
    38   17   18 am   BACKBONE|DICT|INTERRES
    39   17   60 1    
    40   18   19 2    
    41   18   20 1    
    42   20   21 1    
    43   20   26 1    
    44   20   22 1    
    45   22   23 1    
    46   22   61 1    
    47   22   62 1    
    48   23   24 1    
    49   23   63 1    
    50   23   64 1    
    51   24   25 1    
    52   24   65 1    
    53   24   66 1    
    54   25   26 1    
    55   25   27 1    
    56   25   78 1    
    57   26   67 1    
    58   26   68 1    
    59   27   28 1    
    60   27   69 1    
    61   27   70 1    
    62   28   32 1    
    63   28   29 2    
    64   29   30 1    
    65   30   31 2    
    66   30   33 1    
    67   31   32 1    
    68   33   38 ar   
    69   33   34 ar   
    70   34   35 ar   
    71   34   71 1    
    72   35   36 ar   
    73   35   72 1    
    74   36   37 ar   
    75   36   39 1    
    76   37   38 ar   
    77   37   73 1    
    78   38   74 1    
    79   39   40 1    
    80   40   75 1    
    81   40   76 1    
    82   40   77 1    
@<TRIPOS>SUBSTRUCTURE
     1 UNK         1 GROUP             0       ****    0 ROOT    
