ZINC32962272_5899
                    3D
 Schrodinger Suite 2024-2.
 60 63  0  0  1  0            999 V2000
    4.5171   54.4709   19.5523 C   0  0  0  0  0  0
    5.2334   54.5552   20.8872 C   0  0  0  0  0  0
    6.4778   55.1925   20.9011 C   0  0  0  0  0  0
    7.2018   55.2970   22.0811 C   0  0  0  0  0  0
    6.6979   54.7606   23.2602 C   0  0  0  0  0  0
    5.4452   54.1560   23.2632 C   0  0  0  0  0  0
    4.6751   54.0694   22.0920 C   0  0  0  0  0  0
    3.2937   53.5244   22.1988 C   0  0  0  0  0  0
    2.4911   54.0054   23.1738 C   0  0  0  0  0  0
    1.1405   53.4021   23.5284 C   0  0  0  0  0  0
    0.8389   52.0898   22.9313 N   0  0  0  0  0  0
    1.3781   51.9791   21.5643 C   0  0  0  0  0  0
    2.9153   52.2004   21.5359 C   0  0  0  0  0  0
   -0.0151   51.1681   23.5445 C   0  0  0  0  0  0
    0.2792   50.8399   24.8769 C   0  0  0  0  0  0
   -0.4368   49.8704   25.5703 C   0  0  0  0  0  0
   -1.4767   49.1892   24.9497 C   0  0  0  0  0  0
   -1.8022   49.5133   23.6303 C   0  0  0  0  0  0
   -1.1159   50.5179   22.9212 C   0  0  0  0  0  0
   -1.6381   50.8847   21.5620 C   0  0  0  0  0  0
   -1.6794   52.0972   21.2493 O   0  0  0  0  0  0
   -2.0690   49.9573   20.8368 O   0  5  0  0  0  0
   -2.1098   48.1739   25.6817 N   0  0  0  0  0  0
   -3.8522   47.8305   25.6687 S   0  0  0  0  0  0
   -4.0303   46.6125   26.4675 O   0  0  0  0  0  0
   -4.3298   47.8761   24.2823 O   0  0  0  0  0  0
   -4.6315   49.1674   26.5775 C   0  0  0  0  0  0
   -4.4948   49.2324   27.9656 C   0  0  0  0  0  0
   -5.1406   50.2378   28.6836 C   0  0  0  0  0  0
   -5.9408   51.1810   28.0216 C   0  0  0  0  0  0
   -6.0461   51.1213   26.6225 C   0  0  0  0  0  0
   -5.3941   50.1218   25.9046 C   0  0  0  0  0  0
   -6.6496   52.2408   28.8155 C   0  0  0  0  0  0
   -6.4667   52.4439   30.0178 O   0  0  0  0  0  0
   -7.6962   53.0955   28.1016 C   0  0  0  0  0  0
    4.9875   55.0964   18.7919 H   0  0  0  0  0  0
    4.4849   53.4455   19.1842 H   0  0  0  0  0  0
    3.5044   54.8350   19.6631 H   0  0  0  0  0  0
    6.8982   55.5952   19.9911 H   0  0  0  0  0  0
    8.1695   55.7774   22.0801 H   0  0  0  0  0  0
    7.2744   54.8287   24.1702 H   0  0  0  0  0  0
    5.0570   53.7723   24.1959 H   0  0  0  0  0  0
    2.8132   54.8755   23.7282 H   0  0  0  0  0  0
    0.3610   54.1193   23.2820 H   0  0  0  0  0  0
    1.0873   53.3472   24.6147 H   0  0  0  0  0  0
    1.1722   50.9845   21.1656 H   0  0  0  0  0  0
    0.8712   52.6814   20.8986 H   0  0  0  0  0  0
    3.3954   51.3875   22.0810 H   0  0  0  0  0  0
    3.3076   52.1323   20.5238 H   0  0  0  0  0  0
    1.1056   51.3126   25.3871 H   0  0  0  0  0  0
   -0.1602   49.6303   26.5883 H   0  0  0  0  0  0
   -2.6051   48.9907   23.1363 H   0  0  0  0  0  0
   -1.6943   47.9793   26.5916 H   0  0  0  0  0  0
   -3.8844   48.5063   28.4894 H   0  0  0  0  0  0
   -5.0185   50.2619   29.7576 H   0  0  0  0  0  0
   -6.6395   51.8343   26.0694 H   0  0  0  0  0  0
   -5.4970   50.0830   24.8289 H   0  0  0  0  0  0
   -8.4042   52.4561   27.5725 H   0  0  0  0  0  0
   -7.2208   53.7501   27.3723 H   0  0  0  0  0  0
   -8.2545   53.6999   28.8158 H   0  0  0  0  0  0
  1  2  1  0  0  0
  1 36  1  0  0  0
  1 37  1  0  0  0
  1 38  1  0  0  0
  2  7  2  0  0  0
  2  3  1  0  0  0
  3  4  2  0  0  0
  3 39  1  0  0  0
  4  5  1  0  0  0
  4 40  1  0  0  0
  5  6  2  0  0  0
  5 41  1  0  0  0
  6  7  1  0  0  0
  6 42  1  0  0  0
  7  8  1  0  0  0
  8 13  1  0  0  0
  8  9  2  0  0  0
  9 10  1  0  0  0
  9 43  1  0  0  0
 10 11  1  0  0  0
 10 44  1  0  0  0
 10 45  1  0  0  0
 11 12  1  0  0  0
 11 14  1  0  0  0
 12 13  1  0  0  0
 12 46  1  0  0  0
 12 47  1  0  0  0
 13 48  1  0  0  0
 13 49  1  0  0  0
 14 19  2  0  0  0
 14 15  1  0  0  0
 15 16  2  0  0  0
 15 50  1  0  0  0
 16 17  1  0  0  0
 16 51  1  0  0  0
 17 18  2  0  0  0
 17 23  1  0  0  0
 18 19  1  0  0  0
 18 52  1  0  0  0
 19 20  1  0  0  0
 20 21  2  0  0  0
 20 22  1  0  0  0
 23 24  1  0  0  0
 23 53  1  0  0  0
 24 25  2  0  0  0
 24 26  2  0  0  0
 24 27  1  0  0  0
 27 32  2  0  0  0
 27 28  1  0  0  0
 28 29  2  0  0  0
 28 54  1  0  0  0
 29 30  1  0  0  0
 29 55  1  0  0  0
 30 31  2  0  0  0
 30 33  1  0  0  0
 31 32  1  0  0  0
 31 56  1  0  0  0
 32 57  1  0  0  0
 33 34  2  0  0  0
 33 35  1  0  0  0
 35 58  1  0  0  0
 35 59  1  0  0  0
 35 60  1  0  0  0
M  CHG  1  22  -1
M  END
> <i_i_glide_confnum>
321

> <i_i_glide_lignum>
5900

> <i_i_glide_posenum>
210

> <i_i_glide_rotatable_bonds>
7

> <i_m_Source_File_Index>
3342

> <b_m_subgroup_collapsed>
0

> <r_i_docking_score>
-4.74732

> <r_i_glide_ecoul>
-9.44207

> <r_i_glide_eff_state_penalty>
0

> <r_i_glide_einternal>
4.5473

> <r_i_glide_emodel>
-55.7729

> <r_i_glide_energy>
-42.8965

> <r_i_glide_erotb>
0.42442

> <r_i_glide_esite>
-0.223215

> <r_i_glide_evdw>
-33.4545

> <r_i_glide_gscore>
-4.74732

> <r_i_glide_hbond>
-0.292532

> <r_i_glide_ligand_efficiency>
-0.135638

> <r_i_glide_ligand_efficiency_ln>
-1.04214

> <r_i_glide_ligand_efficiency_sa>
-0.44368

> <r_i_glide_lipo>
-1.61906

> <r_i_glide_metal>
0

> <r_i_glide_rewards>
0.0520993

> <s_i_glide_gridfile>
wee1_glide-grid

> <s_m_Source_File>
wee1_decoys_glide_SP.sdf

> <s_m_Source_Path>
/Users/zhangxujun/Desktop

> <s_m_entry_id>
3617

> <s_m_entry_name>
wee1_decoys_glide_SP.3342

> <s_m_subgroup_title>
wee1_decoys_glide_SP

> <s_m_subgroupid>
wee1_decoys_glide_SP


$$$$
