ZINC40820321_4796
                    3D
 Schrodinger Suite 2024-2.
 42 45  0  0  1  0            999 V2000
   -1.6603   51.1802   24.6826 C   0  0  0  0  0  0
   -1.4087   50.4931   23.5003 C   0  0  0  0  0  0
   -0.3894   49.5491   23.4623 C   0  0  0  0  0  0
    0.3451   49.2597   24.6077 C   0  0  0  0  0  0
    0.1032   49.9527   25.7893 C   0  0  0  0  0  0
   -0.8755   50.9515   25.8245 C   0  0  0  0  0  0
   -1.1489   51.7665   27.0677 C   0  0  0  0  0  0
   -2.3294   52.0512   27.2817 O   0  0  0  0  0  0
   -0.1408   52.1985   27.8902 N   0  0  0  0  0  0
   -0.4953   52.7601   29.2038 C   0  0  0  0  0  0
    0.7690   52.6669   30.0262 C   0  0  0  0  0  0
    1.8559   52.8236   28.9983 C   0  0  0  0  0  0
    1.3342   52.1827   27.6941 C   0  0  2  0  0  0
    1.7186   51.1639   27.6824 H   0  0  0  0  0  0
    1.9034   52.9037   26.4549 C   0  0  0  0  0  0
    1.3017   53.1382   25.2242 C   0  0  0  0  0  0
    2.1624   53.7259   24.3437 N   0  0  0  0  0  0
    1.9128   53.9411   23.3887 H   0  0  0  0  0  0
    3.3520   53.9698   24.9737 C   0  0  0  0  0  0
    3.2171   53.5104   26.3215 C   0  0  0  0  0  0
    4.3178   53.6969   27.1844 C   0  0  0  0  0  0
    5.4588   54.3425   26.7186 C   0  0  0  0  0  0
    5.5436   54.7697   25.4000 C   0  0  0  0  0  0
    4.5178   54.5545   24.4873 C   0  0  0  0  0  0
    6.9345   55.6228   24.8816 Cl  0  0  0  0  0  0
   -0.0978   48.8984   22.2675 N   0  0  0  0  0  0
   -2.4490   51.9199   24.6951 H   0  0  0  0  0  0
   -1.9972   50.7046   22.6200 H   0  0  0  0  0  0
    1.1042   48.4968   24.5944 H   0  0  0  0  0  0
    0.6656   49.6852   26.6705 H   0  0  0  0  0  0
   -0.7622   53.8110   29.0892 H   0  0  0  0  0  0
   -1.2970   52.2039   29.6936 H   0  0  0  0  0  0
    0.8034   53.4145   30.8198 H   0  0  0  0  0  0
    0.8321   51.6967   30.5084 H   0  0  0  0  0  0
    2.0595   53.8881   28.8660 H   0  0  0  0  0  0
    2.7699   52.3432   29.3462 H   0  0  0  0  0  0
    0.3124   52.9159   24.8656 H   0  0  0  0  0  0
    4.3008   53.3562   28.2049 H   0  0  0  0  0  0
    6.2869   54.5149   27.3919 H   0  0  0  0  0  0
    4.6017   54.8926   23.4650 H   0  0  0  0  0  0
   -0.5618   49.2105   21.4279 H   0  0  0  0  0  0
    0.8052   48.4527   22.2019 H   0  0  0  0  0  0
  1  6  2  0  0  0
  1  2  1  0  0  0
  1 27  1  0  0  0
  2  3  2  0  0  0
  2 28  1  0  0  0
  3  4  1  0  0  0
  3 26  1  0  0  0
  4  5  2  0  0  0
  4 29  1  0  0  0
  5  6  1  0  0  0
  5 30  1  0  0  0
  6  7  1  0  0  0
  7  8  2  0  0  0
  7  9  1  0  0  0
  9 13  1  0  0  0
  9 10  1  0  0  0
 10 11  1  0  0  0
 10 31  1  0  0  0
 10 32  1  0  0  0
 11 12  1  0  0  0
 11 33  1  0  0  0
 11 34  1  0  0  0
 12 13  1  0  0  0
 12 35  1  0  0  0
 12 36  1  0  0  0
 13 14  1  0  0  0
 13 15  1  0  0  0
 15 20  1  0  0  0
 15 16  2  0  0  0
 16 17  1  0  0  0
 16 37  1  0  0  0
 17 18  1  0  0  0
 17 19  1  0  0  0
 19 24  2  0  0  0
 19 20  1  0  0  0
 20 21  2  0  0  0
 21 22  1  0  0  0
 21 38  1  0  0  0
 22 23  2  0  0  0
 22 39  1  0  0  0
 23 24  1  0  0  0
 23 25  1  0  0  0
 24 40  1  0  0  0
 26 41  1  0  0  0
 26 42  1  0  0  0
M  END
> <i_i_glide_confnum>
22

> <i_i_glide_lignum>
4797

> <i_i_glide_posenum>
391

> <i_i_glide_rotatable_bonds>
3

> <i_m_Source_File_Index>
4396

> <b_m_subgroup_collapsed>
0

> <r_i_docking_score>
-4.59585

> <r_i_glide_ecoul>
-0.334199

> <r_i_glide_eff_state_penalty>
0

> <r_i_glide_einternal>
8.82001

> <r_i_glide_emodel>
-36.9415

> <r_i_glide_energy>
-31.4121

> <r_i_glide_erotb>
0.491776

> <r_i_glide_esite>
-0.0471811

> <r_i_glide_evdw>
-31.0779

> <r_i_glide_gscore>
-4.59585

> <r_i_glide_hbond>
0

> <r_i_glide_ligand_efficiency>
-0.191494

> <r_i_glide_ligand_efficiency_ln>
-1.1

> <r_i_glide_ligand_efficiency_sa>
-0.552363

> <r_i_glide_lipo>
-2.25149

> <r_i_glide_metal>
0

> <r_i_glide_rewards>
-1.18492

> <s_i_glide_gridfile>
wee1_glide-grid

> <s_m_Source_File>
wee1_decoys_glide_SP.sdf

> <s_m_Source_Path>
/Users/zhangxujun/Desktop

> <s_m_entry_id>
4671

> <s_m_entry_name>
wee1_decoys_glide_SP.4396

> <s_m_subgroup_title>
wee1_decoys_glide_SP

> <s_m_subgroupid>
wee1_decoys_glide_SP


$$$$
