ZINC14031773_3521
                    3D
 Schrodinger Suite 2024-2.
 50 52  0  0  1  0            999 V2000
   -5.1763   45.2202   24.1036 C   0  0  0  0  0  0
   -3.9509   46.0996   24.3095 C   0  0  0  0  0  0
   -3.8850   46.9366   25.4249 C   0  0  0  0  0  0
   -2.7867   47.7737   25.6179 C   0  0  0  0  0  0
   -1.7200   47.7910   24.7044 C   0  0  0  0  0  0
   -1.7908   46.9354   23.5951 C   0  0  0  0  0  0
   -2.8884   46.0969   23.3946 C   0  0  0  0  0  0
   -2.8898   44.9422   21.8770 Br  0  0  0  0  0  0
   -0.5480   48.7431   24.8535 C   0  0  0  0  0  0
    0.2462   48.8871   23.9201 O   0  0  0  0  0  0
   -0.4407   49.3951   26.0411 N   0  0  0  0  0  0
   -0.0734   50.6887   26.3291 C   0  0  0  0  0  0
    0.3048   51.8915   25.1986 S   0  0  0  0  0  0
   -0.0955   50.8967   27.6817 N   0  0  0  0  0  0
    0.0441   52.1557   28.2723 N   0  0  0  0  0  0
    1.1153   52.4120   29.0494 C   0  0  0  0  0  0
    2.0191   51.6037   29.2815 O   0  0  0  0  0  0
    1.2016   53.8491   29.6212 C   0  0  1  0  0  0
    0.6727   54.5545   28.9761 H   0  0  0  0  0  0
    0.5584   53.9107   31.0194 C   0  0  0  0  0  0
    2.5660   54.2782   29.7834 O   0  0  0  0  0  0
    3.4291   54.3586   28.7015 C   0  0  0  0  0  0
    4.7819   54.4698   29.0010 C   0  0  0  0  0  0
    5.7494   54.4965   28.0015 C   0  0  0  0  0  0
    5.3704   54.4425   26.6411 C   0  0  0  0  0  0
    6.3268   54.4694   25.5958 C   0  0  0  0  0  0
    5.9209   54.4056   24.2660 C   0  0  0  0  0  0
    4.5703   54.3044   23.9459 C   0  0  0  0  0  0
    3.6042   54.2808   24.9490 C   0  0  0  0  0  0
    3.9845   54.3505   26.3126 C   0  0  0  0  0  0
    3.0284   54.3194   27.3586 C   0  0  0  0  0  0
   -5.8746   45.2817   24.9392 H   0  0  0  0  0  0
   -5.7012   45.5191   23.1957 H   0  0  0  0  0  0
   -4.8957   44.1746   23.9846 H   0  0  0  0  0  0
   -4.6902   46.9565   26.1447 H   0  0  0  0  0  0
   -2.7927   48.4217   26.4818 H   0  0  0  0  0  0
   -0.9921   46.9205   22.8656 H   0  0  0  0  0  0
   -0.9414   48.9331   26.7961 H   0  0  0  0  0  0
   -0.6736   50.2931   28.2548 H   0  0  0  0  0  0
   -0.7715   52.7418   28.1797 H   0  0  0  0  0  0
   -0.4877   53.6039   31.0004 H   0  0  0  0  0  0
    1.0761   53.2593   31.7257 H   0  0  0  0  0  0
    0.5928   54.9237   31.4217 H   0  0  0  0  0  0
    5.0869   54.4997   30.0359 H   0  0  0  0  0  0
    6.7964   54.5498   28.2648 H   0  0  0  0  0  0
    7.3763   54.5223   25.8385 H   0  0  0  0  0  0
    6.6591   54.4194   23.4773 H   0  0  0  0  0  0
    4.2664   54.2518   22.9100 H   0  0  0  0  0  0
    2.5579   54.2039   24.6907 H   0  0  0  0  0  0
    1.9854   54.2478   27.0901 H   0  0  0  0  0  0
  1  2  1  0  0  0
  1 32  1  0  0  0
  1 33  1  0  0  0
  1 34  1  0  0  0
  2  7  2  0  0  0
  2  3  1  0  0  0
  3  4  2  0  0  0
  3 35  1  0  0  0
  4  5  1  0  0  0
  4 36  1  0  0  0
  5  6  2  0  0  0
  5  9  1  0  0  0
  6  7  1  0  0  0
  6 37  1  0  0  0
  7  8  1  0  0  0
  9 10  2  0  0  0
  9 11  1  0  0  0
 11 12  1  0  0  0
 11 38  1  0  0  0
 12 13  2  0  0  0
 12 14  1  0  0  0
 14 15  1  0  0  0
 14 39  1  0  0  0
 15 16  1  0  0  0
 15 40  1  0  0  0
 16 17  2  0  0  0
 16 18  1  0  0  0
 18 19  1  0  0  0
 18 20  1  0  0  0
 18 21  1  0  0  0
 20 41  1  0  0  0
 20 42  1  0  0  0
 20 43  1  0  0  0
 21 22  1  0  0  0
 22 31  2  0  0  0
 22 23  1  0  0  0
 23 24  2  0  0  0
 23 44  1  0  0  0
 24 25  1  0  0  0
 24 45  1  0  0  0
 25 30  2  0  0  0
 25 26  1  0  0  0
 26 27  2  0  0  0
 26 46  1  0  0  0
 27 28  1  0  0  0
 27 47  1  0  0  0
 28 29  2  0  0  0
 28 48  1  0  0  0
 29 30  1  0  0  0
 29 49  1  0  0  0
 30 31  1  0  0  0
 31 50  1  0  0  0
M  END
> <i_i_glide_confnum>
154

> <i_i_glide_lignum>
3522

> <i_i_glide_posenum>
332

> <i_i_glide_rotatable_bonds>
9

> <i_m_Source_File_Index>
2116

> <b_m_subgroup_collapsed>
0

> <r_i_docking_score>
-6.272

> <r_i_glide_ecoul>
-9.01651

> <r_i_glide_eff_state_penalty>
0

> <r_i_glide_einternal>
7.56726

> <r_i_glide_emodel>
-66.6672

> <r_i_glide_energy>
-51.5251

> <r_i_glide_erotb>
0.687222

> <r_i_glide_esite>
-0.28161

> <r_i_glide_evdw>
-42.5086

> <r_i_glide_gscore>
-6.272

> <r_i_glide_hbond>
-0.594006

> <r_i_glide_ligand_efficiency>
-0.209067

> <r_i_glide_ligand_efficiency_ln>
-1.42507

> <r_i_glide_ligand_efficiency_sa>
-0.649619

> <r_i_glide_lipo>
-2.8992

> <r_i_glide_metal>
0

> <r_i_glide_rewards>
0.293503

> <s_i_glide_gridfile>
wee1_glide-grid

> <s_m_Source_File>
wee1_decoys_glide_SP.sdf

> <s_m_Source_Path>
/Users/zhangxujun/Desktop

> <s_m_entry_id>
2391

> <s_m_entry_name>
wee1_decoys_glide_SP.2116

> <s_m_subgroup_title>
wee1_decoys_glide_SP

> <s_m_subgroupid>
wee1_decoys_glide_SP


$$$$
