ZINC04150003_3961
                    3D
 Schrodinger Suite 2024-2.
 70 73  0  0  1  0            999 V2000
   -3.0187   52.3859   23.0324 C   0  0  0  0  0  0
   -1.7813   52.5932   23.9305 C   0  0  2  0  0  0
   -1.6355   53.6619   24.0969 H   0  0  0  0  0  0
   -0.5416   52.0622   23.2048 C   0  0  0  0  0  0
    0.3110   51.0887   23.7209 C   0  0  0  0  0  0
    1.5002   50.6667   22.5320 S   0  0  0  0  0  0
    0.7907   51.8590   21.4848 C   0  0  0  0  0  0
   -0.2202   52.4918   22.0018 N   0  0  0  0  0  0
    1.1992   52.0973   20.1983 N   0  0  0  0  0  0
    2.7232   51.6198   19.4627 S   0  0  0  0  0  0
    3.1271   50.3530   20.0783 O   0  0  0  0  0  0
    2.5131   51.7483   18.0167 O   0  0  0  0  0  0
    3.8906   52.8823   19.9705 C   0  0  0  0  0  0
    4.4281   53.7584   19.0245 C   0  0  0  0  0  0
    5.3063   54.7609   19.4320 C   0  0  0  0  0  0
    5.6371   54.8864   20.7802 C   0  0  0  0  0  0
    5.1045   54.0097   21.7251 C   0  0  0  0  0  0
    4.2346   53.0009   21.3188 C   0  0  0  0  0  0
    6.7164   56.1337   21.2822 Cl  0  0  0  0  0  0
    0.1389   50.4220   25.0587 C   0  0  0  0  0  0
   -0.6112   51.4033   26.0113 C   0  0  1  0  0  0
   -1.9493   51.8713   25.3144 C   0  0  1  0  0  0
   -2.4464   50.9379   25.0509 H   0  0  0  0  0  0
   -2.8915   52.5709   26.3574 C   0  0  2  0  0  0
   -2.3108   53.3608   26.8327 H   0  0  0  0  0  0
   -3.3376   51.5665   27.4665 C   0  0  2  0  0  0
   -3.9473   52.0968   28.1872 H   0  0  0  0  0  0
   -2.0284   51.2105   28.2181 C   0  0  0  0  0  0
   -0.9822   50.5892   27.2687 C   0  0  0  0  0  0
   -4.1978   50.3172   27.0261 C   0  0  2  0  0  0
   -3.5749   49.6941   26.3950 H   0  0  0  0  0  0
   -5.4420   50.6913   26.1870 C   0  0  0  0  0  0
   -4.6663   49.4861   28.2568 C   0  0  0  0  0  0
   -5.1726   50.1049   29.1987 O   0  0  0  0  0  0
   -4.5025   48.1355   28.2864 N   0  0  0  0  0  0
   -4.7602   47.3901   29.5326 C   0  0  0  0  0  0
   -4.0967   47.3576   27.0952 C   0  0  0  0  0  0
   -4.1442   45.8393   27.2035 C   0  0  0  0  0  0
   -4.9115   45.0414   26.4477 C   0  0  0  0  0  0
   -3.9821   53.3062   25.8391 O   0  0  0  0  0  0
    0.3248   52.5731   26.4117 C   0  0  0  0  0  0
   -2.8950   52.8960   22.0823 H   0  0  0  0  0  0
   -3.1761   51.3272   22.8141 H   0  0  0  0  0  0
   -3.9434   52.7576   23.4631 H   0  0  0  0  0  0
    0.7139   52.7740   19.6316 H   0  0  0  0  0  0
    4.1727   53.6636   17.9794 H   0  0  0  0  0  0
    5.7239   55.4417   18.7036 H   0  0  0  0  0  0
    5.3655   54.1090   22.7666 H   0  0  0  0  0  0
    3.8234   52.3226   22.0510 H   0  0  0  0  0  0
    1.0904   50.0870   25.4734 H   0  0  0  0  0  0
   -0.4459   49.5164   24.8869 H   0  0  0  0  0  0
   -1.6043   52.0917   28.6996 H   0  0  0  0  0  0
   -2.2314   50.5072   29.0300 H   0  0  0  0  0  0
   -0.0953   50.2644   27.8092 H   0  0  0  0  0  0
   -1.4460   49.6964   26.8797 H   0  0  0  0  0  0
   -6.0707   49.8246   25.9798 H   0  0  0  0  0  0
   -6.0608   51.4335   26.6942 H   0  0  0  0  0  0
   -5.1595   51.0920   25.2134 H   0  0  0  0  0  0
   -5.0235   48.0269   30.3768 H   0  0  0  0  0  0
   -5.5722   46.6799   29.3854 H   0  0  0  0  0  0
   -3.8666   46.8349   29.8198 H   0  0  0  0  0  0
   -3.0516   47.5945   26.8844 H   0  0  0  0  0  0
   -4.6830   47.6733   26.2312 H   0  0  0  0  0  0
   -3.4992   45.3978   27.9507 H   0  0  0  0  0  0
   -5.5699   45.4412   25.6908 H   0  0  0  0  0  0
   -4.8924   43.9693   26.5809 H   0  0  0  0  0  0
   -3.6523   53.8784   25.1394 H   0  0  0  0  0  0
    0.5608   53.2176   25.5653 H   0  0  0  0  0  0
   -0.1042   53.1960   27.1979 H   0  0  0  0  0  0
    1.2726   52.1967   26.8011 H   0  0  0  0  0  0
  1  2  1  0  0  0
  1 42  1  0  0  0
  1 43  1  0  0  0
  1 44  1  0  0  0
  2  3  1  0  0  0
  2 22  1  0  0  0
  2  4  1  0  0  0
  4  8  1  0  0  0
  4  5  2  0  0  0
  5  6  1  0  0  0
  5 20  1  0  0  0
  6  7  1  0  0  0
  7  8  2  0  0  0
  7  9  1  0  0  0
  9 10  1  0  0  0
  9 45  1  0  0  0
 10 11  2  0  0  0
 10 12  2  0  0  0
 10 13  1  0  0  0
 13 18  2  0  0  0
 13 14  1  0  0  0
 14 15  2  0  0  0
 14 46  1  0  0  0
 15 16  1  0  0  0
 15 47  1  0  0  0
 16 17  2  0  0  0
 16 19  1  0  0  0
 17 18  1  0  0  0
 17 48  1  0  0  0
 18 49  1  0  0  0
 20 21  1  0  0  0
 20 50  1  0  0  0
 20 51  1  0  0  0
 21 29  1  0  0  0
 21 22  1  0  0  0
 21 41  1  0  0  0
 22 23  1  0  0  0
 22 24  1  0  0  0
 24 25  1  0  0  0
 24 26  1  0  0  0
 24 40  1  0  0  0
 26 27  1  0  0  0
 26 28  1  0  0  0
 26 30  1  0  0  0
 28 29  1  0  0  0
 28 52  1  0  0  0
 28 53  1  0  0  0
 29 54  1  0  0  0
 29 55  1  0  0  0
 30 31  1  0  0  0
 30 32  1  0  0  0
 30 33  1  0  0  0
 32 56  1  0  0  0
 32 57  1  0  0  0
 32 58  1  0  0  0
 33 34  2  0  0  0
 33 35  1  0  0  0
 35 36  1  0  0  0
 35 37  1  0  0  0
 36 59  1  0  0  0
 36 60  1  0  0  0
 36 61  1  0  0  0
 37 38  1  0  0  0
 37 62  1  0  0  0
 37 63  1  0  0  0
 38 39  2  0  0  0
 38 64  1  0  0  0
 39 65  1  0  0  0
 39 66  1  0  0  0
 40 67  1  0  0  0
 41 68  1  0  0  0
 41 69  1  0  0  0
 41 70  1  0  0  0
M  END
> <i_i_glide_confnum>
220

> <i_i_glide_lignum>
3962

> <i_i_glide_posenum>
321

> <i_i_glide_rotatable_bonds>
9

> <i_m_Source_File_Index>
3529

> <b_m_subgroup_collapsed>
0

> <r_i_docking_score>
-2.21712

> <r_i_glide_ecoul>
-0.908182

> <r_i_glide_eff_state_penalty>
0

> <r_i_glide_einternal>
6.83785

> <r_i_glide_emodel>
-34.8371

> <r_i_glide_energy>
-34.8392

> <r_i_glide_erotb>
0.47335

> <r_i_glide_esite>
-0.376446

> <r_i_glide_evdw>
-33.931

> <r_i_glide_gscore>
-2.21712

> <r_i_glide_hbond>
0

> <r_i_glide_ligand_efficiency>
-0.0615866

> <r_i_glide_ligand_efficiency_ln>
-0.483715

> <r_i_glide_ligand_efficiency_sa>
-0.203354

> <r_i_glide_lipo>
-0.977825

> <r_i_glide_metal>
0

> <r_i_glide_rewards>
0.496582

> <s_i_glide_gridfile>
wee1_glide-grid

> <s_m_Source_File>
wee1_decoys_glide_SP.sdf

> <s_m_Source_Path>
/Users/zhangxujun/Desktop

> <s_m_entry_id>
3804

> <s_m_entry_name>
wee1_decoys_glide_SP.3529

> <s_m_subgroup_title>
wee1_decoys_glide_SP

> <s_m_subgroupid>
wee1_decoys_glide_SP


$$$$
