ZINC02857383_2997
                    3D
 Schrodinger Suite 2024-2.
 51 53  0  0  1  0            999 V2000
    5.1872   56.8031   17.3702 C   0  0  0  0  0  0
    5.1708   55.7765   18.4830 C   0  0  0  0  0  0
    4.3366   54.6997   18.7484 C   0  0  0  0  0  0
    4.8355   54.1055   19.9347 C   0  0  0  0  0  0
    5.9032   54.7476   20.3570 N   0  0  0  0  0  0
    6.0983   55.7489   19.4944 N   0  0  0  0  0  0
    7.2470   56.6201   19.6779 C   0  0  0  0  0  0
    4.3372   52.9218   20.5876 C   0  0  0  0  0  0
    5.1038   52.1050   21.1104 O   0  0  0  0  0  0
    2.9908   52.8535   20.6318 N   0  0  0  0  0  0
    2.3936   51.7051   21.1573 N   0  0  0  0  0  0
    1.9333   51.6144   22.4396 C   0  0  0  0  0  0
    1.3514   50.1158   22.8817 S   0  0  0  0  0  0
    2.0502   52.7480   23.2120 N   0  0  0  0  0  0
    1.9091   52.9038   24.5935 C   0  0  0  0  0  0
    2.8054   53.6103   25.4332 C   0  0  0  0  0  0
    2.3235   53.5938   26.7834 C   0  0  0  0  0  0
    1.1098   52.8951   26.9267 C   0  0  0  0  0  0
    0.5001   52.3179   25.4234 S   0  0  0  0  0  0
    0.3266   52.7269   28.2248 C   0  0  0  0  0  0
    1.2595   53.0202   29.4200 C   0  0  1  0  0  0
    1.9824   52.2072   29.5108 H   0  0  0  0  0  0
    1.9748   54.3627   29.1816 C   0  0  0  0  0  0
    2.9681   54.2821   28.0030 C   0  0  0  0  0  0
    0.4505   53.0401   30.7308 C   0  0  0  0  0  0
    4.0576   54.2338   24.9349 C   0  0  0  0  0  0
    4.3540   54.2970   23.7392 O   0  0  0  0  0  0
    4.8430   54.7101   25.9230 O   0  0  0  0  0  0
    6.1027   55.3010   25.6322 C   0  0  0  0  0  0
    2.8499   54.1599   17.6816 Br  0  0  0  0  0  0
    4.3743   56.6468   16.6604 H   0  0  0  0  0  0
    5.0855   57.8197   17.7513 H   0  0  0  0  0  0
    6.1167   56.7642   16.8007 H   0  0  0  0  0  0
    6.9374   57.6562   19.5375 H   0  0  0  0  0  0
    8.0073   56.3657   18.9388 H   0  0  0  0  0  0
    7.6652   56.4967   20.6794 H   0  0  0  0  0  0
    2.3617   53.4540   20.1148 H   0  0  0  0  0  0
    2.0183   51.1102   20.4329 H   0  0  0  0  0  0
    2.5945   53.4881   22.7911 H   0  0  0  0  0  0
   -0.5033   53.4316   28.2277 H   0  0  0  0  0  0
   -0.0976   51.7247   28.3044 H   0  0  0  0  0  0
    1.2449   55.1641   29.0486 H   0  0  0  0  0  0
    2.5232   54.6503   30.0791 H   0  0  0  0  0  0
    3.8615   53.7347   28.3053 H   0  0  0  0  0  0
    3.2882   55.2962   27.7649 H   0  0  0  0  0  0
   -0.2910   53.8397   30.7340 H   0  0  0  0  0  0
   -0.0813   52.1003   30.8884 H   0  0  0  0  0  0
    1.0969   53.1892   31.5955 H   0  0  0  0  0  0
    6.5821   55.6264   26.5558 H   0  0  0  0  0  0
    6.7622   54.5879   25.1365 H   0  0  0  0  0  0
    5.9883   56.1696   24.9825 H   0  0  0  0  0  0
  1  2  1  0  0  0
  1 31  1  0  0  0
  1 32  1  0  0  0
  1 33  1  0  0  0
  2  6  1  0  0  0
  2  3  2  0  0  0
  3  4  1  0  0  0
  3 30  1  0  0  0
  4  5  2  0  0  0
  4  8  1  0  0  0
  5  6  1  0  0  0
  6  7  1  0  0  0
  7 34  1  0  0  0
  7 35  1  0  0  0
  7 36  1  0  0  0
  8  9  2  0  0  0
  8 10  1  0  0  0
 10 11  1  0  0  0
 10 37  1  0  0  0
 11 12  1  0  0  0
 11 38  1  0  0  0
 12 13  2  0  0  0
 12 14  1  0  0  0
 14 15  1  0  0  0
 14 39  1  0  0  0
 15 19  1  0  0  0
 15 16  2  0  0  0
 16 17  1  0  0  0
 16 26  1  0  0  0
 17 24  1  0  0  0
 17 18  2  0  0  0
 18 19  1  0  0  0
 18 20  1  0  0  0
 20 21  1  0  0  0
 20 40  1  0  0  0
 20 41  1  0  0  0
 21 22  1  0  0  0
 21 23  1  0  0  0
 21 25  1  0  0  0
 23 24  1  0  0  0
 23 42  1  0  0  0
 23 43  1  0  0  0
 24 44  1  0  0  0
 24 45  1  0  0  0
 25 46  1  0  0  0
 25 47  1  0  0  0
 25 48  1  0  0  0
 26 27  2  0  0  0
 26 28  1  0  0  0
 28 29  1  0  0  0
 29 49  1  0  0  0
 29 50  1  0  0  0
 29 51  1  0  0  0
M  END
> <i_i_glide_confnum>
101

> <i_i_glide_lignum>
2998

> <i_i_glide_posenum>
336

> <i_i_glide_rotatable_bonds>
8

> <i_m_Source_File_Index>
1695

> <b_m_subgroup_collapsed>
0

> <r_i_docking_score>
-4.69561

> <r_i_glide_ecoul>
-1.22212

> <r_i_glide_eff_state_penalty>
0

> <r_i_glide_einternal>
5.44467

> <r_i_glide_emodel>
-54.6175

> <r_i_glide_energy>
-43.7489

> <r_i_glide_erotb>
0.570756

> <r_i_glide_esite>
-0.0080374

> <r_i_glide_evdw>
-42.5268

> <r_i_glide_gscore>
-4.69561

> <r_i_glide_hbond>
-0.290585

> <r_i_glide_ligand_efficiency>
-0.161918

> <r_i_glide_ligand_efficiency_ln>
-1.07518

> <r_i_glide_ligand_efficiency_sa>
-0.497462

> <r_i_glide_lipo>
-1.93464

> <r_i_glide_metal>
0

> <r_i_glide_rewards>
-0.723451

> <s_i_glide_gridfile>
wee1_glide-grid

> <s_m_Source_File>
wee1_decoys_glide_SP.sdf

> <s_m_Source_Path>
/Users/zhangxujun/Desktop

> <s_m_entry_id>
1970

> <s_m_entry_name>
wee1_decoys_glide_SP.1695

> <s_m_subgroup_title>
wee1_decoys_glide_SP

> <s_m_subgroupid>
wee1_decoys_glide_SP


$$$$
