@<TRIPOS>MOLECULE
ZINC40036116_5610
64   68    1
SMALL
USER_CHARGES


@<TRIPOS>ATOM
      1 C1          1.8361   56.3467   30.0708 C.3       1 UNK         0.0000 
      2 C2          1.5481   54.8909   29.6699 C.3       1 UNK         0.0000 
      3 C3          1.7330   54.6993   28.1498 C.3       1 UNK         0.0000 
      4 C4          1.4388   53.2835   27.5285 C.3       1 UNK         0.0000 
      5 C5         -0.0616   52.9801   27.8815 C.3       1 UNK         0.0000 
      6 C6         -0.7922   51.9788   27.0032 C.ar      1 UNK         0.0000 
      7 C7         -1.9284   51.3161   27.4824 C.ar      1 UNK         0.0000 
      8 C8         -2.6862   50.4958   26.6555 C.ar      1 UNK         0.0000 
      9 C9         -2.2941   50.2942   25.3384 C.ar      1 UNK         0.0000 
     10 C10        -1.1520   50.9244   24.8577 C.ar      1 UNK         0.0000 
     11 C11        -0.3833   51.7776   25.6760 C.ar      1 UNK         0.0000 
     12 C12         0.8499   52.4564   25.1795 C.ar      1 UNK         0.0000 
     13 C13         1.6732   53.2060   25.9686 C.ar      1 UNK         0.0000 
     14 C14         2.8766   53.7809   25.3268 C.ar      1 UNK         0.0000 
     15 O15         3.6292   54.5402   25.9369 O.2       1 UNK         0.0000 
     16 N16         3.1036   53.4272   24.0042 N.pl3     1 UNK         0.0000 
     17 C17         2.2281   52.5837   23.3225 C.ar      1 UNK         0.0000 
     18 N18         1.1389   52.1966   23.8710 N.2       1 UNK         0.0000 
     19 N19         2.5791   52.1490   21.9979 N.pl3     1 UNK         0.0000 
     20 N20         2.2784   50.9526   21.2917 N.2       1 UNK         0.0000 
     21 C21         1.1429   50.3790   21.3293 C.2       1 UNK         0.0000 
     22 C22         0.8457   49.1569   20.5693 C.ar      1 UNK         0.0000 
     23 C23        -0.3729   48.5019   20.7721 C.ar      1 UNK         0.0000 
     24 C24        -0.6735   47.3295   20.0820 C.ar      1 UNK         0.0000 
     25 C25         0.2387   46.7861   19.1676 C.ar      1 UNK         0.0000 
     26 C26         1.4454   47.4592   18.9373 C.ar      1 UNK         0.0000 
     27 C27         1.7486   48.6243   19.6359 C.ar      1 UNK         0.0000 
     28 N28        -0.0629   45.5144   18.4678 N.pl3     1 UNK         0.0000 
     29 O29        -1.0593   44.8815   18.8059 O.co2     1 UNK         0.0000 
     30 O30         0.7033   45.1310   17.5897 O.co2     1 UNK         0.0000 
     31 C31         4.3007   53.9345   23.3616 C.ar      1 UNK         0.0000 
     32 C32         5.5577   53.8329   23.9859 C.ar      1 UNK         0.0000 
     33 C33         6.7044   54.3244   23.3765 C.ar      1 UNK         0.0000 
     34 C34         6.6313   54.8929   22.1083 C.ar      1 UNK         0.0000 
     35 C35         5.4169   54.9253   21.4332 C.ar      1 UNK         0.0000 
     36 C36         4.2549   54.4968   22.0722 C.ar      1 UNK         0.0000 
     37 C37         2.3110   52.1629   28.1412 C.3       1 UNK         0.0000 
     38 H38         1.8285   56.4854   31.1520 H         1 UNK         0.0000 
     39 H39         2.8024   56.6754   29.6839 H         1 UNK         0.0000 
     40 H40         1.0967   57.0235   29.6498 H         1 UNK         0.0000 
     41 H41         0.5358   54.6335   29.9828 H         1 UNK         0.0000 
     42 H42         2.2206   54.2233   30.2078 H         1 UNK         0.0000 
     43 H43         2.7607   55.0013   27.9811 H         1 UNK         0.0000 
     44 H44         1.1041   55.4489   27.6816 H         1 UNK         0.0000 
     45 H45        -0.6504   53.8909   27.8025 H         1 UNK         0.0000 
     46 H46        -0.1564   52.6758   28.9261 H         1 UNK         0.0000 
     47 H47        -2.2435   51.4531   28.5077 H         1 UNK         0.0000 
     48 H48        -3.5581   49.9913   27.0477 H         1 UNK         0.0000 
     49 H49        -2.8677   49.6399   24.6984 H         1 UNK         0.0000 
     50 H50        -0.8705   50.7338   23.8338 H         1 UNK         0.0000 
     51 H51         3.4946   52.4738   21.7226 H         1 UNK         0.0000 
     52 H52         0.3160   50.7694   21.9141 H         1 UNK         0.0000 
     53 H53        -1.0940   48.8877   21.4790 H         1 UNK         0.0000 
     54 H54        -1.6194   46.8410   20.2751 H         1 UNK         0.0000 
     55 H55         2.1678   47.0815   18.2257 H         1 UNK         0.0000 
     56 H56         2.6955   49.1083   19.4328 H         1 UNK         0.0000 
     57 H57         5.6565   53.3708   24.9581 H         1 UNK         0.0000 
     58 H58         7.6515   54.2436   23.8877 H         1 UNK         0.0000 
     59 H59         7.5288   55.2666   21.6334 H         1 UNK         0.0000 
     60 H60         5.3625   55.3360   20.4352 H         1 UNK         0.0000 
     61 H61         3.3142   54.6077   21.5485 H         1 UNK         0.0000 
     62 H62         2.1649   52.0740   29.2180 H         1 UNK         0.0000 
     63 H63         2.0712   51.1875   27.7143 H         1 UNK         0.0000 
     64 H64         3.3741   52.3509   27.9818 H         1 UNK         0.0000 
@<TRIPOS>BOND
     1    1    2 1    
     2    1   38 1    
     3    1   39 1    
     4    1   40 1    
     5    2    3 1    
     6    2   41 1    
     7    2   42 1    
     8    3    4 1    
     9    3   43 1    
    10    3   44 1    
    11    4   13 1    
    12    4    5 1    
    13    4   37 1    
    14    5    6 1    
    15    5   45 1    
    16    5   46 1    
    17    6   11 ar   
    18    6    7 ar   
    19    7    8 ar   
    20    7   47 1    
    21    8    9 ar   
    22    8   48 1    
    23    9   10 ar   
    24    9   49 1    
    25   10   11 ar   
    26   10   50 1    
    27   11   12 1    
    28   12   18 ar   
    29   12   13 ar   
    30   13   14 ar   
    31   14   15 2    
    32   14   16 ar   
    33   16   17 ar   
    34   16   31 1    
    35   17   18 ar   
    36   17   19 1    
    37   19   20 1    
    38   19   51 1    
    39   20   21 2    
    40   21   22 1    
    41   21   52 1    
    42   22   27 ar   
    43   22   23 ar   
    44   23   24 ar   
    45   23   53 1    
    46   24   25 ar   
    47   24   54 1    
    48   25   26 ar   
    49   25   28 1    
    50   26   27 ar   
    51   26   55 1    
    52   27   56 1    
    53   28   29 2    
    54   28   30 1    
    55   31   36 ar   
    56   31   32 ar   
    57   32   33 ar   
    58   32   57 1    
    59   33   34 ar   
    60   33   58 1    
    61   34   35 ar   
    62   34   59 1    
    63   35   36 ar   
    64   35   60 1    
    65   36   61 1    
    66   37   62 1    
    67   37   63 1    
    68   37   64 1    
@<TRIPOS>SUBSTRUCTURE
     1 UNK         1 GROUP             0       ****    0 ROOT    
