ZINC04222050_4209
                    3D
 Schrodinger Suite 2024-2.
 72 76  0  0  1  0            999 V2000
    2.3482   50.0565   21.4928 C   0  0  0  0  0  0
    2.1755   51.5144   21.9936 C   0  0  2  0  0  0
    1.3041   51.9150   21.4806 H   0  0  0  0  0  0
    3.3324   52.4252   21.5762 C   0  0  0  0  0  0
    3.8640   53.4280   22.3874 C   0  0  0  0  0  0
    5.1011   54.2863   21.5233 S   0  0  0  0  0  0
    4.7839   53.2534   20.1557 C   0  0  0  0  0  0
    3.8509   52.3611   20.3611 N   0  0  0  0  0  0
    5.4616   53.2961   18.9446 N   0  0  0  0  0  0
    6.3742   54.2018   18.5241 C   0  0  0  0  0  0
    6.7331   55.1808   19.1853 O   0  0  0  0  0  0
    6.9729   53.9617   17.1510 C   0  0  0  0  0  0
    7.9705   54.8388   16.6617 C   0  0  0  0  0  0
    8.5583   54.6534   15.4033 C   0  0  0  0  0  0
    8.1375   53.5643   14.6509 C   0  0  0  0  0  0
    7.1799   52.7061   15.1043 C   0  0  0  0  0  0
    6.5687   52.8753   16.3403 C   0  0  0  0  0  0
    6.9473   51.7547   14.1620 O   0  0  0  0  0  0
    7.9632   51.9169   13.2081 C   0  0  0  0  0  0
    8.5330   53.1833   13.4078 O   0  0  0  0  0  0
    3.5052   53.6951   23.8262 C   0  0  0  0  0  0
    2.1444   53.0252   24.2036 C   0  0  2  0  0  0
    1.9255   51.5923   23.5507 C   0  0  1  0  0  0
    2.6523   50.9257   23.9989 H   0  0  0  0  0  0
    0.5186   50.9877   23.9147 C   0  0  2  0  0  0
    0.3933   50.0604   23.3607 H   0  0  0  0  0  0
   -0.6724   51.9287   23.5317 C   0  0  2  0  0  0
   -0.6363   52.0666   22.4507 H   0  0  0  0  0  0
   -0.3892   53.3481   24.1056 C   0  0  0  0  0  0
    0.9880   53.8968   23.6816 C   0  0  0  0  0  0
   -2.0761   51.2874   23.8713 C   0  0  2  0  0  0
   -1.9451   50.6941   24.7707 H   0  0  0  0  0  0
   -2.5190   50.3102   22.7561 C   0  0  0  0  0  0
   -3.2208   52.2941   24.1661 C   0  0  0  0  0  0
   -3.2961   53.2963   23.4551 O   0  0  0  0  0  0
   -4.0962   52.0793   25.1859 N   0  0  0  0  0  0
   -5.1290   53.0631   25.5369 C   0  0  0  0  0  0
   -4.1527   50.8599   26.0125 C   0  0  0  0  0  0
   -3.1519   50.7607   27.1575 C   0  0  0  0  0  0
   -2.1577   51.6201   27.4409 C   0  0  0  0  0  0
    0.4835   50.5409   25.2615 O   0  0  0  0  0  0
    2.1531   53.0330   25.7633 C   0  0  0  0  0  0
    2.6363   50.0110   20.4434 H   0  0  0  0  0  0
    3.1038   49.5217   22.0678 H   0  0  0  0  0  0
    1.4271   49.4829   21.5726 H   0  0  0  0  0  0
    5.2350   52.5404   18.3137 H   0  0  0  0  0  0
    8.3005   55.6785   17.2573 H   0  0  0  0  0  0
    9.3123   55.3347   15.0388 H   0  0  0  0  0  0
    5.8132   52.1668   16.6498 H   0  0  0  0  0  0
    7.5630   51.8268   12.1981 H   0  0  0  0  0  0
    8.7278   51.1520   13.3612 H   0  0  0  0  0  0
    3.4898   54.7660   24.0333 H   0  0  0  0  0  0
    4.3224   53.2965   24.4235 H   0  0  0  0  0  0
   -1.1221   54.0801   23.7847 H   0  0  0  0  0  0
   -0.4992   53.2967   25.1876 H   0  0  0  0  0  0
    1.0708   54.0251   22.6024 H   0  0  0  0  0  0
    1.1036   54.8968   24.0892 H   0  0  0  0  0  0
   -3.4509   49.8033   23.0085 H   0  0  0  0  0  0
   -2.6773   50.8272   21.8082 H   0  0  0  0  0  0
   -1.7739   49.5312   22.5858 H   0  0  0  0  0  0
   -5.0725   53.9783   24.9449 H   0  0  0  0  0  0
   -6.1219   52.6349   25.3900 H   0  0  0  0  0  0
   -5.0377   53.3439   26.5869 H   0  0  0  0  0  0
   -3.9910   49.9833   25.3836 H   0  0  0  0  0  0
   -5.1613   50.7084   26.4040 H   0  0  0  0  0  0
   -3.2680   49.8890   27.7915 H   0  0  0  0  0  0
   -1.9836   52.5090   26.8497 H   0  0  0  0  0  0
   -1.4985   51.4363   28.2789 H   0  0  0  0  0  0
   -0.2582   49.9439   25.3862 H   0  0  0  0  0  0
    3.0042   52.4966   26.1705 H   0  0  0  0  0  0
    2.2273   54.0523   26.1446 H   0  0  0  0  0  0
    1.2671   52.6146   26.2318 H   0  0  0  0  0  0
  1  2  1  0  0  0
  1 43  1  0  0  0
  1 44  1  0  0  0
  1 45  1  0  0  0
  2  3  1  0  0  0
  2 23  1  0  0  0
  2  4  1  0  0  0
  4  8  1  0  0  0
  4  5  2  0  0  0
  5  6  1  0  0  0
  5 21  1  0  0  0
  6  7  1  0  0  0
  7  8  2  0  0  0
  7  9  1  0  0  0
  9 10  1  0  0  0
  9 46  1  0  0  0
 10 11  2  0  0  0
 10 12  1  0  0  0
 12 17  2  0  0  0
 12 13  1  0  0  0
 13 14  2  0  0  0
 13 47  1  0  0  0
 14 15  1  0  0  0
 14 48  1  0  0  0
 15 20  1  0  0  0
 15 16  2  0  0  0
 16 17  1  0  0  0
 16 18  1  0  0  0
 17 49  1  0  0  0
 18 19  1  0  0  0
 19 20  1  0  0  0
 19 50  1  0  0  0
 19 51  1  0  0  0
 21 22  1  0  0  0
 21 52  1  0  0  0
 21 53  1  0  0  0
 22 30  1  0  0  0
 22 23  1  0  0  0
 22 42  1  0  0  0
 23 24  1  0  0  0
 23 25  1  0  0  0
 25 26  1  0  0  0
 25 27  1  0  0  0
 25 41  1  0  0  0
 27 28  1  0  0  0
 27 29  1  0  0  0
 27 31  1  0  0  0
 29 30  1  0  0  0
 29 54  1  0  0  0
 29 55  1  0  0  0
 30 56  1  0  0  0
 30 57  1  0  0  0
 31 32  1  0  0  0
 31 33  1  0  0  0
 31 34  1  0  0  0
 33 58  1  0  0  0
 33 59  1  0  0  0
 33 60  1  0  0  0
 34 35  2  0  0  0
 34 36  1  0  0  0
 36 37  1  0  0  0
 36 38  1  0  0  0
 37 61  1  0  0  0
 37 62  1  0  0  0
 37 63  1  0  0  0
 38 39  1  0  0  0
 38 64  1  0  0  0
 38 65  1  0  0  0
 39 40  2  0  0  0
 39 66  1  0  0  0
 40 67  1  0  0  0
 40 68  1  0  0  0
 41 69  1  0  0  0
 42 70  1  0  0  0
 42 71  1  0  0  0
 42 72  1  0  0  0
M  END
> <i_i_glide_confnum>
320

> <i_i_glide_lignum>
4210

> <i_i_glide_posenum>
376

> <i_i_glide_rotatable_bonds>
9

> <i_m_Source_File_Index>
172

> <b_m_subgroup_collapsed>
0

> <r_i_docking_score>
-3.72575

> <r_i_glide_ecoul>
-5.38622

> <r_i_glide_eff_state_penalty>
0

> <r_i_glide_einternal>
3.4012

> <r_i_glide_emodel>
-43.3247

> <r_i_glide_energy>
-36.6773

> <r_i_glide_erotb>
0.595953

> <r_i_glide_esite>
-0.0878271

> <r_i_glide_evdw>
-31.291

> <r_i_glide_gscore>
-3.72575

> <r_i_glide_hbond>
-0.0829643

> <r_i_glide_ligand_efficiency>
-0.100696

> <r_i_glide_ligand_efficiency_ln>
-0.808028

> <r_i_glide_ligand_efficiency_sa>
-0.335541

> <r_i_glide_lipo>
-1.69095

> <r_i_glide_metal>
0

> <r_i_glide_rewards>
-0.087477

> <s_i_glide_gridfile>
wee1_glide-grid

> <s_m_Source_File>
wee1_decoys_glide_SP.sdf

> <s_m_Source_Path>
/Users/zhangxujun/Desktop

> <s_m_entry_id>
447

> <s_m_entry_name>
wee1_decoys_glide_SP.172

> <s_m_subgroup_title>
wee1_decoys_glide_SP

> <s_m_subgroupid>
wee1_decoys_glide_SP


$$$$
