@<TRIPOS>MOLECULE
ZINC36210555_3184
69   71    1
SMALL
USER_CHARGES


@<TRIPOS>ATOM
      1 C1         -6.0281   50.1796   27.5492 C.3       1 UNK         0.0000 
      2 C2         -4.9859   50.5445   28.6287 C.3       1 UNK         0.0000 
      3 H3         -5.1872   51.5806   28.9133 H         1 UNK         0.0000 
      4 C4         -5.1459   49.6873   29.9187 C.3       1 UNK         0.0000 
      5 C5         -4.7734   48.2008   29.7211 C.3       1 UNK         0.0000 
      6 C6         -4.3689   50.2783   31.1130 C.3       1 UNK         0.0000 
      7 N7         -3.6204   50.4965   28.1021 N.am      1 UNK         0.0000 
      8 C8         -3.0831   51.3223   27.1886 C.2       1 UNK         0.0000 
      9 O9         -3.6668   52.2986   26.7164 O.2       1 UNK         0.0000 
     10 C10        -1.6259   51.0090   26.7880 C.3       1 UNK         0.0000 
     11 H11        -1.3527   50.0968   27.2896 H         1 UNK         0.0000 
     12 C12        -0.5558   52.0201   27.3092 C.3       1 UNK         0.0000 
     13 C13        -0.2289   51.8974   28.8098 C.3       1 UNK         0.0000 
     14 C14         0.6391   53.1047   29.2785 C.3       1 UNK         0.0000 
     15 N15         1.8141   53.2967   28.3635 N.am      1 UNK         0.0000 
     16 C16         1.6488   53.1023   26.8984 C.3       1 UNK         0.0000 
     17 C17         0.8427   51.8285   26.6926 C.3       1 UNK         0.0000 
     18 C18         3.0269   53.6555   28.8850 C.2       1 UNK         0.0000 
     19 O19         3.2355   53.7268   30.0962 O.2       1 UNK         0.0000 
     20 C20         4.1747   53.9855   27.9487 C.ar      1 UNK         0.0000 
     21 C21         4.0064   54.8947   26.8966 C.ar      1 UNK         0.0000 
     22 C22         5.0026   55.0689   25.9488 C.ar      1 UNK         0.0000 
     23 C23         6.2165   54.4237   26.1100 C.ar      1 UNK         0.0000 
     24 C24         6.4499   53.6078   27.2127 C.ar      1 UNK         0.0000 
     25 C25         5.4179   53.3673   28.1169 C.ar      1 UNK         0.0000 
     26 Cl26        7.4028   54.6125   24.8898 Cl        1 UNK         0.0000 
     27 N27        -1.4443   50.5894   25.3964 N.am      1 UNK         0.0000 
     28 C28        -1.4439   51.3517   24.2873 C.2       1 UNK         0.0000 
     29 O29        -1.8931   52.4976   24.2400 O.2       1 UNK         0.0000 
     30 C30        -0.6609   50.7763   23.1244 C.ar      1 UNK         0.0000 
     31 C31        -0.7065   51.4034   21.8723 C.ar      1 UNK         0.0000 
     32 C32         0.1418   50.9954   20.8434 C.ar      1 UNK         0.0000 
     33 C33         1.0534   49.9511   21.0554 C.ar      1 UNK         0.0000 
     34 C34         1.0711   49.2988   22.2812 C.ar      1 UNK         0.0000 
     35 C35         0.2264   49.6997   23.3069 C.ar      1 UNK         0.0000 
     36 O36         1.9773   49.5122   20.1322 O.3       1 UNK         0.0000 
     37 C37         2.2103   50.2856   18.9633 C.3       1 UNK         0.0000 
     38 H38        -7.0308   50.1327   27.9749 H         1 UNK         0.0000 
     39 H39        -6.0637   50.9274   26.7554 H         1 UNK         0.0000 
     40 H40        -5.8260   49.2055   27.1018 H         1 UNK         0.0000 
     41 H41        -6.1993   49.7145   30.2017 H         1 UNK         0.0000 
     42 H42        -3.7176   48.0778   29.4667 H         1 UNK         0.0000 
     43 H43        -4.9541   47.6272   30.6298 H         1 UNK         0.0000 
     44 H44        -5.3611   47.7372   28.9291 H         1 UNK         0.0000 
     45 H45        -3.2935   50.3011   30.9274 H         1 UNK         0.0000 
     46 H46        -4.6869   51.2965   31.3296 H         1 UNK         0.0000 
     47 H47        -4.5297   49.7003   32.0249 H         1 UNK         0.0000 
     48 H48        -3.0371   49.7420   28.4542 H         1 UNK         0.0000 
     49 H49        -0.9385   53.0166   27.0781 H         1 UNK         0.0000 
     50 H50        -1.1550   51.9029   29.3859 H         1 UNK         0.0000 
     51 H51         0.2007   50.9168   29.0517 H         1 UNK         0.0000 
     52 H52         0.0421   54.0186   29.2732 H         1 UNK         0.0000 
     53 H53         0.9561   52.8576   30.2944 H         1 UNK         0.0000 
     54 H54         1.1227   53.9532   26.4663 H         1 UNK         0.0000 
     55 H55         2.5831   52.9008   26.3736 H         1 UNK         0.0000 
     56 H56         1.3440   50.9230   27.0453 H         1 UNK         0.0000 
     57 H57         0.8037   51.7104   25.6143 H         1 UNK         0.0000 
     58 H58         3.0793   55.4150   26.7719 H         1 UNK         0.0000 
     59 H59         4.8337   55.6952   25.0889 H         1 UNK         0.0000 
     60 H60         7.3977   53.1035   27.3291 H         1 UNK         0.0000 
     61 H61         5.5724   52.6580   28.9124 H         1 UNK         0.0000 
     62 H62        -1.1841   49.6218   25.2995 H         1 UNK         0.0000 
     63 H63        -1.3681   52.2405   21.7012 H         1 UNK         0.0000 
     64 H64         0.1013   51.5158   19.8986 H         1 UNK         0.0000 
     65 H65         1.7840   48.5054   22.4530 H         1 UNK         0.0000 
     66 H66         0.3319   49.1916   24.2550 H         1 UNK         0.0000 
     67 H67         3.1035   49.8981   18.4817 H         1 UNK         0.0000 
     68 H68         2.3962   51.3368   19.1919 H         1 UNK         0.0000 
     69 H69         1.3814   50.2082   18.2577 H         1 UNK         0.0000 
@<TRIPOS>BOND
     1    1    2 1    
     2    1   38 1    
     3    1   39 1    
     4    1   40 1    
     5    2    3 1    
     6    2    4 1    
     7    2    7 1    
     8    4    5 1    
     9    4    6 1    
    10    4   41 1    
    11    5   42 1    
    12    5   43 1    
    13    5   44 1    
    14    6   45 1    
    15    6   46 1    
    16    6   47 1    
    17    7    8 am   BACKBONE|DICT|INTERRES
    18    7   48 1    
    19    8    9 2    
    20    8   10 1    
    21   10   11 1    
    22   10   12 1    
    23   10   27 1    
    24   12   17 1    
    25   12   13 1    
    26   12   49 1    
    27   13   14 1    
    28   13   50 1    
    29   13   51 1    
    30   14   15 1    
    31   14   52 1    
    32   14   53 1    
    33   15   16 1    
    34   15   18 am   BACKBONE|DICT|INTERRES
    35   16   17 1    
    36   16   54 1    
    37   16   55 1    
    38   17   56 1    
    39   17   57 1    
    40   18   19 2    
    41   18   20 1    
    42   20   25 ar   
    43   20   21 ar   
    44   21   22 ar   
    45   21   58 1    
    46   22   23 ar   
    47   22   59 1    
    48   23   24 ar   
    49   23   26 1    
    50   24   25 ar   
    51   24   60 1    
    52   25   61 1    
    53   27   28 am   BACKBONE|DICT|INTERRES
    54   27   62 1    
    55   28   29 2    
    56   28   30 1    
    57   30   35 ar   
    58   30   31 ar   
    59   31   32 ar   
    60   31   63 1    
    61   32   33 ar   
    62   32   64 1    
    63   33   34 ar   
    64   33   36 1    
    65   34   35 ar   
    66   34   65 1    
    67   35   66 1    
    68   36   37 1    
    69   37   67 1    
    70   37   68 1    
    71   37   69 1    
@<TRIPOS>SUBSTRUCTURE
     1 UNK         1 GROUP             0       ****    0 ROOT    
