ZINC59017780_4303
                    3D
 Schrodinger Suite 2024-2.
 51 52  0  0  1  0            999 V2000
    1.4013   53.1934   26.5726 C   0  0  0  0  0  0
    2.8592   53.4989   26.8714 C   0  0  0  0  0  0
    3.7080   53.8948   25.8315 C   0  0  0  0  0  0
    5.0707   54.1248   26.0602 C   0  0  0  0  0  0
    5.5778   53.9822   27.3636 C   0  0  0  0  0  0
    4.7203   53.6160   28.4035 C   0  0  0  0  0  0
    3.3728   53.3635   28.1667 C   0  0  0  0  0  0
    2.2839   52.8081   29.6310 Br  0  0  0  0  0  0
    7.0528   54.1713   27.6794 C   0  0  0  0  0  0
    6.1649   54.5657   24.7190 S   0  0  0  0  0  0
    5.4133   54.1821   23.0909 C   0  0  0  0  0  0
    6.0623   54.8967   21.8944 C   0  0  0  0  0  0
    7.1617   55.4377   22.0042 O   0  0  0  0  0  0
    5.3390   54.8935   20.7549 N   0  0  0  0  0  0
    5.6658   55.5087   19.5252 C   0  0  0  0  0  0
    6.3044   56.7600   19.4903 C   0  0  0  0  0  0
    6.5336   57.4155   18.2823 C   0  0  0  0  0  0
    6.1241   56.8321   17.0873 C   0  0  0  0  0  0
    5.4892   55.5923   17.1003 C   0  0  0  0  0  0
    5.2529   54.9212   18.3115 C   0  0  0  0  0  0
    4.6265   53.6594   18.3026 N   0  0  0  0  0  0
    3.4705   53.3687   17.6771 C   0  0  0  0  0  0
    2.8047   54.1703   17.0187 O   0  0  0  0  0  0
    3.1044   52.0967   17.9061 N   0  0  0  0  0  0
    1.7592   51.5274   17.7762 C   0  0  0  0  0  0
    0.7149   52.2167   18.6801 C   0  0  0  0  0  0
    1.2905   51.4040   16.3141 C   0  0  0  0  0  0
    1.1052   53.5190   25.5739 H   0  0  0  0  0  0
    1.2148   52.1232   26.6656 H   0  0  0  0  0  0
    0.7514   53.6984   27.2860 H   0  0  0  0  0  0
    3.2922   53.9935   24.8438 H   0  0  0  0  0  0
    5.1039   53.4963   29.4031 H   0  0  0  0  0  0
    7.3949   55.1475   27.3350 H   0  0  0  0  0  0
    7.2675   54.0966   28.7463 H   0  0  0  0  0  0
    7.6270   53.4058   27.1608 H   0  0  0  0  0  0
    5.4757   53.1043   22.9327 H   0  0  0  0  0  0
    4.3614   54.4628   23.1021 H   0  0  0  0  0  0
    4.6006   54.2083   20.7005 H   0  0  0  0  0  0
    6.5881   57.2551   20.4044 H   0  0  0  0  0  0
    7.0108   58.3849   18.2708 H   0  0  0  0  0  0
    6.2965   57.3439   16.1510 H   0  0  0  0  0  0
    5.1802   55.1529   16.1626 H   0  0  0  0  0  0
    4.8637   53.0381   19.0592 H   0  0  0  0  0  0
    3.8449   51.4220   18.0822 H   0  0  0  0  0  0
    1.8595   50.5057   18.1478 H   0  0  0  0  0  0
   -0.2707   51.7682   18.5442 H   0  0  0  0  0  0
    0.9708   52.1142   19.7357 H   0  0  0  0  0  0
    0.6113   53.2782   18.4446 H   0  0  0  0  0  0
    0.2896   50.9749   16.2634 H   0  0  0  0  0  0
    1.2383   52.3746   15.8200 H   0  0  0  0  0  0
    1.9473   50.7480   15.7411 H   0  0  0  0  0  0
  1  2  1  0  0  0
  1 28  1  0  0  0
  1 29  1  0  0  0
  1 30  1  0  0  0
  2  7  2  0  0  0
  2  3  1  0  0  0
  3  4  2  0  0  0
  3 31  1  0  0  0
  4  5  1  0  0  0
  4 10  1  0  0  0
  5  6  2  0  0  0
  5  9  1  0  0  0
  6  7  1  0  0  0
  6 32  1  0  0  0
  7  8  1  0  0  0
  9 33  1  0  0  0
  9 34  1  0  0  0
  9 35  1  0  0  0
 10 11  1  0  0  0
 11 12  1  0  0  0
 11 36  1  0  0  0
 11 37  1  0  0  0
 12 13  2  0  0  0
 12 14  1  0  0  0
 14 15  1  0  0  0
 14 38  1  0  0  0
 15 20  2  0  0  0
 15 16  1  0  0  0
 16 17  2  0  0  0
 16 39  1  0  0  0
 17 18  1  0  0  0
 17 40  1  0  0  0
 18 19  2  0  0  0
 18 41  1  0  0  0
 19 20  1  0  0  0
 19 42  1  0  0  0
 20 21  1  0  0  0
 21 22  1  0  0  0
 21 43  1  0  0  0
 22 23  2  0  0  0
 22 24  1  0  0  0
 24 25  1  0  0  0
 24 44  1  0  0  0
 25 26  1  0  0  0
 25 27  1  0  0  0
 25 45  1  0  0  0
 26 46  1  0  0  0
 26 47  1  0  0  0
 26 48  1  0  0  0
 27 49  1  0  0  0
 27 50  1  0  0  0
 27 51  1  0  0  0
M  END
> <i_i_glide_confnum>
6

> <i_i_glide_lignum>
4304

> <i_i_glide_posenum>
343

> <i_i_glide_rotatable_bonds>
9

> <i_m_Source_File_Index>
5915

> <b_m_subgroup_collapsed>
0

> <r_i_docking_score>
-5.08511

> <r_i_glide_ecoul>
-1.55388

> <r_i_glide_eff_state_penalty>
0

> <r_i_glide_einternal>
3.69491

> <r_i_glide_emodel>
-56.8885

> <r_i_glide_energy>
-42.4935

> <r_i_glide_erotb>
0.790662

> <r_i_glide_esite>
-0.169244

> <r_i_glide_evdw>
-40.9397

> <r_i_glide_gscore>
-5.08511

> <r_i_glide_hbond>
-0.16

> <r_i_glide_ligand_efficiency>
-0.188337

> <r_i_glide_ligand_efficiency_ln>
-1.18373

> <r_i_glide_ligand_efficiency_sa>
-0.565012

> <r_i_glide_lipo>
-2.54994

> <r_i_glide_metal>
0

> <r_i_glide_rewards>
-0.716524

> <s_i_glide_gridfile>
wee1_glide-grid

> <s_m_Source_File>
wee1_decoys_glide_SP.sdf

> <s_m_Source_Path>
/Users/zhangxujun/Desktop

> <s_m_entry_id>
6190

> <s_m_entry_name>
wee1_decoys_glide_SP.5915

> <s_m_subgroup_title>
wee1_decoys_glide_SP

> <s_m_subgroupid>
wee1_decoys_glide_SP


$$$$
