@<TRIPOS>MOLECULE
ZINC22218654_4720
38   40    1
SMALL
USER_CHARGES


@<TRIPOS>ATOM
      1 C1          6.1918   54.8659   19.4962 C.ar      1 UNK         0.0000 
      2 C2          5.2466   54.3663   20.3985 C.ar      1 UNK         0.0000 
      3 C3          5.4990   54.4993   21.7720 C.ar      1 UNK         0.0000 
      4 C4          6.6968   55.1322   22.2101 C.ar      1 UNK         0.0000 
      5 C5          7.6378   55.6259   21.2940 C.ar      1 UNK         0.0000 
      6 C6          7.3688   55.4764   19.9361 C.ar      1 UNK         0.0000 
      7 N7          8.3035   55.9385   19.0106 N.pl3     1 UNK         0.0000 
      8 S8          6.7044   55.1671   23.9676 S.3       1 UNK         0.0000 
      9 C9          5.1334   54.3792   23.9459 C.2       1 UNK         0.0000 
     10 N10         4.6573   54.0962   22.7654 N.2       1 UNK         0.0000 
     11 N11         4.3798   54.1034   25.0797 N.am      1 UNK         0.0000 
     12 C12         4.6900   54.3883   26.3614 C.2       1 UNK         0.0000 
     13 O13         5.7814   54.7870   26.7727 O.2       1 UNK         0.0000 
     14 N14         3.6189   54.2332   27.1566 N.am      1 UNK         0.0000 
     15 C15         3.5885   54.5120   28.5981 C.3       1 UNK         0.0000 
     16 C16         2.1897   55.0122   29.0415 C.3       1 UNK         0.0000 
     17 C17         1.0910   53.9339   28.8910 C.3       1 UNK         0.0000 
     18 C18         1.4565   52.6375   29.6426 C.3       1 UNK         0.0000 
     19 C19         2.8706   52.1382   29.2804 C.3       1 UNK         0.0000 
     20 C20         3.9250   53.2549   29.4338 C.3       1 UNK         0.0000 
     21 H21         6.0065   54.7666   18.4342 H         1 UNK         0.0000 
     22 H22         4.3429   53.8972   20.0407 H         1 UNK         0.0000 
     23 H23         8.5492   56.0954   21.6395 H         1 UNK         0.0000 
     24 H24         8.1644   55.7113   18.0366 H         1 UNK         0.0000 
     25 H25         9.2345   56.1651   19.3368 H         1 UNK         0.0000 
     26 H26         3.4617   53.7301   24.8936 H         1 UNK         0.0000 
     27 H27         2.8449   53.6913   26.8066 H         1 UNK         0.0000 
     28 H28         4.3177   55.2958   28.8231 H         1 UNK         0.0000 
     29 H29         1.9154   55.8984   28.4692 H         1 UNK         0.0000 
     30 H30         2.2338   55.3419   30.0810 H         1 UNK         0.0000 
     31 H31         0.9333   53.7107   27.8344 H         1 UNK         0.0000 
     32 H32         0.1404   54.3171   29.2594 H         1 UNK         0.0000 
     33 H33         0.7209   51.8595   29.4302 H         1 UNK         0.0000 
     34 H34         1.4018   52.8141   30.7179 H         1 UNK         0.0000 
     35 H35         2.8723   51.7628   28.2560 H         1 UNK         0.0000 
     36 H36         3.1475   51.2970   29.9090 H         1 UNK         0.0000 
     37 H37         4.0138   53.5288   30.4858 H         1 UNK         0.0000 
     38 H38         4.9078   52.8728   29.1463 H         1 UNK         0.0000 
@<TRIPOS>BOND
     1    1    6 ar   
     2    1    2 ar   
     3    1   21 1    
     4    2    3 ar   
     5    2   22 1    
     6    3   10 1    
     7    3    4 ar   
     8    4    5 ar   
     9    4    8 1    
    10    5    6 ar   
    11    5   23 1    
    12    6    7 1    
    13    7   24 1    
    14    7   25 1    
    15    8    9 1    
    16    9   10 2    
    17    9   11 am   BACKBONE|DICT|INTERRES
    18   11   12 am   BACKBONE|DICT|INTERRES
    19   11   26 1    
    20   12   13 2    
    21   12   14 am   BACKBONE|DICT|INTERRES
    22   14   15 1    
    23   14   27 1    
    24   15   20 1    
    25   15   16 1    
    26   15   28 1    
    27   16   17 1    
    28   16   29 1    
    29   16   30 1    
    30   17   18 1    
    31   17   31 1    
    32   17   32 1    
    33   18   19 1    
    34   18   33 1    
    35   18   34 1    
    36   19   20 1    
    37   19   35 1    
    38   19   36 1    
    39   20   37 1    
    40   20   38 1    
@<TRIPOS>SUBSTRUCTURE
     1 UNK         1 GROUP             0       ****    0 ROOT    
