ZINC21883079_539
                    3D
 Schrodinger Suite 2024-2.
 49 52  0  0  1  0            999 V2000
   10.5218   49.7046   13.9842 C   0  0  0  0  0  0
    9.5641   50.6807   14.6398 C   0  0  0  0  0  0
    8.6126   51.3478   13.8690 C   0  0  0  0  0  0
    7.7195   52.2309   14.4714 C   0  0  0  0  0  0
    7.7650   52.4558   15.8549 C   0  0  0  0  0  0
    8.7282   51.7803   16.6158 C   0  0  0  0  0  0
    9.6192   50.8955   16.0163 C   0  0  0  0  0  0
    6.7807   53.3883   16.5107 C   0  0  0  0  0  0
    6.5802   53.3981   17.8174 N   0  0  0  0  0  0
    5.6219   54.2748   17.9502 C   0  0  0  0  0  0
    5.2363   54.8365   16.7804 O   0  0  0  0  0  0
    6.0413   54.2335   15.8166 N   0  0  0  0  0  0
    4.8497   54.6333   19.2057 C   0  0  0  0  0  0
    5.7325   54.8145   20.4746 C   0  0  0  0  0  0
    5.0722   54.4264   21.8099 C   0  0  0  0  0  0
    3.8848   54.1009   21.8212 O   0  0  0  0  0  0
    5.8581   54.4992   22.9125 N   0  0  0  0  0  0
    5.4976   54.4006   24.2797 C   0  0  0  0  0  0
    6.5103   54.6594   25.2150 C   0  0  0  0  0  0
    6.2709   54.6447   26.5945 C   0  0  0  0  0  0
    4.9740   54.3594   27.0456 C   0  0  0  0  0  0
    3.9600   54.0723   26.1050 C   0  0  0  0  0  0
    4.2002   54.0971   24.7280 C   0  0  0  0  0  0
    2.4852   53.6969   26.9646 S   0  0  0  0  0  0
    3.3027   54.1014   28.4765 C   0  0  0  0  0  0
    4.5774   54.3560   28.3462 N   0  0  0  0  0  0
    2.6627   54.1403   29.6607 N   0  5  0  0  0  0
    1.1307   53.9284   29.9343 S   0  0  0  0  0  0
    0.2578   54.0968   28.7715 O   0  0  0  0  0  0
    0.7009   54.5965   31.1640 O   0  0  0  0  0  0
    1.0357   52.1018   30.3210 C   0  0  0  0  0  0
   10.0612   49.2370   13.1139 H   0  0  0  0  0  0
   11.4317   50.2124   13.6613 H   0  0  0  0  0  0
   10.7935   48.8975   14.6662 H   0  0  0  0  0  0
    8.5634   51.1826   12.8015 H   0  0  0  0  0  0
    6.9845   52.7311   13.8579 H   0  0  0  0  0  0
    8.7915   51.9342   17.6817 H   0  0  0  0  0  0
   10.3500   50.3826   16.6253 H   0  0  0  0  0  0
    4.0581   53.8973   19.3545 H   0  0  0  0  0  0
    4.3081   55.5671   19.0420 H   0  0  0  0  0  0
    6.2136   55.7921   20.5044 H   0  0  0  0  0  0
    6.5382   54.0976   20.3918 H   0  0  0  0  0  0
    6.8275   54.7253   22.7493 H   0  0  0  0  0  0
    7.5065   54.8928   24.8664 H   0  0  0  0  0  0
    7.0556   54.8589   27.3062 H   0  0  0  0  0  0
    3.3844   53.8760   24.0593 H   0  0  0  0  0  0
    0.0008   51.8598   30.5650 H   0  0  0  0  0  0
    1.6757   51.8990   31.1773 H   0  0  0  0  0  0
    1.3585   51.5373   29.4471 H   0  0  0  0  0  0
  1  2  1  0  0  0
  1 32  1  0  0  0
  1 33  1  0  0  0
  1 34  1  0  0  0
  2  7  2  0  0  0
  2  3  1  0  0  0
  3  4  2  0  0  0
  3 35  1  0  0  0
  4  5  1  0  0  0
  4 36  1  0  0  0
  5  6  2  0  0  0
  5  8  1  0  0  0
  6  7  1  0  0  0
  6 37  1  0  0  0
  7 38  1  0  0  0
  8 12  2  0  0  0
  8  9  1  0  0  0
  9 10  2  0  0  0
 10 11  1  0  0  0
 10 13  1  0  0  0
 11 12  1  0  0  0
 13 14  1  0  0  0
 13 39  1  0  0  0
 13 40  1  0  0  0
 14 15  1  0  0  0
 14 41  1  0  0  0
 14 42  1  0  0  0
 15 16  2  0  0  0
 15 17  1  0  0  0
 17 18  1  0  0  0
 17 43  1  0  0  0
 18 23  2  0  0  0
 18 19  1  0  0  0
 19 20  2  0  0  0
 19 44  1  0  0  0
 20 21  1  0  0  0
 20 45  1  0  0  0
 21 26  1  0  0  0
 21 22  2  0  0  0
 22 23  1  0  0  0
 22 24  1  0  0  0
 23 46  1  0  0  0
 24 25  1  0  0  0
 25 26  2  0  0  0
 25 27  1  0  0  0
 27 28  1  0  0  0
 28 29  2  0  0  0
 28 30  2  0  0  0
 28 31  1  0  0  0
 31 47  1  0  0  0
 31 48  1  0  0  0
 31 49  1  0  0  0
M  CHG  1  27  -1
M  END
> <i_i_glide_confnum>
11

> <i_i_glide_lignum>
540

> <i_i_glide_posenum>
258

> <i_i_glide_rotatable_bonds>
8

> <i_m_Source_File_Index>
4490

> <b_m_subgroup_collapsed>
0

> <r_i_docking_score>
-5.3432

> <r_i_glide_ecoul>
-0.871957

> <r_i_glide_eff_state_penalty>
0

> <r_i_glide_einternal>
2.92674

> <r_i_glide_emodel>
-64.0766

> <r_i_glide_energy>
-46.6798

> <r_i_glide_erotb>
0.675031

> <r_i_glide_esite>
-0.0210297

> <r_i_glide_evdw>
-45.8078

> <r_i_glide_gscore>
-5.3432

> <r_i_glide_hbond>
-0.0916542

> <r_i_glide_ligand_efficiency>
-0.172361

> <r_i_glide_ligand_efficiency_ln>
-1.20505

> <r_i_glide_ligand_efficiency_sa>
-0.541452

> <r_i_glide_lipo>
-2.65469

> <r_i_glide_metal>
0

> <r_i_glide_rewards>
-0.829666

> <s_i_glide_gridfile>
wee1_glide-grid

> <s_m_Source_File>
wee1_decoys_glide_SP.sdf

> <s_m_Source_Path>
/Users/zhangxujun/Desktop

> <s_m_entry_id>
4765

> <s_m_entry_name>
wee1_decoys_glide_SP.4490

> <s_m_subgroup_title>
wee1_decoys_glide_SP

> <s_m_subgroupid>
wee1_decoys_glide_SP


$$$$
