@<TRIPOS>MOLECULE
ZINC37605745_6148
28   29    1
SMALL
USER_CHARGES


@<TRIPOS>ATOM
      1 C1          0.9313   52.7931   31.0003 C.3       1 UNK         0.0000 
      2 C2          1.0687   53.8599   29.8913 C.3       1 UNK         0.0000 
      3 C3          0.7574   55.2754   30.4138 C.3       1 UNK         0.0000 
      4 C4          2.4090   53.8168   29.1593 C.2       1 UNK         0.0000 
      5 N5          2.5092   54.2382   27.9135 N.2       1 UNK         0.0000 
      6 C6          3.7692   54.0188   27.6409 C.2       1 UNK         0.0000 
      7 O7          4.4592   53.5053   28.6911 O.3       1 UNK         0.0000 
      8 N8          3.5224   53.3833   29.7158 N.2       1 UNK         0.0000 
      9 C9          4.4558   54.1809   26.3219 C.ar      1 UNK         0.0000 
     10 C10         3.6923   54.0967   25.1482 C.ar      1 UNK         0.0000 
     11 C11         4.2946   54.1900   23.8924 C.ar      1 UNK         0.0000 
     12 C12         5.6763   54.3937   23.8019 C.ar      1 UNK         0.0000 
     13 C13         6.4400   54.4970   24.9619 C.ar      1 UNK         0.0000 
     14 C14         5.8401   54.3885   26.2165 C.ar      1 UNK         0.0000 
     15 F15         6.6185   54.4921   27.3178 F         1 UNK         0.0000 
     16 F16         6.2857   54.4965   22.5967 F         1 UNK         0.0000 
     17 N17         3.5108   54.0886   22.7409 N.pl3     1 UNK         0.0000 
     18 H18         1.0241   51.7892   30.5854 H         1 UNK         0.0000 
     19 H19        -0.0428   52.8495   31.4895 H         1 UNK         0.0000 
     20 H20         1.6878   52.8967   31.7770 H         1 UNK         0.0000 
     21 H21         0.2909   53.6158   29.1647 H         1 UNK         0.0000 
     22 H22         0.7108   55.9986   29.5993 H         1 UNK         0.0000 
     23 H23        -0.2009   55.2962   30.9278 H         1 UNK         0.0000 
     24 H24         1.5045   55.6335   31.1195 H         1 UNK         0.0000 
     25 H25         2.6257   53.9328   25.2116 H         1 UNK         0.0000 
     26 H26         7.5038   54.6534   24.8817 H         1 UNK         0.0000 
     27 H27         2.5145   53.9415   22.8109 H         1 UNK         0.0000 
     28 H28         3.9566   54.1455   21.8349 H         1 UNK         0.0000 
@<TRIPOS>BOND
     1    1    2 1    
     2    1   18 1    
     3    1   19 1    
     4    1   20 1    
     5    2    3 1    
     6    2    4 1    
     7    2   21 1    
     8    3   22 1    
     9    3   23 1    
    10    3   24 1    
    11    4    8 2    
    12    4    5 1    
    13    5    6 2    
    14    6    7 1    
    15    6    9 1    
    16    7    8 1    
    17    9   14 ar   
    18    9   10 ar   
    19   10   11 ar   
    20   10   25 1    
    21   11   12 ar   
    22   11   17 1    
    23   12   13 ar   
    24   12   16 1    
    25   13   14 ar   
    26   13   26 1    
    27   14   15 1    
    28   17   27 1    
    29   17   28 1    
@<TRIPOS>SUBSTRUCTURE
     1 UNK         1 GROUP             0       ****    0 ROOT    
