@<TRIPOS>MOLECULE
ZINC22405240_4381
54   56    1
SMALL
USER_CHARGES


@<TRIPOS>ATOM
      1 C1          1.8995   50.8388   28.0165 C.3       1 UNK         0.0000 
      2 C2          0.4982   51.0424   27.4177 C.3       1 UNK         0.0000 
      3 H3         -0.2138   50.4968   28.0408 H         1 UNK         0.0000 
      4 C4          0.3929   50.4668   25.9843 C.3       1 UNK         0.0000 
      5 C5         -1.0322   50.5866   25.4103 C.3       1 UNK         0.0000 
      6 C6         -1.5420   52.0428   25.4657 C.3       1 UNK         0.0000 
      7 C7         -1.3987   52.6286   26.8837 C.3       1 UNK         0.0000 
      8 C8          0.0611   52.5275   27.3861 C.3       1 UNK         0.0000 
      9 H9          0.7250   53.0838   26.7228 H         1 UNK         0.0000 
     10 N10         0.1271   53.0722   28.7656 N.pl3     1 UNK         0.0000 
     11 S11         1.1592   54.4525   29.1339 S.o2      1 UNK         0.0000 
     12 O12         0.9745   54.7874   30.5474 O.2       1 UNK         0.0000 
     13 O13         0.9341   55.4559   28.0988 O.2       1 UNK         0.0000 
     14 C14         2.8490   53.9169   28.9139 C.ar      1 UNK         0.0000 
     15 C15         3.5763   54.4164   27.8268 C.ar      1 UNK         0.0000 
     16 C16         4.8699   53.9564   27.5606 C.ar      1 UNK         0.0000 
     17 C17         5.4343   53.0044   28.4059 C.ar      1 UNK         0.0000 
     18 C18         4.7012   52.4966   29.4734 C.ar      1 UNK         0.0000 
     19 C19         3.4200   52.9729   29.7724 C.ar      1 UNK         0.0000 
     20 O20         2.6607   52.4957   30.8232 O.3       1 UNK         0.0000 
     21 C21         3.2893   51.8103   31.8990 C.3       1 UNK         0.0000 
     22 C22         5.6103   54.3874   26.3284 C.2       1 UNK         0.0000 
     23 O23         6.7896   54.7378   26.3895 O.2       1 UNK         0.0000 
     24 N24         4.8696   54.2676   25.2100 N.am      1 UNK         0.0000 
     25 C25         5.2143   54.4285   23.8600 C.ar      1 UNK         0.0000 
     26 C26         6.4625   54.8967   23.4170 C.ar      1 UNK         0.0000 
     27 C27         6.7045   55.0676   22.0559 C.ar      1 UNK         0.0000 
     28 C28         5.7190   54.7493   21.1227 C.ar      1 UNK         0.0000 
     29 C29         4.4890   54.2534   21.5511 C.ar      1 UNK         0.0000 
     30 C30         4.2296   54.0970   22.9130 C.ar      1 UNK         0.0000 
     31 Br31        2.5064   53.4614   23.4433 Br        1 UNK         0.0000 
     32 H32         2.6005   51.5869   27.6577 H         1 UNK         0.0000 
     33 H33         1.8610   50.8943   29.1025 H         1 UNK         0.0000 
     34 H34         2.3044   49.8610   27.7613 H         1 UNK         0.0000 
     35 H35         1.1041   50.9683   25.3257 H         1 UNK         0.0000 
     36 H36         0.6991   49.4183   25.9857 H         1 UNK         0.0000 
     37 H37        -1.7059   49.9414   25.9797 H         1 UNK         0.0000 
     38 H38        -1.0559   50.2198   24.3831 H         1 UNK         0.0000 
     39 H39        -2.5862   52.0823   25.1497 H         1 UNK         0.0000 
     40 H40        -0.9826   52.6559   24.7565 H         1 UNK         0.0000 
     41 H41        -2.0647   52.0888   27.5610 H         1 UNK         0.0000 
     42 H42        -1.7449   53.6600   26.8818 H         1 UNK         0.0000 
     43 H43        -0.1080   52.4394   29.5371 H         1 UNK         0.0000 
     44 H44         3.1224   55.1388   27.1620 H         1 UNK         0.0000 
     45 H45         6.4145   52.6012   28.1907 H         1 UNK         0.0000 
     46 H46         5.1045   51.6974   30.0612 H         1 UNK         0.0000 
     47 H47         2.5039   51.4079   32.5362 H         1 UNK         0.0000 
     48 H48         3.9044   50.9640   31.6009 H         1 UNK         0.0000 
     49 H49         3.9039   52.4966   32.4816 H         1 UNK         0.0000 
     50 H50         3.9282   53.9324   25.3469 H         1 UNK         0.0000 
     51 H51         7.2550   55.1578   24.0997 H         1 UNK         0.0000 
     52 H52         7.6645   55.4394   21.7266 H         1 UNK         0.0000 
     53 H53         5.9092   54.8793   20.0672 H         1 UNK         0.0000 
     54 H54         3.7268   54.0109   20.8241 H         1 UNK         0.0000 
@<TRIPOS>BOND
     1    1    2 1    
     2    1   32 1    
     3    1   33 1    
     4    1   34 1    
     5    2    3 1    
     6    2    8 1    
     7    2    4 1    
     8    4    5 1    
     9    4   35 1    
    10    4   36 1    
    11    5    6 1    
    12    5   37 1    
    13    5   38 1    
    14    6    7 1    
    15    6   39 1    
    16    6   40 1    
    17    7    8 1    
    18    7   41 1    
    19    7   42 1    
    20    8    9 1    
    21    8   10 1    
    22   10   11 1    
    23   10   43 1    
    24   11   12 2    
    25   11   13 2    
    26   11   14 1    
    27   14   19 ar   
    28   14   15 ar   
    29   15   16 ar   
    30   15   44 1    
    31   16   17 ar   
    32   16   22 1    
    33   17   18 ar   
    34   17   45 1    
    35   18   19 ar   
    36   18   46 1    
    37   19   20 1    
    38   20   21 1    
    39   21   47 1    
    40   21   48 1    
    41   21   49 1    
    42   22   23 2    
    43   22   24 am   BACKBONE|DICT|INTERRES
    44   24   25 1    
    45   24   50 1    
    46   25   30 ar   
    47   25   26 ar   
    48   26   27 ar   
    49   26   51 1    
    50   27   28 ar   
    51   27   52 1    
    52   28   29 ar   
    53   28   53 1    
    54   29   30 ar   
    55   29   54 1    
    56   30   31 1    
@<TRIPOS>SUBSTRUCTURE
     1 UNK         1 GROUP             0       ****    0 ROOT    
