ZINC63588612_2174
                    3D
 Schrodinger Suite 2024-2.
 57 60  0  0  1  0            999 V2000
   -2.1590   51.5525   20.1912 C   0  0  0  0  0  0
   -0.6878   51.2421   20.3842 C   0  0  0  0  0  0
   -0.0160   50.4492   19.4515 C   0  0  0  0  0  0
    1.3416   50.1666   19.6129 C   0  0  0  0  0  0
    2.0251   50.6752   20.7213 C   0  0  0  0  0  0
    1.3639   51.4586   21.6712 C   0  0  0  0  0  0
    0.0043   51.7431   21.4899 C   0  0  0  0  0  0
    2.1033   51.9404   22.7620 N   0  0  0  0  0  0
    1.6947   52.3946   24.0566 C   0  0  0  0  0  0
    0.6191   51.5940   24.5547 N   0  0  0  0  0  0
   -0.0681   51.8647   25.8158 C   0  0  0  0  0  0
    0.8140   51.5489   27.0353 C   0  0  0  0  0  0
    0.3498   52.1866   28.3258 C   0  0  0  0  0  0
    0.6637   53.3678   28.8865 C   0  0  0  0  0  0
    1.4571   54.4975   28.3808 C   0  0  0  0  0  0
    1.6763   55.5878   29.1432 C   0  0  0  0  0  0
    1.1044   55.6056   30.4820 C   0  0  0  0  0  0
    0.3772   54.5628   30.9673 C   0  0  0  0  0  0
    0.1495   53.4287   30.1826 C   0  0  0  0  0  0
   -0.4944   52.3250   30.4819 N   0  3  0  0  0  0
   -0.5221   51.4440   29.3062 C   0  0  0  0  0  0
    2.2420   53.3391   24.7405 N   0  0  0  0  0  0
    3.3704   54.0199   24.2865 C   0  0  0  0  0  0
    3.4433   54.4966   23.1512 O   0  0  0  0  0  0
    4.4965   54.2082   25.2875 C   0  0  0  0  0  0
    4.4525   53.6980   26.5955 C   0  0  0  0  0  0
    5.5140   53.9097   27.4748 C   0  0  0  0  0  0
    6.6146   54.6292   27.0204 C   0  0  0  0  0  0
    6.7022   55.1208   25.7594 N   0  0  0  0  0  0
    5.6606   54.8984   24.9179 C   0  0  0  0  0  0
    2.0634   49.3022   18.5964 C   0  0  0  0  0  0
   -2.7194   50.6263   20.0627 H   0  0  0  0  0  0
   -2.5811   52.0855   21.0437 H   0  0  0  0  0  0
   -2.3000   52.1448   19.2866 H   0  0  0  0  0  0
   -0.5471   50.0547   18.5964 H   0  0  0  0  0  0
    3.0755   50.4522   20.8412 H   0  0  0  0  0  0
   -0.5136   52.3709   22.1999 H   0  0  0  0  0  0
    0.0993   51.0460   23.8825 H   0  0  0  0  0  0
   -0.4027   52.8971   25.8213 H   0  0  0  0  0  0
   -0.9693   51.2509   25.8626 H   0  0  0  0  0  0
    0.8994   50.4702   27.1717 H   0  0  0  0  0  0
    1.8311   51.8967   26.8826 H   0  0  0  0  0  0
    1.8514   54.4976   27.3752 H   0  0  0  0  0  0
    2.2417   56.4289   28.7687 H   0  0  0  0  0  0
    1.2695   56.4710   31.1105 H   0  0  0  0  0  0
   -0.0116   54.6212   31.9742 H   0  0  0  0  0  0
   -1.5559   51.3012   28.9889 H   0  0  0  0  0  0
   -0.0973   50.4969   29.5953 H   0  0  0  0  0  0
    3.0221   52.2612   22.4889 H   0  0  0  0  0  0
    3.6151   53.1193   26.9440 H   0  0  0  0  0  0
    5.4864   53.5156   28.4811 H   0  0  0  0  0  0
    7.4483   54.8202   27.6788 H   0  0  0  0  0  0
    5.7827   55.2988   23.9233 H   0  0  0  0  0  0
    1.4347   48.4665   18.2885 H   0  0  0  0  0  0
    2.3037   49.8857   17.7063 H   0  0  0  0  0  0
    2.9841   48.8761   18.9987 H   0  0  0  0  0  0
   -0.9275   52.1015   31.3856 H   0  0  0  0  0  0
  1  2  1  0  0  0
  1 32  1  0  0  0
  1 33  1  0  0  0
  1 34  1  0  0  0
  2  7  2  0  0  0
  2  3  1  0  0  0
  3  4  2  0  0  0
  3 35  1  0  0  0
  4  5  1  0  0  0
  4 31  1  0  0  0
  5  6  2  0  0  0
  5 36  1  0  0  0
  6  7  1  0  0  0
  6  8  1  0  0  0
  7 37  1  0  0  0
  8 49  1  0  0  0
  8  9  1  0  0  0
  9 10  1  0  0  0
  9 22  2  0  0  0
 10 11  1  0  0  0
 10 38  1  0  0  0
 11 12  1  0  0  0
 11 39  1  0  0  0
 11 40  1  0  0  0
 12 13  1  0  0  0
 12 41  1  0  0  0
 12 42  1  0  0  0
 13 21  1  0  0  0
 13 14  2  0  0  0
 14 19  1  0  0  0
 14 15  1  0  0  0
 15 16  2  0  0  0
 15 43  1  0  0  0
 16 17  1  0  0  0
 16 44  1  0  0  0
 17 18  2  0  0  0
 17 45  1  0  0  0
 18 19  1  0  0  0
 18 46  1  0  0  0
 19 20  2  0  0  0
 20 21  1  0  0  0
 20 57  1  0  0  0
 21 47  1  0  0  0
 21 48  1  0  0  0
 22 23  1  0  0  0
 23 24  2  0  0  0
 23 25  1  0  0  0
 25 30  2  0  0  0
 25 26  1  0  0  0
 26 27  2  0  0  0
 26 50  1  0  0  0
 27 28  1  0  0  0
 27 51  1  0  0  0
 28 29  2  0  0  0
 28 52  1  0  0  0
 29 30  1  0  0  0
 30 53  1  0  0  0
 31 54  1  0  0  0
 31 55  1  0  0  0
 31 56  1  0  0  0
M  CHG  1  20   1
M  END
> <i_i_glide_confnum>
102

> <i_i_glide_lignum>
2175

> <i_i_glide_posenum>
119

> <i_i_glide_rotatable_bonds>
8

> <i_m_Source_File_Index>
4387

> <b_m_subgroup_collapsed>
0

> <r_i_docking_score>
-7.36507

> <r_i_glide_ecoul>
-2.52184

> <r_i_glide_eff_state_penalty>
0

> <r_i_glide_einternal>
8.87044

> <r_i_glide_emodel>
-68.6908

> <r_i_glide_energy>
-48.2659

> <r_i_glide_erotb>
0.695323

> <r_i_glide_esite>
-0.0997087

> <r_i_glide_evdw>
-45.7441

> <r_i_glide_gscore>
-7.36507

> <r_i_glide_hbond>
-0.486905

> <r_i_glide_ligand_efficiency>
-0.237583

> <r_i_glide_ligand_efficiency_ln>
-1.66105

> <r_i_glide_ligand_efficiency_sa>
-0.746338

> <r_i_glide_lipo>
-3.06423

> <r_i_glide_metal>
0

> <r_i_glide_rewards>
-1.74407

> <s_i_glide_gridfile>
wee1_glide-grid

> <s_m_Source_File>
wee1_decoys_glide_SP.sdf

> <s_m_Source_Path>
/Users/zhangxujun/Desktop

> <s_m_entry_id>
4662

> <s_m_entry_name>
wee1_decoys_glide_SP.4387

> <s_m_subgroup_title>
wee1_decoys_glide_SP

> <s_m_subgroupid>
wee1_decoys_glide_SP


$$$$
