@<TRIPOS>MOLECULE
ZINC40940475_3281
38   40    1
SMALL
USER_CHARGES


@<TRIPOS>ATOM
      1 C1         -3.9260   50.4961   29.4425 C.ar      1 UNK         0.0000 
      2 C2         -4.8987   50.0435   30.3279 C.ar      1 UNK         0.0000 
      3 C3         -6.2359   50.0493   29.9426 C.ar      1 UNK         0.0000 
      4 C4         -6.6054   50.5048   28.6791 C.ar      1 UNK         0.0000 
      5 C5         -5.6312   50.9626   27.7935 C.ar      1 UNK         0.0000 
      6 C6         -4.2801   50.9538   28.1654 C.ar      1 UNK         0.0000 
      7 C7         -3.2320   51.5003   27.2280 C.2       1 UNK         0.0000 
      8 O8         -3.4984   52.4480   26.4815 O.2       1 UNK         0.0000 
      9 N9         -2.0208   50.8967   27.2837 N.am      1 UNK         0.0000 
     10 N10        -0.9028   51.4688   26.6368 N.am      1 UNK         0.0000 
     11 C11        -0.0677   52.2225   27.4011 C.2       1 UNK         0.0000 
     12 O12        -0.2471   52.4907   28.5955 O.2       1 UNK         0.0000 
     13 C13         1.0676   52.6520   26.6079 C.2       1 UNK         0.0000 
     14 C14         2.0864   53.3373   27.1889 C.2       1 UNK         0.0000 
     15 C15         3.3629   53.8309   26.6143 C.ar      1 UNK         0.0000 
     16 C16         4.3985   54.1325   27.5036 C.ar      1 UNK         0.0000 
     17 C17         5.6369   54.5568   27.0360 C.ar      1 UNK         0.0000 
     18 C18         5.8703   54.6708   25.6698 C.ar      1 UNK         0.0000 
     19 C19         4.8641   54.3473   24.7422 C.ar      1 UNK         0.0000 
     20 C20         3.6059   53.9680   25.2409 C.ar      1 UNK         0.0000 
     21 N21         5.0991   54.3678   23.2735 N.pl3     1 UNK         0.0000 
     22 O22         4.1622   54.0965   22.5285 O.co2     1 UNK         0.0000 
     23 O23         6.2178   54.6435   22.8469 O.co2     1 UNK         0.0000 
     24 O24         7.1044   55.1122   25.2816 O.3       1 UNK         0.0000 
     25 S25         0.8601   52.0923   24.9417 S.3       1 UNK         0.0000 
     26 C26        -0.5921   51.2163   25.3311 C.2       1 UNK         0.0000 
     27 S27        -1.3530   50.2790   24.1788 S.2       1 UNK         0.0000 
     28 Br28       -7.5666   49.4365   31.1565 Br        1 UNK         0.0000 
     29 H29        -2.8956   50.4965   29.7704 H         1 UNK         0.0000 
     30 H30        -4.6100   49.6963   31.3095 H         1 UNK         0.0000 
     31 H31        -7.6463   50.5090   28.3870 H         1 UNK         0.0000 
     32 H32        -5.9319   51.3220   26.8190 H         1 UNK         0.0000 
     33 H33        -1.8252   49.9966   27.7223 H         1 UNK         0.0000 
     34 H34         1.9799   53.5722   28.2408 H         1 UNK         0.0000 
     35 H35         4.2574   54.0339   28.5699 H         1 UNK         0.0000 
     36 H36         6.4217   54.7973   27.7393 H         1 UNK         0.0000 
     37 H37         2.8210   53.7613   24.5342 H         1 UNK         0.0000 
     38 H38         7.2083   55.1042   24.3214 H         1 UNK         0.0000 
@<TRIPOS>BOND
     1    1    6 ar   
     2    1    2 ar   
     3    1   29 1    
     4    2    3 ar   
     5    2   30 1    
     6    3    4 ar   
     7    3   28 1    
     8    4    5 ar   
     9    4   31 1    
    10    5    6 ar   
    11    5   32 1    
    12    6    7 1    
    13    7    8 2    
    14    7    9 am   BACKBONE|DICT|INTERRES
    15    9   10 1    
    16    9   33 1    
    17   10   26 am   BACKBONE|DICT|INTERRES
    18   10   11 am   BACKBONE|DICT|INTERRES
    19   11   12 2    
    20   11   13 1    
    21   13   14 2    
    22   13   25 1    
    23   14   15 1    
    24   14   34 1    
    25   15   20 ar   
    26   15   16 ar   
    27   16   17 ar   
    28   16   35 1    
    29   17   18 ar   
    30   17   36 1    
    31   18   19 ar   
    32   18   24 1    
    33   19   20 ar   
    34   19   21 1    
    35   20   37 1    
    36   21   22 2    
    37   21   23 1    
    38   24   38 1    
    39   25   26 1    
    40   26   27 2    
@<TRIPOS>SUBSTRUCTURE
     1 UNK         1 GROUP             0       ****    0 ROOT    
