@<TRIPOS>MOLECULE
ZINC58964194_5617
55   58    1
SMALL
USER_CHARGES


@<TRIPOS>ATOM
      1 C1          1.6736   50.6653   19.6852 C.3       1 UNK         0.0000 
      2 C2          1.5905   51.1277   21.1605 C.3       1 UNK         0.0000 
      3 H3          1.7806   50.2463   21.7744 H         1 UNK         0.0000 
      4 C4          2.6560   52.1620   21.5885 C.2       1 UNK         0.0000 
      5 O5          2.7036   52.4986   22.7719 O.2       1 UNK         0.0000 
      6 N6          3.4867   52.6300   20.6322 N.am      1 UNK         0.0000 
      7 C7          4.5555   53.5402   20.7217 C.ar      1 UNK         0.0000 
      8 C8          5.1066   53.9516   19.5098 C.ar      1 UNK         0.0000 
      9 C9          6.1902   54.8261   19.4845 C.ar      1 UNK         0.0000 
     10 C10         6.7597   55.2964   20.6780 C.ar      1 UNK         0.0000 
     11 C11         6.2045   54.8967   21.9065 C.ar      1 UNK         0.0000 
     12 C12         5.1041   54.0204   21.9185 C.ar      1 UNK         0.0000 
     13 O13         6.7947   55.3907   23.0567 O.3       1 UNK         0.0000 
     14 C14         6.3322   54.9631   24.3327 C.3       1 UNK         0.0000 
     15 O15         7.8872   56.0965   20.7152 O.3       1 UNK         0.0000 
     16 C16         8.6202   56.3231   19.5144 C.3       1 UNK         0.0000 
     17 S17        -0.0870   51.6955   21.5890 S.3       1 UNK         0.0000 
     18 C18        -0.4242   50.9670   23.1585 C.ar      1 UNK         0.0000 
     19 N19         0.0159   51.6116   24.2712 N.ar      1 UNK         0.0000 
     20 C20        -0.2550   51.0285   25.4761 C.ar      1 UNK         0.0000 
     21 C21        -0.9393   49.8021   25.5423 C.ar      1 UNK         0.0000 
     22 C22        -1.3562   49.2141   24.3419 C.ar      1 UNK         0.0000 
     23 N23        -1.1007   49.7913   23.1383 N.ar      1 UNK         0.0000 
     24 C24        -2.1347   47.9007   24.3184 C.3       1 UNK         0.0000 
     25 F25        -1.2955   46.8949   24.0802 F         1 UNK         0.0000 
     26 F26        -2.7459   47.6675   25.4800 F         1 UNK         0.0000 
     27 F27        -3.0688   47.9065   23.3661 F         1 UNK         0.0000 
     28 C28         0.2061   51.7516   26.7059 C.ar      1 UNK         0.0000 
     29 C29         1.2837   52.6722   26.6682 C.ar      1 UNK         0.0000 
     30 C30         1.7169   53.3530   27.8169 C.ar      1 UNK         0.0000 
     31 C31         1.0494   53.0927   29.0095 C.ar      1 UNK         0.0000 
     32 C32         0.0049   52.2172   29.0649 C.ar      1 UNK         0.0000 
     33 C33        -0.4429   51.5357   27.9415 C.ar      1 UNK         0.0000 
     34 O34        -0.4961   52.1908   30.3267 O.3       1 UNK         0.0000 
     35 C35         0.4267   52.8927   31.1146 C.3       1 UNK         0.0000 
     36 O36         1.2480   53.6319   30.2436 O.3       1 UNK         0.0000 
     37 H37         2.6644   50.2815   19.4279 H         1 UNK         0.0000 
     38 H38         0.9645   49.8606   19.4946 H         1 UNK         0.0000 
     39 H39         1.4402   51.4745   18.9923 H         1 UNK         0.0000 
     40 H40         3.3121   52.2891   19.6983 H         1 UNK         0.0000 
     41 H41         4.7063   53.5874   18.5738 H         1 UNK         0.0000 
     42 H42         6.5876   55.1090   18.5212 H         1 UNK         0.0000 
     43 H43         4.7019   53.7014   22.8643 H         1 UNK         0.0000 
     44 H44         6.9277   55.4458   25.1088 H         1 UNK         0.0000 
     45 H45         5.2899   55.2416   24.4949 H         1 UNK         0.0000 
     46 H46         6.4416   53.8844   24.4566 H         1 UNK         0.0000 
     47 H47         9.5201   56.8959   19.7394 H         1 UNK         0.0000 
     48 H48         8.0405   56.8979   18.7915 H         1 UNK         0.0000 
     49 H49         8.9410   55.3858   19.0585 H         1 UNK         0.0000 
     50 H50        -1.1360   49.3059   26.4817 H         1 UNK         0.0000 
     51 H51         1.8013   52.8596   25.7362 H         1 UNK         0.0000 
     52 H52         2.5404   54.0525   27.7696 H         1 UNK         0.0000 
     53 H53        -1.2817   50.8581   28.0308 H         1 UNK         0.0000 
     54 H54         1.0297   52.1718   31.6709 H         1 UNK         0.0000 
     55 H55        -0.0950   53.5333   31.8282 H         1 UNK         0.0000 
@<TRIPOS>BOND
     1    1    2 1    
     2    1   37 1    
     3    1   38 1    
     4    1   39 1    
     5    2    3 1    
     6    2    4 1    
     7    2   17 1    
     8    4    5 2    
     9    4    6 am   BACKBONE|DICT|INTERRES
    10    6    7 1    
    11    6   40 1    
    12    7   12 ar   
    13    7    8 ar   
    14    8    9 ar   
    15    8   41 1    
    16    9   10 ar   
    17    9   42 1    
    18   10   11 ar   
    19   10   15 1    
    20   11   12 ar   
    21   11   13 1    
    22   12   43 1    
    23   13   14 1    
    24   14   44 1    
    25   14   45 1    
    26   14   46 1    
    27   15   16 1    
    28   16   47 1    
    29   16   48 1    
    30   16   49 1    
    31   17   18 1    
    32   18   23 ar   
    33   18   19 ar   
    34   19   20 ar   
    35   20   21 ar   
    36   20   28 1    
    37   21   22 ar   
    38   21   50 1    
    39   22   23 ar   
    40   22   24 1    
    41   24   25 1    
    42   24   26 1    
    43   24   27 1    
    44   28   33 ar   
    45   28   29 ar   
    46   29   30 ar   
    47   29   51 1    
    48   30   31 ar   
    49   30   52 1    
    50   31   36 1    
    51   31   32 ar   
    52   32   33 ar   
    53   32   34 1    
    54   33   53 1    
    55   34   35 1    
    56   35   36 1    
    57   35   54 1    
    58   35   55 1    
@<TRIPOS>SUBSTRUCTURE
     1 UNK         1 GROUP             0       ****    0 ROOT    
