@<TRIPOS>MOLECULE
ZINC40735023_3945
52   55    1
SMALL
USER_CHARGES


@<TRIPOS>ATOM
      1 C1          7.5374   54.7600   14.7028 C.3       1 UNK         0.0000 
      2 C2          6.5092   54.8842   15.8449 C.3       1 UNK         0.0000 
      3 C3          5.7400   53.5944   16.0802 C.3       1 UNK         0.0000 
      4 C4          5.1804   53.8787   17.4727 C.3       1 UNK         0.0000 
      5 H5          4.8579   52.9318   17.9016 H         1 UNK         0.0000 
      6 C6          3.9955   54.8735   17.3699 C.3       1 UNK         0.0000 
      7 C7          4.2866   56.1966   16.5771 C.3       1 UNK         0.0000 
      8 C8          5.5126   56.0650   15.5982 C.3       1 UNK         0.0000 
      9 C9          3.0232   56.5927   15.7760 C.3       1 UNK         0.0000 
     10 C10         4.6334   57.2929   17.6173 C.3       1 UNK         0.0000 
     11 N11         6.2850   54.4704   18.2392 N.pl3     1 UNK         0.0000 
     12 C12         7.1968   55.0127   17.2158 C.3       1 UNK         0.0000 
     13 C13         6.3879   54.7102   19.6285 C.ar      1 UNK         0.0000 
     14 C14         5.4994   54.2167   20.6262 C.ar      1 UNK         0.0000 
     15 C15         5.8059   54.5405   21.9721 C.ar      1 UNK         0.0000 
     16 N16         6.8889   55.2916   22.2944 N.ar      1 UNK         0.0000 
     17 C17         7.6833   55.6967   21.2826 C.ar      1 UNK         0.0000 
     18 N18         7.4812   55.4460   19.9753 N.ar      1 UNK         0.0000 
     19 N19         4.9760   54.0968   23.0204 N.pl3     1 UNK         0.0000 
     20 C20         5.0476   54.2164   24.4215 C.ar      1 UNK         0.0000 
     21 C21         6.2685   54.3277   25.1051 C.ar      1 UNK         0.0000 
     22 C22         6.3003   54.4302   26.4964 C.ar      1 UNK         0.0000 
     23 C23         5.1108   54.4277   27.2222 C.ar      1 UNK         0.0000 
     24 C24         3.8908   54.3302   26.5559 C.ar      1 UNK         0.0000 
     25 C25         3.8528   54.2227   25.1651 C.ar      1 UNK         0.0000 
     26 Cl26        2.3045   54.0992   24.3935 Cl        1 UNK         0.0000 
     27 Cl27        5.1397   54.5359   28.9422 Cl        1 UNK         0.0000 
     28 N28         4.3886   53.4067   20.3236 N.pl3     1 UNK         0.0000 
     29 H29         8.1172   55.6767   14.5944 H         1 UNK         0.0000 
     30 H30         7.0479   54.5640   13.7473 H         1 UNK         0.0000 
     31 H31         8.2421   53.9462   14.8793 H         1 UNK         0.0000 
     32 H32         4.9685   53.4018   15.3332 H         1 UNK         0.0000 
     33 H33         6.3981   52.7220   16.1037 H         1 UNK         0.0000 
     34 H34         3.2821   54.2963   16.7760 H         1 UNK         0.0000 
     35 H35         3.4548   55.0411   18.3033 H         1 UNK         0.0000 
     36 H36         5.9939   57.0237   15.3907 H         1 UNK         0.0000 
     37 H37         5.0938   55.7796   14.6304 H         1 UNK         0.0000 
     38 H38         3.1733   57.5302   15.2401 H         1 UNK         0.0000 
     39 H39         2.7567   55.8338   15.0379 H         1 UNK         0.0000 
     40 H40         2.1643   56.7294   16.4348 H         1 UNK         0.0000 
     41 H41         4.6426   58.2905   17.1737 H         1 UNK         0.0000 
     42 H42         3.9070   57.2964   18.4258 H         1 UNK         0.0000 
     43 H43         5.6064   57.1485   18.0812 H         1 UNK         0.0000 
     44 H44         8.1155   54.4225   17.2335 H         1 UNK         0.0000 
     45 H45         7.4408   56.0619   17.3882 H         1 UNK         0.0000 
     46 H46         8.5860   56.2305   21.5526 H         1 UNK         0.0000 
     47 H47         4.0978   53.7243   22.6966 H         1 UNK         0.0000 
     48 H48         7.2052   54.3017   24.5707 H         1 UNK         0.0000 
     49 H49         7.2437   54.4944   27.0176 H         1 UNK         0.0000 
     50 H50         2.9685   54.3305   27.1203 H         1 UNK         0.0000 
     51 H51         3.8156   53.0116   21.0507 H         1 UNK         0.0000 
     52 H52         4.2414   53.1248   19.3649 H         1 UNK         0.0000 
@<TRIPOS>BOND
     1    1    2 1    
     2    1   29 1    
     3    1   30 1    
     4    1   31 1    
     5    2    8 1    
     6    2   12 1    
     7    2    3 1    
     8    3    4 1    
     9    3   32 1    
    10    3   33 1    
    11    4    5 1    
    12    4    6 1    
    13    4   11 1    
    14    6    7 1    
    15    6   34 1    
    16    6   35 1    
    17    7    8 1    
    18    7    9 1    
    19    7   10 1    
    20    8   36 1    
    21    8   37 1    
    22    9   38 1    
    23    9   39 1    
    24    9   40 1    
    25   10   41 1    
    26   10   42 1    
    27   10   43 1    
    28   11   12 1    
    29   11   13 1    
    30   12   44 1    
    31   12   45 1    
    32   13   18 ar   
    33   13   14 ar   
    34   14   15 ar   
    35   14   28 1    
    36   15   16 ar   
    37   15   19 1    
    38   16   17 ar   
    39   17   18 ar   
    40   17   46 1    
    41   19   20 1    
    42   19   47 1    
    43   20   25 ar   
    44   20   21 ar   
    45   21   22 ar   
    46   21   48 1    
    47   22   23 ar   
    48   22   49 1    
    49   23   24 ar   
    50   23   27 1    
    51   24   25 ar   
    52   24   50 1    
    53   25   26 1    
    54   28   51 1    
    55   28   52 1    
@<TRIPOS>SUBSTRUCTURE
     1 UNK         1 GROUP             0       ****    0 ROOT    
