@<TRIPOS>MOLECULE
ZINC27520998_5992
53   55    1
SMALL
USER_CHARGES


@<TRIPOS>ATOM
      1 C1          4.1503   53.1449   29.5205 C.3       1 UNK         0.0000 
      2 C2          4.6465   53.5893   28.1575 C.ar      1 UNK         0.0000 
      3 C3          3.7564   53.6969   27.0888 C.ar      1 UNK         0.0000 
      4 C4          4.2164   54.0968   25.8376 C.ar      1 UNK         0.0000 
      5 C5          5.5707   54.3947   25.6454 C.ar      1 UNK         0.0000 
      6 C6          6.4558   54.2935   26.7254 C.ar      1 UNK         0.0000 
      7 C7          5.9970   53.8878   27.9756 C.ar      1 UNK         0.0000 
      8 C8          6.0621   54.8939   24.3138 C.2       1 UNK         0.0000 
      9 O9          6.7044   55.9384   24.2780 O.2       1 UNK         0.0000 
     10 N10         5.7508   54.1262   23.2406 N.am      1 UNK         0.0000 
     11 C11         5.7123   54.4585   21.8935 C.2       1 UNK         0.0000 
     12 C12         4.7546   53.8956   21.1044 C.2       1 UNK         0.0000 
     13 C13         3.6979   52.9610   21.5276 C.ar      1 UNK         0.0000 
     14 C14         2.7629   53.3116   22.5044 C.ar      1 UNK         0.0000 
     15 C15         1.8163   52.3809   22.9267 C.ar      1 UNK         0.0000 
     16 C16         1.7995   51.1072   22.3601 C.ar      1 UNK         0.0000 
     17 C17         2.7028   50.7663   21.3557 C.ar      1 UNK         0.0000 
     18 C18         3.6475   51.6969   20.9335 C.ar      1 UNK         0.0000 
     19 Br19        0.5356   49.8189   22.9638 Br        1 UNK         0.0000 
     20 C20         6.7473   55.2966   21.2639 C.2       1 UNK         0.0000 
     21 O21         7.9021   55.3033   21.6817 O.2       1 UNK         0.0000 
     22 N22         6.3722   55.9995   20.1675 N.am      1 UNK         0.0000 
     23 C23         7.1863   56.7344   19.2841 C.ar      1 UNK         0.0000 
     24 C24         6.5591   57.7273   18.5359 C.ar      1 UNK         0.0000 
     25 C25         7.2905   58.5140   17.6534 C.ar      1 UNK         0.0000 
     26 C26         8.6692   58.3093   17.4926 C.ar      1 UNK         0.0000 
     27 C27         9.2912   57.2853   18.2202 C.ar      1 UNK         0.0000 
     28 C28         8.5567   56.4968   19.1010 C.ar      1 UNK         0.0000 
     29 C29         9.4910   59.1630   16.5725 C.2       1 UNK         0.0000 
     30 O30        10.7185   59.0729   16.4806 O.2       1 UNK         0.0000 
     31 O31         8.7501   60.0346   15.8447 O.3       1 UNK         0.0000 
     32 C32         9.3614   60.9160   14.9135 C.3       1 UNK         0.0000 
     33 H33         3.0909   52.8799   29.5086 H         1 UNK         0.0000 
     34 H34         4.7089   52.2713   29.8570 H         1 UNK         0.0000 
     35 H35         4.3054   53.9392   30.2513 H         1 UNK         0.0000 
     36 H36         2.7085   53.4707   27.2235 H         1 UNK         0.0000 
     37 H37         3.5039   54.1941   25.0342 H         1 UNK         0.0000 
     38 H38         7.5031   54.5241   26.6049 H         1 UNK         0.0000 
     39 H39         6.6915   53.8142   28.8008 H         1 UNK         0.0000 
     40 H40         5.1963   53.3161   23.4723 H         1 UNK         0.0000 
     41 H41         4.7243   54.1021   20.0424 H         1 UNK         0.0000 
     42 H42         2.7706   54.3035   22.9323 H         1 UNK         0.0000 
     43 H43         1.1020   52.6416   23.6934 H         1 UNK         0.0000 
     44 H44         2.6787   49.7814   20.9122 H         1 UNK         0.0000 
     45 H45         4.3494   51.4219   20.1568 H         1 UNK         0.0000 
     46 H46         5.3815   56.0746   19.9965 H         1 UNK         0.0000 
     47 H47         5.5043   57.9164   18.6432 H         1 UNK         0.0000 
     48 H48         6.7662   59.2960   17.1174 H         1 UNK         0.0000 
     49 H49        10.3502   57.0881   18.1190 H         1 UNK         0.0000 
     50 H50         9.0759   55.7130   19.6320 H         1 UNK         0.0000 
     51 H51         8.6008   61.5364   14.4395 H         1 UNK         0.0000 
     52 H52        10.0774   61.5751   15.4066 H         1 UNK         0.0000 
     53 H53         9.8834   60.3616   14.1327 H         1 UNK         0.0000 
@<TRIPOS>BOND
     1    1    2 1    
     2    1   33 1    
     3    1   34 1    
     4    1   35 1    
     5    2    7 ar   
     6    2    3 ar   
     7    3    4 ar   
     8    3   36 1    
     9    4    5 ar   
    10    4   37 1    
    11    5    6 ar   
    12    5    8 1    
    13    6    7 ar   
    14    6   38 1    
    15    7   39 1    
    16    8    9 2    
    17    8   10 am   BACKBONE|DICT|INTERRES
    18   10   11 1    
    19   10   40 1    
    20   11   12 2    
    21   11   20 1    
    22   12   13 1    
    23   12   41 1    
    24   13   18 ar   
    25   13   14 ar   
    26   14   15 ar   
    27   14   42 1    
    28   15   16 ar   
    29   15   43 1    
    30   16   17 ar   
    31   16   19 1    
    32   17   18 ar   
    33   17   44 1    
    34   18   45 1    
    35   20   21 2    
    36   20   22 am   BACKBONE|DICT|INTERRES
    37   22   23 1    
    38   22   46 1    
    39   23   28 ar   
    40   23   24 ar   
    41   24   25 ar   
    42   24   47 1    
    43   25   26 ar   
    44   25   48 1    
    45   26   27 ar   
    46   26   29 1    
    47   27   28 ar   
    48   27   49 1    
    49   28   50 1    
    50   29   30 2    
    51   29   31 1    
    52   31   32 1    
    53   32   51 1    
    54   32   52 1    
    55   32   53 1    
@<TRIPOS>SUBSTRUCTURE
     1 UNK         1 GROUP             0       ****    0 ROOT    
