@<TRIPOS>MOLECULE
ZINC64002344_298
65   69    1
SMALL
USER_CHARGES


@<TRIPOS>ATOM
      1 C1          4.6181   52.3244   20.7043 C.3       1 UNK         0.0000 
      2 C2          4.4503   53.8598   20.8682 C.3       1 UNK         0.0000 
      3 H3          3.3993   54.0982   20.7066 H         1 UNK         0.0000 
      4 C4          4.8509   54.2530   22.2764 C.ar      1 UNK         0.0000 
      5 C5          4.2031   53.9730   23.4916 C.ar      1 UNK         0.0000 
      6 N6          4.7805   54.2904   24.6874 N.ar      1 UNK         0.0000 
      7 C7          6.0026   54.8845   24.6461 C.ar      1 UNK         0.0000 
      8 N8          6.6996   55.2110   23.5278 N.ar      1 UNK         0.0000 
      9 C9          6.0894   54.8958   22.3567 C.ar      1 UNK         0.0000 
     10 S10         6.7959   55.2974   20.7934 S.3       1 UNK         0.0000 
     11 C11         5.2979   54.7472   19.9074 C.3       1 UNK         0.0000 
     12 H12         4.7644   55.6695   19.6810 H         1 UNK         0.0000 
     13 C13         5.5765   54.1428   18.5119 C.2       1 UNK         0.0000 
     14 O14         6.7205   54.0659   18.0605 O.2       1 UNK         0.0000 
     15 N15         4.4978   53.7164   17.8328 N.am      1 UNK         0.0000 
     16 C16         4.5054   53.0793   16.5163 C.3       1 UNK         0.0000 
     17 H17         5.3742   52.4151   16.4756 H         1 UNK         0.0000 
     18 C18         4.5861   54.0963   15.3605 C.3       1 UNK         0.0000 
     19 C19         3.2798   54.8942   15.1868 C.3       1 UNK         0.0000 
     20 O20         2.1781   53.9965   15.0157 O.3       1 UNK         0.0000 
     21 C21         1.9318   53.0284   16.0458 C.3       1 UNK         0.0000 
     22 C22         3.2412   52.2207   16.2923 C.3       1 UNK         0.0000 
     23 C23         0.8832   52.0812   15.4359 C.3       1 UNK         0.0000 
     24 C24         1.4005   53.7264   17.3209 C.3       1 UNK         0.0000 
     25 N25         2.9690   53.2969   23.4714 N.pl3     1 UNK         0.0000 
     26 C26         2.4133   52.6091   24.6361 C.3       1 UNK         0.0000 
     27 C27         1.2039   53.2873   25.2719 C.3       1 UNK         0.0000 
     28 C28         0.6324   52.5211   26.4602 C.2       1 UNK         0.0000 
     29 C29         0.5487   52.8662   27.7615 C.2       1 UNK         0.0000 
     30 C30         1.0243   54.0626   28.4808 C.2       1 UNK         0.0000 
     31 C31         0.8098   54.2070   29.8035 C.2       1 UNK         0.0000 
     32 C32         0.0945   53.1470   30.4980 C.2       1 UNK         0.0000 
     33 C33        -0.3591   52.0441   29.8486 C.2       1 UNK         0.0000 
     34 C34        -0.1394   51.8813   28.4746 C.2       1 UNK         0.0000 
     35 N35        -0.4912   50.8967   27.6818 N.pl3     1 UNK         0.0000 
     36 C36        -0.0372   51.1696   26.3072 C.3       1 UNK         0.0000 
     37 H37         4.1321   51.7677   21.5057 H         1 UNK         0.0000 
     38 H38         4.1833   51.9581   19.7744 H         1 UNK         0.0000 
     39 H39         5.6680   52.0365   20.7034 H         1 UNK         0.0000 
     40 H40         6.4588   55.1246   25.5946 H         1 UNK         0.0000 
     41 H41         3.5858   53.8946   18.2230 H         1 UNK         0.0000 
     42 H42         5.4226   54.7780   15.5172 H         1 UNK         0.0000 
     43 H43         4.8095   53.5684   14.4327 H         1 UNK         0.0000 
     44 H44         3.1244   55.5494   16.0431 H         1 UNK         0.0000 
     45 H45         3.3468   55.5366   14.3090 H         1 UNK         0.0000 
     46 H46         3.1103   51.5294   17.1269 H         1 UNK         0.0000 
     47 H47         3.4418   51.5851   15.4286 H         1 UNK         0.0000 
     48 H48         0.6355   51.2671   16.1174 H         1 UNK         0.0000 
     49 H49         1.2388   51.6377   14.5057 H         1 UNK         0.0000 
     50 H50        -0.0397   52.6121   15.2014 H         1 UNK         0.0000 
     51 H51         1.2837   53.0166   18.1399 H         1 UNK         0.0000 
     52 H52         2.0333   54.5338   17.6789 H         1 UNK         0.0000 
     53 H53         0.4245   54.1757   17.1365 H         1 UNK         0.0000 
     54 H54         2.4882   53.2120   22.5864 H         1 UNK         0.0000 
     55 H55         2.1442   51.6008   24.3172 H         1 UNK         0.0000 
     56 H56         3.1752   52.4968   25.4055 H         1 UNK         0.0000 
     57 H57         1.5037   54.2806   25.5954 H         1 UNK         0.0000 
     58 H58         0.4140   53.4233   24.5317 H         1 UNK         0.0000 
     59 H59         1.5537   54.8542   27.9714 H         1 UNK         0.0000 
     60 H60         1.1442   55.0876   30.3337 H         1 UNK         0.0000 
     61 H61        -0.0926   53.2404   31.5602 H         1 UNK         0.0000 
     62 H62        -0.8956   51.2973   30.4198 H         1 UNK         0.0000 
     63 H63        -0.9134   51.1765   25.6572 H         1 UNK         0.0000 
     64 H64         0.6398   50.3657   26.0131 H         1 UNK         0.0000 
     65 H65        -0.9742   50.0319   27.9646 H         1 UNK         0.0000 
@<TRIPOS>BOND
     1    1    2 1    
     2    1   37 1    
     3    1   38 1    
     4    1   39 1    
     5    2    3 1    
     6    2   11 1    
     7    2    4 1    
     8    4    9 ar   
     9    4    5 ar   
    10    5    6 ar   
    11    5   25 1    
    12    6    7 ar   
    13    7    8 ar   
    14    7   40 1    
    15    8    9 ar   
    16    9   10 1    
    17   10   11 1    
    18   11   12 1    
    19   11   13 1    
    20   13   14 2    
    21   13   15 am   BACKBONE|DICT|INTERRES
    22   15   16 1    
    23   15   41 1    
    24   16   17 1    
    25   16   22 1    
    26   16   18 1    
    27   18   19 1    
    28   18   42 1    
    29   18   43 1    
    30   19   20 1    
    31   19   44 1    
    32   19   45 1    
    33   20   21 1    
    34   21   22 1    
    35   21   23 1    
    36   21   24 1    
    37   22   46 1    
    38   22   47 1    
    39   23   48 1    
    40   23   49 1    
    41   23   50 1    
    42   24   51 1    
    43   24   52 1    
    44   24   53 1    
    45   25   26 1    
    46   25   54 1    
    47   26   27 1    
    48   26   55 1    
    49   26   56 1    
    50   27   28 1    
    51   27   57 1    
    52   27   58 1    
    53   28   36 1    
    54   28   29 2    
    55   29   34 1    
    56   29   30 1    
    57   30   31 2    
    58   30   59 1    
    59   31   32 1    
    60   31   60 1    
    61   32   33 2    
    62   32   61 1    
    63   33   34 1    
    64   33   62 1    
    65   34   35 2    
    66   35   36 1    
    67   35   65 1    
    68   36   63 1    
    69   36   64 1    
@<TRIPOS>SUBSTRUCTURE
     1 UNK         1 GROUP             0       ****    0 ROOT    
