@<TRIPOS>MOLECULE
ZINC13412629_965
60   63    1
SMALL
USER_CHARGES


@<TRIPOS>ATOM
      1 C1          1.4309   50.6084   20.1675 C.3       1 UNK         0.0000 
      2 C2          1.4251   50.4727   21.7118 C.3       1 UNK         0.0000 
      3 C3          2.5618   49.5406   22.1568 C.3       1 UNK         0.0000 
      4 C4          1.5200   51.8454   22.3956 C.ar      1 UNK         0.0000 
      5 C5          2.6698   52.6081   22.1282 C.ar      1 UNK         0.0000 
      6 C6          2.8761   53.8445   22.7269 C.ar      1 UNK         0.0000 
      7 C7          1.9129   54.3625   23.5791 C.ar      1 UNK         0.0000 
      8 C8          0.7436   53.6533   23.8193 C.ar      1 UNK         0.0000 
      9 C9          0.5505   52.3725   23.2894 C.ar      1 UNK         0.0000 
     10 N10        -0.5997   51.6764   23.7563 N.pl3     1 UNK         0.0000 
     11 C11        -0.9751   51.4178   25.0826 C.ar      1 UNK         0.0000 
     12 N12        -2.1456   50.8274   25.1023 N.2       1 UNK         0.0000 
     13 N13        -2.5836   50.6842   23.8030 N.2       1 UNK         0.0000 
     14 C14        -1.6697   51.1815   23.0137 C.ar      1 UNK         0.0000 
     15 S15        -1.8542   51.2447   21.2513 S.3       1 UNK         0.0000 
     16 C16        -3.1984   50.0290   20.9302 C.3       1 UNK         0.0000 
     17 C17        -2.9798   48.5874   21.4477 C.2       1 UNK         0.0000 
     18 O18        -3.7373   48.2020   22.3402 O.2       1 UNK         0.0000 
     19 N19        -2.0508   47.7636   20.8875 N.am      1 UNK         0.0000 
     20 C20        -1.0910   48.2280   19.8670 C.3       1 UNK         0.0000 
     21 C21        -1.0502   47.1920   18.7227 C.3       1 UNK         0.0000 
     22 C22        -0.6868   45.7984   19.2471 C.3       1 UNK         0.0000 
     23 C23        -1.7293   45.3802   20.3091 C.3       1 UNK         0.0000 
     24 H24        -2.7136   45.2954   19.8480 H         1 UNK         0.0000 
     25 C25        -1.8196   46.4154   21.4683 C.3       1 UNK         0.0000 
     26 C26        -1.4309   43.9609   20.8618 C.2       1 UNK         0.0000 
     27 O27        -1.7752   43.6972   22.0359 O.co2     1 UNK         0.0000 
     28 C28        -0.2512   51.7442   26.3825 C.ar      1 UNK         0.0000 
     29 C29         1.1045   52.0949   26.4505 C.ar      1 UNK         0.0000 
     30 C30         1.7187   52.3719   27.6701 C.ar      1 UNK         0.0000 
     31 C31         0.9911   52.2788   28.8502 C.ar      1 UNK         0.0000 
     32 C32        -0.3524   51.9220   28.8160 C.ar      1 UNK         0.0000 
     33 C33        -0.9650   51.6615   27.5924 C.ar      1 UNK         0.0000 
     34 Cl34        1.7673   52.5763   30.3634 Cl        1 UNK         0.0000 
     35 H35         0.5925   51.2002   19.8040 H         1 UNK         0.0000 
     36 H36         2.3389   51.0921   19.8042 H         1 UNK         0.0000 
     37 H37         1.3971   49.6404   19.6725 H         1 UNK         0.0000 
     38 H38         0.5064   49.9765   22.0155 H         1 UNK         0.0000 
     39 H39         2.6912   49.5498   23.2402 H         1 UNK         0.0000 
     40 H40         2.3750   48.5096   21.8553 H         1 UNK         0.0000 
     41 H41         3.5023   49.8475   21.6947 H         1 UNK         0.0000 
     42 H42         3.4341   52.2308   21.4645 H         1 UNK         0.0000 
     43 H43         3.7799   54.3979   22.5244 H         1 UNK         0.0000 
     44 H44         2.0759   55.3073   24.0682 H         1 UNK         0.0000 
     45 H45         0.0059   54.0829   24.4804 H         1 UNK         0.0000 
     46 H46        -4.1195   50.4229   21.3625 H         1 UNK         0.0000 
     47 H47        -3.3833   49.9853   19.8574 H         1 UNK         0.0000 
     48 H48        -1.3363   49.1961   19.4361 H         1 UNK         0.0000 
     49 H49        -0.1136   48.2766   20.3436 H         1 UNK         0.0000 
     50 H50        -2.0072   47.1718   18.1989 H         1 UNK         0.0000 
     51 H51        -0.3125   47.5026   17.9823 H         1 UNK         0.0000 
     52 H52        -0.6645   45.1016   18.4079 H         1 UNK         0.0000 
     53 H53         0.3108   45.8500   19.6824 H         1 UNK         0.0000 
     54 H54        -0.8968   46.4223   22.0485 H         1 UNK         0.0000 
     55 H55        -2.6414   46.1035   22.1172 H         1 UNK         0.0000 
     56 H56         1.7260   52.1106   25.5716 H         1 UNK         0.0000 
     57 H57         2.7684   52.6270   27.6968 H         1 UNK         0.0000 
     58 H58        -0.9151   51.8293   29.7346 H         1 UNK         0.0000 
     59 H59        -2.0058   51.3708   27.6006 H         1 UNK         0.0000 
     60 O60        -0.8936   43.1164   20.1055 O.co2     1 UNK         0.0000 
@<TRIPOS>BOND
     1    1    2 1    
     2    1   35 1    
     3    1   36 1    
     4    1   37 1    
     5    2    3 1    
     6    2    4 1    
     7    2   38 1    
     8    3   39 1    
     9    3   40 1    
    10    3   41 1    
    11    4    9 ar   
    12    4    5 ar   
    13    5    6 ar   
    14    5   42 1    
    15    6    7 ar   
    16    6   43 1    
    17    7    8 ar   
    18    7   44 1    
    19    8    9 ar   
    20    8   45 1    
    21    9   10 1    
    22   10   14 ar   
    23   10   11 ar   
    24   11   12 ar   
    25   11   28 1    
    26   12   13 ar   
    27   13   14 ar   
    28   14   15 1    
    29   15   16 1    
    30   16   17 1    
    31   16   46 1    
    32   16   47 1    
    33   17   18 2    
    34   17   19 am   BACKBONE|DICT|INTERRES
    35   19   25 1    
    36   19   20 1    
    37   20   21 1    
    38   20   48 1    
    39   20   49 1    
    40   21   22 1    
    41   21   50 1    
    42   21   51 1    
    43   22   23 1    
    44   22   52 1    
    45   22   53 1    
    46   23   24 1    
    47   23   25 1    
    48   23   26 1    
    49   25   54 1    
    50   25   55 1    
    51   26   27 2    
    52   26   60 1    
    53   28   33 ar   
    54   28   29 ar   
    55   29   30 ar   
    56   29   56 1    
    57   30   31 ar   
    58   30   57 1    
    59   31   32 ar   
    60   31   34 1    
    61   32   33 ar   
    62   32   58 1    
    63   33   59 1    
@<TRIPOS>SUBSTRUCTURE
     1 UNK         1 GROUP             0       ****    0 ROOT    
