ZINC13266507_5939
                    3D
 Schrodinger Suite 2024-2.
 47 50  0  0  1  0            999 V2000
   -0.9997   51.9509   21.7131 C   0  0  0  0  0  0
   -1.2531   51.6970   20.3676 C   0  0  0  0  0  0
   -0.2432   51.1856   19.5568 C   0  0  0  0  0  0
    1.0179   50.9108   20.0800 C   0  0  0  0  0  0
    1.2716   51.1427   21.4293 C   0  0  0  0  0  0
    0.2628   51.6662   22.2524 C   0  0  0  0  0  0
    0.5130   51.8755   23.6360 N   0  0  0  0  0  0
    1.3921   52.9026   23.9455 C   0  0  0  0  0  0
    1.8501   53.7049   23.1253 O   0  0  0  0  0  0
    1.7487   52.9640   25.4130 C   0  0  0  0  0  0
    2.7042   53.8671   25.8837 C   0  0  0  0  0  0
    3.0178   53.8812   27.2418 C   0  0  0  0  0  0
    2.3930   53.0004   28.1408 C   0  0  0  0  0  0
    1.4174   52.1153   27.6485 C   0  0  0  0  0  0
    1.1041   52.0975   26.2908 C   0  0  0  0  0  0
    0.1505   51.1865   25.8351 N   0  0  0  0  0  0
   -0.0985   51.0470   24.5811 C   0  0  0  0  0  0
   -1.2753   49.7365   24.0939 S   0  0  0  0  0  0
   -1.9230   49.1096   25.6816 C   0  0  0  0  0  0
   -3.2310   49.7811   26.1213 C   0  0  0  0  0  0
   -4.1435   49.9464   25.3106 O   0  0  0  0  0  0
   -3.2957   50.0967   27.4291 N   0  0  0  0  0  0
   -4.3733   50.6196   28.1599 C   0  0  0  0  0  0
   -4.4952   50.1560   29.4749 C   0  0  0  0  0  0
   -5.4946   50.6548   30.3100 C   0  0  0  0  0  0
   -6.3797   51.6209   29.8369 C   0  0  0  0  0  0
   -6.2616   52.0965   28.5325 C   0  0  0  0  0  0
   -5.2491   51.6220   27.6963 C   0  0  0  0  0  0
   -5.1127   52.1845   26.4729 F   0  0  0  0  0  0
   -7.3313   52.1245   30.6541 F   0  0  0  0  0  0
    2.7761   53.0061   29.5898 C   0  0  0  0  0  0
    3.1513   54.0964   30.0818 O   0  0  0  0  0  0
   -0.4946   50.9498   18.2497 F   0  0  0  0  0  0
   -1.7859   52.3442   22.3416 H   0  0  0  0  0  0
   -2.2279   51.8920   19.9479 H   0  0  0  0  0  0
    1.7937   50.5142   19.4407 H   0  0  0  0  0  0
    2.2490   50.9180   21.8322 H   0  0  0  0  0  0
    3.2101   54.5489   25.2132 H   0  0  0  0  0  0
    3.7657   54.5763   27.5990 H   0  0  0  0  0  0
    0.9191   51.4245   28.3143 H   0  0  0  0  0  0
   -1.1613   49.1563   26.4607 H   0  0  0  0  0  0
   -2.1455   48.0517   25.5535 H   0  0  0  0  0  0
   -2.5769   49.6317   27.9889 H   0  0  0  0  0  0
   -3.8050   49.4148   29.8611 H   0  0  0  0  0  0
   -5.5736   50.2990   31.3273 H   0  0  0  0  0  0
   -6.9355   52.8614   28.1781 H   0  0  0  0  0  0
    2.7106   51.9250   30.2211 O   0  5  0  0  0  0
  1  6  2  0  0  0
  1  2  1  0  0  0
  1 34  1  0  0  0
  2  3  2  0  0  0
  2 35  1  0  0  0
  3  4  1  0  0  0
  3 33  1  0  0  0
  4  5  2  0  0  0
  4 36  1  0  0  0
  5  6  1  0  0  0
  5 37  1  0  0  0
  6  7  1  0  0  0
  7 17  1  0  0  0
  7  8  1  0  0  0
  8  9  2  0  0  0
  8 10  1  0  0  0
 10 15  2  0  0  0
 10 11  1  0  0  0
 11 12  2  0  0  0
 11 38  1  0  0  0
 12 13  1  0  0  0
 12 39  1  0  0  0
 13 14  2  0  0  0
 13 31  1  0  0  0
 14 15  1  0  0  0
 14 40  1  0  0  0
 15 16  1  0  0  0
 16 17  2  0  0  0
 17 18  1  0  0  0
 18 19  1  0  0  0
 19 20  1  0  0  0
 19 41  1  0  0  0
 19 42  1  0  0  0
 20 21  2  0  0  0
 20 22  1  0  0  0
 22 23  1  0  0  0
 22 43  1  0  0  0
 23 28  2  0  0  0
 23 24  1  0  0  0
 24 25  2  0  0  0
 24 44  1  0  0  0
 25 26  1  0  0  0
 25 45  1  0  0  0
 26 27  2  0  0  0
 26 30  1  0  0  0
 27 28  1  0  0  0
 27 46  1  0  0  0
 28 29  1  0  0  0
 31 32  2  0  0  0
 31 47  1  0  0  0
M  CHG  1  47  -1
M  END
> <i_i_glide_confnum>
19

> <i_i_glide_lignum>
5940

> <i_i_glide_posenum>
69

> <i_i_glide_rotatable_bonds>
7

> <i_m_Source_File_Index>
1813

> <b_m_subgroup_collapsed>
0

> <r_i_docking_score>
-5.36543

> <r_i_glide_ecoul>
-12.2745

> <r_i_glide_eff_state_penalty>
0

> <r_i_glide_einternal>
4.3358

> <r_i_glide_emodel>
-59.9773

> <r_i_glide_energy>
-43.8698

> <r_i_glide_erotb>
0.432689

> <r_i_glide_esite>
-0.194364

> <r_i_glide_evdw>
-31.5953

> <r_i_glide_gscore>
-5.36543

> <r_i_glide_hbond>
-0.48

> <r_i_glide_ligand_efficiency>
-0.157807

> <r_i_glide_ligand_efficiency_ln>
-1.18537

> <r_i_glide_ligand_efficiency_sa>
-0.511233

> <r_i_glide_lipo>
-1.26482

> <r_i_glide_metal>
0

> <r_i_glide_rewards>
-0.437992

> <s_i_glide_gridfile>
wee1_glide-grid

> <s_m_Source_File>
wee1_decoys_glide_SP.sdf

> <s_m_Source_Path>
/Users/zhangxujun/Desktop

> <s_m_entry_id>
2088

> <s_m_entry_name>
wee1_decoys_glide_SP.1813

> <s_m_subgroup_title>
wee1_decoys_glide_SP

> <s_m_subgroupid>
wee1_decoys_glide_SP


$$$$
