ZINC36024594_1146
                    3D
 Schrodinger Suite 2024-2.
 62 64  0  0  1  0            999 V2000
   -3.0973   52.1358   22.9895 C   0  0  0  0  0  0
   -3.3130   53.3381   23.9115 C   0  0  0  0  0  0
   -4.2709   53.0872   25.1102 C   0  0  2  0  0  0
   -5.0819   52.4453   24.7609 H   0  0  0  0  0  0
   -4.9319   54.4129   25.5355 C   0  0  0  0  0  0
   -3.6518   52.4054   26.3663 C   0  0  0  0  0  0
   -2.7814   51.2332   26.1772 N   0  0  0  0  0  0
   -3.2049   50.0749   25.6254 C   0  0  0  0  0  0
   -4.3394   49.7951   25.2392 O   0  0  0  0  0  0
   -2.0020   49.1201   25.5149 C   0  0  2  0  0  0
   -2.2114   48.1592   25.9884 H   0  0  0  0  0  0
   -0.9741   49.7693   26.3763 N   0  3  0  0  0  0
   -1.3908   51.2164   26.6228 C   0  0  0  0  0  0
   -0.4939   52.1361   25.7780 C   0  0  0  0  0  0
    0.9728   52.1674   26.2150 C   0  0  0  0  0  0
    1.1889   52.2987   27.6846 N   0  0  0  0  0  0
    0.3164   51.4913   28.5687 C   0  0  0  0  0  0
   -1.1636   51.5011   28.1302 C   0  0  0  0  0  0
    1.9979   53.7256   28.3804 S   0  0  0  0  0  0
    1.1652   54.8942   28.0815 O   0  0  0  0  0  0
    2.3214   53.4187   29.7806 O   0  0  0  0  0  0
    3.5574   53.9314   27.5081 C   0  0  0  0  0  0
    3.5616   54.3435   26.1732 C   0  0  0  0  0  0
    4.7536   54.5754   25.5045 C   0  0  0  0  0  0
    5.9645   54.4086   26.1615 C   0  0  0  0  0  0
    5.9852   53.9618   27.4917 C   0  0  0  0  0  0
    4.7792   53.7219   28.1590 C   0  0  0  0  0  0
    7.4724   53.6972   28.3328 Cl  0  0  0  0  0  0
    7.3942   54.7821   25.2809 Cl  0  0  0  0  0  0
   -1.3950   48.9222   24.0959 C   0  0  0  0  0  0
   -0.1367   48.0437   24.0962 C   0  0  0  0  0  0
   -2.4125   48.3835   23.0712 C   0  0  0  0  0  0
   -2.7632   52.4445   21.9993 H   0  0  0  0  0  0
   -2.3291   51.4890   23.3813 H   0  0  0  0  0  0
   -4.0054   51.5417   22.8820 H   0  0  0  0  0  0
   -3.7049   54.1443   23.2881 H   0  0  0  0  0  0
   -2.3463   53.6968   24.2535 H   0  0  0  0  0  0
   -4.1981   55.1187   25.9288 H   0  0  0  0  0  0
   -5.4259   54.8967   24.6908 H   0  0  0  0  0  0
   -5.6851   54.2550   26.3087 H   0  0  0  0  0  0
   -4.4461   52.1322   27.0631 H   0  0  0  0  0  0
   -3.0639   53.1635   26.8815 H   0  0  0  0  0  0
   -1.0009   49.2512   27.2619 H   0  0  0  0  0  0
   -0.5513   51.8986   24.7169 H   0  0  0  0  0  0
   -0.8885   53.1428   25.8590 H   0  0  0  0  0  0
    1.5044   51.2958   25.8638 H   0  0  0  0  0  0
    1.4350   52.9955   25.7035 H   0  0  0  0  0  0
    0.7483   50.5042   28.6164 H   0  0  0  0  0  0
    0.3867   51.8756   29.5872 H   0  0  0  0  0  0
   -1.5253   52.4965   28.3502 H   0  0  0  0  0  0
   -1.7565   50.8350   28.7606 H   0  0  0  0  0  0
    2.6525   54.4968   25.6253 H   0  0  0  0  0  0
    4.7345   54.8967   24.4730 H   0  0  0  0  0  0
    4.7973   53.3921   29.1875 H   0  0  0  0  0  0
   -1.0495   49.8822   23.7209 H   0  0  0  0  0  0
   -0.3678   47.0044   24.3315 H   0  0  0  0  0  0
    0.6275   48.3809   24.7972 H   0  0  0  0  0  0
    0.3105   48.0980   23.1073 H   0  0  0  0  0  0
   -2.8433   47.4395   23.4013 H   0  0  0  0  0  0
   -3.2336   49.0814   22.9052 H   0  0  0  0  0  0
   -1.9428   48.2128   22.1023 H   0  0  0  0  0  0
   -0.0348   49.6914   26.0223 H   0  0  0  0  0  0
  1  2  1  0  0  0
  1 33  1  0  0  0
  1 34  1  0  0  0
  1 35  1  0  0  0
  2  3  1  0  0  0
  2 36  1  0  0  0
  2 37  1  0  0  0
  3  4  1  0  0  0
  3  5  1  0  0  0
  3  6  1  0  0  0
  5 38  1  0  0  0
  5 39  1  0  0  0
  5 40  1  0  0  0
  6  7  1  0  0  0
  6 41  1  0  0  0
  6 42  1  0  0  0
  7 13  1  0  0  0
  7  8  1  0  0  0
  8  9  2  0  0  0
  8 10  1  0  0  0
 10 11  1  0  0  0
 10 12  1  0  0  0
 10 30  1  0  0  0
 12 13  1  0  0  0
 12 43  1  0  0  0
 12 62  1  0  0  0
 13 18  1  0  0  0
 13 14  1  0  0  0
 14 15  1  0  0  0
 14 44  1  0  0  0
 14 45  1  0  0  0
 15 16  1  0  0  0
 15 46  1  0  0  0
 15 47  1  0  0  0
 16 17  1  0  0  0
 16 19  1  0  0  0
 17 18  1  0  0  0
 17 48  1  0  0  0
 17 49  1  0  0  0
 18 50  1  0  0  0
 18 51  1  0  0  0
 19 20  2  0  0  0
 19 21  2  0  0  0
 19 22  1  0  0  0
 22 27  2  0  0  0
 22 23  1  0  0  0
 23 24  2  0  0  0
 23 52  1  0  0  0
 24 25  1  0  0  0
 24 53  1  0  0  0
 25 26  2  0  0  0
 25 29  1  0  0  0
 26 27  1  0  0  0
 26 28  1  0  0  0
 27 54  1  0  0  0
 30 31  1  0  0  0
 30 32  1  0  0  0
 30 55  1  0  0  0
 31 56  1  0  0  0
 31 57  1  0  0  0
 31 58  1  0  0  0
 32 59  1  0  0  0
 32 60  1  0  0  0
 32 61  1  0  0  0
M  CHG  1  12   1
M  END
> <i_i_glide_confnum>
63

> <i_i_glide_lignum>
1147

> <i_i_glide_posenum>
274

> <i_i_glide_rotatable_bonds>
6

> <i_m_Source_File_Index>
4083

> <b_m_subgroup_collapsed>
0

> <r_i_docking_score>
-3.93018

> <r_i_glide_ecoul>
-5.69999

> <r_i_glide_eff_state_penalty>
0

> <r_i_glide_einternal>
7.43253

> <r_i_glide_emodel>
-41.2181

> <r_i_glide_energy>
-37.2203

> <r_i_glide_erotb>
0.355429

> <r_i_glide_esite>
-0.229939

> <r_i_glide_evdw>
-31.5203

> <r_i_glide_gscore>
-3.93018

> <r_i_glide_hbond>
-0.186118

> <r_i_glide_ligand_efficiency>
-0.131006

> <r_i_glide_ligand_efficiency_ln>
-0.89298

> <r_i_glide_ligand_efficiency_sa>
-0.407066

> <r_i_glide_lipo>
-2.10839

> <r_i_glide_metal>
0

> <r_i_glide_rewards>
0.669851

> <s_i_glide_gridfile>
wee1_glide-grid

> <s_m_Source_File>
wee1_decoys_glide_SP.sdf

> <s_m_Source_Path>
/Users/zhangxujun/Desktop

> <s_m_entry_id>
4358

> <s_m_entry_name>
wee1_decoys_glide_SP.4083

> <s_m_subgroup_title>
wee1_decoys_glide_SP

> <s_m_subgroupid>
wee1_decoys_glide_SP


$$$$
