ZINC17082478_2601
                    3D
 Schrodinger Suite 2024-2.
 53 56  0  0  1  0            999 V2000
    7.5332   52.7501   16.7478 C   0  0  0  0  0  0
    6.6601   53.8510   17.3447 C   0  0  0  0  0  0
    6.1956   54.9339   16.6570 C   0  0  0  0  0  0
    5.3725   56.0433   17.3313 C   0  0  0  0  0  0
    5.4959   56.0466   18.8787 C   0  0  1  0  0  0
    4.7043   56.6970   19.2402 H   0  0  0  0  0  0
    5.3396   54.5934   19.4275 C   0  0  1  0  0  0
    4.3914   54.1889   19.0704 H   0  0  0  0  0  0
    6.4653   53.6964   18.8549 C   0  0  0  0  0  0
    5.2881   54.4969   20.9826 C   0  0  0  0  0  0
    6.3044   54.6714   21.6572 O   0  0  0  0  0  0
    4.0880   54.1590   21.5049 N   0  0  0  0  0  0
    3.7383   53.9422   22.8423 C   0  0  0  0  0  0
    2.5676   53.2824   23.2988 C   0  0  0  0  0  0
    2.4434   53.4106   24.6997 C   0  0  0  0  0  0
    3.5254   53.9989   25.3068 C   0  0  0  0  0  0
    4.7332   54.4967   24.1860 S   0  0  0  0  0  0
    3.4283   54.0247   26.8066 C   0  0  0  0  0  0
    1.9663   53.6106   27.0365 C   0  0  0  0  0  0
    1.4654   52.9299   25.7490 C   0  0  0  0  0  0
    1.5648   52.6184   22.4810 C   0  0  0  0  0  0
    0.3944   52.4992   22.8498 O   0  0  0  0  0  0
    2.0355   52.0855   21.3391 N   0  0  0  0  0  0
    1.2361   51.3692   20.3549 C   0  0  0  0  0  0
    1.8721   50.2000   19.6404 C   0  0  0  0  0  0
    0.7903   49.9595   20.6699 C   0  0  0  0  0  0
    6.7689   56.8031   19.3552 C   0  0  0  0  0  0
    6.7042   57.3432   20.4815 O   0  0  0  0  0  0
    6.3497   55.1408   15.1533 C   0  0  0  0  0  0
    7.1004   51.7674   16.9465 H   0  0  0  0  0  0
    7.6996   52.8079   15.6711 H   0  0  0  0  0  0
    8.5202   52.7708   17.2204 H   0  0  0  0  0  0
    4.3287   55.8911   17.0521 H   0  0  0  0  0  0
    5.6269   57.0168   16.9011 H   0  0  0  0  0  0
    7.4301   53.9711   19.2823 H   0  0  0  0  0  0
    6.3048   52.6516   19.1307 H   0  0  0  0  0  0
    3.3378   54.0211   20.8436 H   0  0  0  0  0  0
    4.1218   53.3222   27.2684 H   0  0  0  0  0  0
    3.6245   55.0086   27.2333 H   0  0  0  0  0  0
    1.8641   52.9556   27.9020 H   0  0  0  0  0  0
    1.3687   54.4964   27.2501 H   0  0  0  0  0  0
    0.4283   53.1946   25.5293 H   0  0  0  0  0  0
    1.5033   51.8458   25.8580 H   0  0  0  0  0  0
    2.9754   52.3193   21.0569 H   0  0  0  0  0  0
    0.5443   52.0068   19.8021 H   0  0  0  0  0  0
    2.9024   49.9307   19.8762 H   0  0  0  0  0  0
    1.6513   50.0620   18.5816 H   0  0  0  0  0  0
   -0.2009   49.6496   20.3404 H   0  0  0  0  0  0
    1.0585   49.5274   21.6351 H   0  0  0  0  0  0
    6.9146   56.0576   14.9674 H   0  0  0  0  0  0
    6.8515   54.3398   14.6122 H   0  0  0  0  0  0
    5.3657   55.2606   14.6922 H   0  0  0  0  0  0
    7.8027   56.7768   18.6501 O   0  5  0  0  0  0
  1  2  1  0  0  0
  1 30  1  0  0  0
  1 31  1  0  0  0
  1 32  1  0  0  0
  2  9  1  0  0  0
  2  3  2  0  0  0
  3  4  1  0  0  0
  3 29  1  0  0  0
  4  5  1  0  0  0
  4 33  1  0  0  0
  4 34  1  0  0  0
  5  6  1  0  0  0
  5  7  1  0  0  0
  5 27  1  0  0  0
  7  8  1  0  0  0
  7  9  1  0  0  0
  7 10  1  0  0  0
  9 35  1  0  0  0
  9 36  1  0  0  0
 10 11  2  0  0  0
 10 12  1  0  0  0
 12 13  1  0  0  0
 12 37  1  0  0  0
 13 17  1  0  0  0
 13 14  2  0  0  0
 14 15  1  0  0  0
 14 21  1  0  0  0
 15 20  1  0  0  0
 15 16  2  0  0  0
 16 17  1  0  0  0
 16 18  1  0  0  0
 18 19  1  0  0  0
 18 38  1  0  0  0
 18 39  1  0  0  0
 19 20  1  0  0  0
 19 40  1  0  0  0
 19 41  1  0  0  0
 20 42  1  0  0  0
 20 43  1  0  0  0
 21 22  2  0  0  0
 21 23  1  0  0  0
 23 24  1  0  0  0
 23 44  1  0  0  0
 24 26  1  0  0  0
 24 25  1  0  0  0
 24 45  1  0  0  0
 25 26  1  0  0  0
 25 46  1  0  0  0
 25 47  1  0  0  0
 26 48  1  0  0  0
 26 49  1  0  0  0
 27 28  2  0  0  0
 27 53  1  0  0  0
 29 50  1  0  0  0
 29 51  1  0  0  0
 29 52  1  0  0  0
M  CHG  1  53  -1
M  END
> <i_i_glide_confnum>
206

> <i_i_glide_lignum>
2602

> <i_i_glide_posenum>
233

> <i_i_glide_rotatable_bonds>
7

> <i_m_Source_File_Index>
4616

> <b_m_subgroup_collapsed>
0

> <r_i_docking_score>
-4.70258

> <r_i_glide_ecoul>
-7.0554

> <r_i_glide_eff_state_penalty>
0

> <r_i_glide_einternal>
5.03947

> <r_i_glide_emodel>
-45.4174

> <r_i_glide_energy>
-35.6187

> <r_i_glide_erotb>
0.730063

> <r_i_glide_esite>
-0.00785392

> <r_i_glide_evdw>
-28.5633

> <r_i_glide_gscore>
-4.70258

> <r_i_glide_hbond>
-0.17665

> <r_i_glide_ligand_efficiency>
-0.167949

> <r_i_glide_ligand_efficiency_ln>
-1.08549

> <r_i_glide_ligand_efficiency_sa>
-0.509992

> <r_i_glide_lipo>
-1.75355

> <r_i_glide_metal>
0

> <r_i_glide_rewards>
-1.00811

> <s_i_glide_gridfile>
wee1_glide-grid

> <s_m_Source_File>
wee1_decoys_glide_SP.sdf

> <s_m_Source_Path>
/Users/zhangxujun/Desktop

> <s_m_entry_id>
4891

> <s_m_entry_name>
wee1_decoys_glide_SP.4616

> <s_m_subgroup_title>
wee1_decoys_glide_SP

> <s_m_subgroupid>
wee1_decoys_glide_SP


$$$$
