ZINC04106966_3150
                    3D
 Schrodinger Suite 2024-2.
 69 71  0  0  1  0            999 V2000
   -0.5672   51.3319   28.7741 C   0  0  0  0  0  0
    0.3624   52.4652   28.3752 C   0  0  0  0  0  0
   -0.0961   53.5960   28.2134 O   0  0  0  0  0  0
    1.6604   52.1513   28.1960 N   0  0  0  0  0  0
    2.5541   52.9433   27.4602 C   0  0  0  0  0  0
    3.7969   53.3037   27.9867 C   0  0  0  0  0  0
    4.6758   54.0765   27.2207 C   0  0  0  0  0  0
    4.3225   54.4791   25.9291 C   0  0  0  0  0  0
    3.0901   54.0968   25.3878 C   0  0  0  0  0  0
    2.2176   53.3297   26.1586 C   0  0  0  0  0  0
    2.6371   54.5478   23.9986 C   0  0  0  0  0  0
    2.7480   53.4864   22.9624 N   0  0  0  0  0  0
    4.1300   53.0335   22.6780 C   0  0  0  0  0  0
    5.0168   54.0297   21.9601 C   0  0  0  0  0  0
    6.1782   54.4642   22.6018 C   0  0  0  0  0  0
    7.0328   55.3533   21.9642 C   0  0  0  0  0  0
    6.7626   55.7821   20.6688 C   0  0  0  0  0  0
    5.5972   55.3544   20.0127 C   0  0  0  0  0  0
    4.7261   54.4771   20.6678 C   0  0  0  0  0  0
    5.2336   55.7636   18.7179 N   0  0  0  0  0  0
    5.6583   56.8506   18.0375 C   0  0  0  0  0  0
    6.4420   57.6962   18.4716 O   0  0  0  0  0  0
    5.0914   57.0195   16.6318 C   0  0  0  0  0  0
    1.4146   52.3044   22.8290 S   0  0  0  0  0  0
    0.2198   52.8966   23.4471 O   0  0  0  0  0  0
    1.9043   51.0067   23.3033 O   0  0  0  0  0  0
    1.0362   52.0558   21.0895 C   0  0  0  0  0  0
    2.0512   51.9472   20.1319 C   0  0  0  0  0  0
    1.7287   51.7303   18.7955 C   0  0  0  0  0  0
    0.3903   51.5951   18.3905 C   0  0  0  0  0  0
   -0.6161   51.7127   19.3618 C   0  0  0  0  0  0
   -0.2964   51.9479   20.6968 C   0  0  0  0  0  0
   -0.0040   51.2884   16.9204 C   0  0  0  0  0  0
   -0.6817   49.8960   16.8543 C   0  0  0  0  0  0
    1.2108   51.2638   15.9513 C   0  0  0  0  0  0
   -0.9909   52.3674   16.3930 C   0  0  0  0  0  0
   -0.5462   50.5481   28.0166 H   0  0  0  0  0  0
   -0.2680   50.9011   29.7203 H   0  0  0  0  0  0
   -1.5952   51.6841   28.8698 H   0  0  0  0  0  0
    2.0100   51.2900   28.5942 H   0  0  0  0  0  0
    4.0788   52.9996   28.9839 H   0  0  0  0  0  0
    5.6314   54.3694   27.6320 H   0  0  0  0  0  0
    5.0023   55.0910   25.3544 H   0  0  0  0  0  0
    1.2580   53.0424   25.7528 H   0  0  0  0  0  0
    3.2293   55.3835   23.6600 H   0  0  0  0  0  0
    1.6031   54.8824   24.0795 H   0  0  0  0  0  0
    4.5942   52.8970   23.6494 H   0  0  0  0  0  0
    4.1391   52.0681   22.1757 H   0  0  0  0  0  0
    6.4268   54.1241   23.5966 H   0  0  0  0  0  0
    7.9047   55.7121   22.4763 H   0  0  0  0  0  0
    7.4756   56.4405   20.1966 H   0  0  0  0  0  0
    3.8209   54.1523   20.1745 H   0  0  0  0  0  0
    4.5229   55.2003   18.2756 H   0  0  0  0  0  0
    4.4094   57.8737   16.6018 H   0  0  0  0  0  0
    5.9066   57.2013   15.9278 H   0  0  0  0  0  0
    4.5610   56.1256   16.3027 H   0  0  0  0  0  0
    3.0921   52.0071   20.3985 H   0  0  0  0  0  0
    2.5472   51.6421   18.0936 H   0  0  0  0  0  0
   -1.6546   51.6153   19.0890 H   0  0  0  0  0  0
   -1.0888   52.0164   21.4315 H   0  0  0  0  0  0
   -0.9852   49.6529   15.8366 H   0  0  0  0  0  0
   -1.5801   49.8426   17.4757 H   0  0  0  0  0  0
   -0.0075   49.1073   17.1967 H   0  0  0  0  0  0
    1.7110   52.2349   15.9108 H   0  0  0  0  0  0
    1.9514   50.5124   16.2411 H   0  0  0  0  0  0
    0.9034   51.0195   14.9302 H   0  0  0  0  0  0
   -0.5467   53.3632   16.4333 H   0  0  0  0  0  0
   -1.2755   52.1816   15.3565 H   0  0  0  0  0  0
   -1.9173   52.4064   16.9661 H   0  0  0  0  0  0
  1  2  1  0  0  0
  1 37  1  0  0  0
  1 38  1  0  0  0
  1 39  1  0  0  0
  2  3  2  0  0  0
  2  4  1  0  0  0
  4  5  1  0  0  0
  4 40  1  0  0  0
  5 10  2  0  0  0
  5  6  1  0  0  0
  6  7  2  0  0  0
  6 41  1  0  0  0
  7  8  1  0  0  0
  7 42  1  0  0  0
  8  9  2  0  0  0
  8 43  1  0  0  0
  9 10  1  0  0  0
  9 11  1  0  0  0
 10 44  1  0  0  0
 11 12  1  0  0  0
 11 45  1  0  0  0
 11 46  1  0  0  0
 12 13  1  0  0  0
 12 24  1  0  0  0
 13 14  1  0  0  0
 13 47  1  0  0  0
 13 48  1  0  0  0
 14 19  2  0  0  0
 14 15  1  0  0  0
 15 16  2  0  0  0
 15 49  1  0  0  0
 16 17  1  0  0  0
 16 50  1  0  0  0
 17 18  2  0  0  0
 17 51  1  0  0  0
 18 19  1  0  0  0
 18 20  1  0  0  0
 19 52  1  0  0  0
 20 21  1  0  0  0
 20 53  1  0  0  0
 21 22  2  0  0  0
 21 23  1  0  0  0
 23 54  1  0  0  0
 23 55  1  0  0  0
 23 56  1  0  0  0
 24 25  2  0  0  0
 24 26  2  0  0  0
 24 27  1  0  0  0
 27 32  2  0  0  0
 27 28  1  0  0  0
 28 29  2  0  0  0
 28 57  1  0  0  0
 29 30  1  0  0  0
 29 58  1  0  0  0
 30 31  2  0  0  0
 30 33  1  0  0  0
 31 32  1  0  0  0
 31 59  1  0  0  0
 32 60  1  0  0  0
 33 34  1  0  0  0
 33 35  1  0  0  0
 33 36  1  0  0  0
 34 61  1  0  0  0
 34 62  1  0  0  0
 34 63  1  0  0  0
 35 64  1  0  0  0
 35 65  1  0  0  0
 35 66  1  0  0  0
 36 67  1  0  0  0
 36 68  1  0  0  0
 36 69  1  0  0  0
M  END
> <i_i_glide_confnum>
239

> <i_i_glide_lignum>
3151

> <i_i_glide_posenum>
187

> <i_i_glide_rotatable_bonds>
11

> <i_m_Source_File_Index>
4296

> <b_m_subgroup_collapsed>
0

> <r_i_docking_score>
-3.07514

> <r_i_glide_ecoul>
-1.66642

> <r_i_glide_eff_state_penalty>
0

> <r_i_glide_einternal>
19.3321

> <r_i_glide_emodel>
-40.7832

> <r_i_glide_energy>
-43.2405

> <r_i_glide_erotb>
0.635398

> <r_i_glide_esite>
0

> <r_i_glide_evdw>
-41.5741

> <r_i_glide_gscore>
-3.07514

> <r_i_glide_hbond>
0

> <r_i_glide_ligand_efficiency>
-0.0854205

> <r_i_glide_ligand_efficiency_ln>
-0.670912

> <r_i_glide_ligand_efficiency_sa>
-0.282052

> <r_i_glide_lipo>
-2.42441

> <r_i_glide_metal>
0

> <r_i_glide_rewards>
1.04254

> <s_i_glide_gridfile>
wee1_glide-grid

> <s_m_Source_File>
wee1_decoys_glide_SP.sdf

> <s_m_Source_Path>
/Users/zhangxujun/Desktop

> <s_m_entry_id>
4571

> <s_m_entry_name>
wee1_decoys_glide_SP.4296

> <s_m_subgroup_title>
wee1_decoys_glide_SP

> <s_m_subgroupid>
wee1_decoys_glide_SP


$$$$
