@<TRIPOS>MOLECULE
ZINC02955282_2693
55   60    1
SMALL
USER_CHARGES


@<TRIPOS>ATOM
      1 C1          0.9622   51.8353   20.5625 C.ar      1 UNK         0.0000 
      2 C2          0.7557   51.0525   19.4299 C.ar      1 UNK         0.0000 
      3 C3          1.1445   49.7061   19.4124 C.ar      1 UNK         0.0000 
      4 C4          1.7421   49.1600   20.5559 C.ar      1 UNK         0.0000 
      5 C5          1.9429   49.9375   21.6897 C.ar      1 UNK         0.0000 
      6 C6          1.5656   51.2831   21.6952 C.ar      1 UNK         0.0000 
      7 C7          1.8707   52.1349   22.9357 C.3       1 UNK         0.0000 
      8 H8          2.7042   51.5925   23.3630 H         1 UNK         0.0000 
      9 C9          2.4021   53.5743   22.6944 C.3       1 UNK         0.0000 
     10 H10         1.5770   54.1744   22.3093 H         1 UNK         0.0000 
     11 C11         3.5946   53.6460   21.7196 C.3       1 UNK         0.0000 
     12 C12         4.7963   53.8129   22.6213 C.2       1 UNK         0.0000 
     13 C13         4.4268   54.0970   23.8795 C.2       1 UNK         0.0000 
     14 C14         2.9197   54.2183   24.0018 C.3       1 UNK         0.0000 
     15 H15         2.6621   55.2801   24.0125 H         1 UNK         0.0000 
     16 C16         2.3262   53.6286   25.2900 C.ar      1 UNK         0.0000 
     17 C17         2.7605   54.0927   26.5336 C.ar      1 UNK         0.0000 
     18 C18         2.1961   53.6258   27.7155 C.ar      1 UNK         0.0000 
     19 C19         1.1555   52.6991   27.6690 C.ar      1 UNK         0.0000 
     20 C20         0.6808   52.2049   26.4474 C.ar      1 UNK         0.0000 
     21 C21         1.3046   52.6525   25.2658 C.ar      1 UNK         0.0000 
     22 N22         0.9153   52.0974   24.0478 N.pl3     1 UNK         0.0000 
     23 C23        -0.4926   51.7828   23.8046 C.3       1 UNK         0.0000 
     24 C24        -1.2193   51.1990   25.0464 C.3       1 UNK         0.0000 
     25 H25        -1.4840   50.1735   24.7751 H         1 UNK         0.0000 
     26 C26        -0.4338   51.1549   26.3731 C.3       1 UNK         0.0000 
     27 H27         0.0483   50.1807   26.4708 H         1 UNK         0.0000 
     28 C28        -1.5343   51.2986   27.4080 C.2       1 UNK         0.0000 
     29 C29        -2.6959   51.6873   26.8572 C.2       1 UNK         0.0000 
     30 C30        -2.5738   51.8538   25.3586 C.3       1 UNK         0.0000 
     31 S31         2.7990   54.2324   29.2822 S.o2      1 UNK         0.0000 
     32 O32         2.6257   53.1615   30.2688 O.2       1 UNK         0.0000 
     33 O33         4.1062   54.8561   29.0598 O.2       1 UNK         0.0000 
     34 N34         1.6873   55.5040   29.7066 N.pl3     1 UNK         0.0000 
     35 N35         0.9295   48.8709   18.2043 N.pl3     1 UNK         0.0000 
     36 O36         0.3945   49.3837   17.2242 O.co2     1 UNK         0.0000 
     37 O37         1.2640   47.6893   18.2416 O.co2     1 UNK         0.0000 
     38 H38         0.6772   52.8766   20.5439 H         1 UNK         0.0000 
     39 H39         0.3006   51.5032   18.5584 H         1 UNK         0.0000 
     40 H40         2.0683   48.1303   20.5694 H         1 UNK         0.0000 
     41 H41         2.4135   49.4938   22.5578 H         1 UNK         0.0000 
     42 H42         3.6993   52.7511   21.1051 H         1 UNK         0.0000 
     43 H43         3.5043   54.4915   21.0356 H         1 UNK         0.0000 
     44 H44         5.8085   53.7138   22.2560 H         1 UNK         0.0000 
     45 H45         5.0942   54.2909   24.7084 H         1 UNK         0.0000 
     46 H46         3.5469   54.8331   26.5757 H         1 UNK         0.0000 
     47 H47         0.7200   52.3485   28.5936 H         1 UNK         0.0000 
     48 H48        -0.9097   52.7850   23.6895 H         1 UNK         0.0000 
     49 H49        -0.7095   51.2521   22.8768 H         1 UNK         0.0000 
     50 H50        -1.3654   51.0937   28.4549 H         1 UNK         0.0000 
     51 H51        -3.6222   51.8628   27.3843 H         1 UNK         0.0000 
     52 H52        -2.6188   52.9098   25.0812 H         1 UNK         0.0000 
     53 H53        -3.3840   51.3398   24.8367 H         1 UNK         0.0000 
     54 H54         1.7292   56.3129   29.0837 H         1 UNK         0.0000 
     55 H55         0.7344   55.1838   29.8923 H         1 UNK         0.0000 
@<TRIPOS>BOND
     1    1    6 ar   
     2    1    2 ar   
     3    1   38 1    
     4    2    3 ar   
     5    2   39 1    
     6    3    4 ar   
     7    3   35 1    
     8    4    5 ar   
     9    4   40 1    
    10    5    6 ar   
    11    5   41 1    
    12    6    7 1    
    13    7    8 1    
    14    7   22 1    
    15    7    9 1    
    16    9   10 1    
    17    9   14 1    
    18    9   11 1    
    19   11   12 1    
    20   11   42 1    
    21   11   43 1    
    22   12   13 2    
    23   12   44 1    
    24   13   14 1    
    25   13   45 1    
    26   14   15 1    
    27   14   16 1    
    28   16   21 ar   
    29   16   17 ar   
    30   17   18 ar   
    31   17   46 1    
    32   18   19 ar   
    33   18   31 1    
    34   19   20 ar   
    35   19   47 1    
    36   20   26 1    
    37   20   21 ar   
    38   21   22 1    
    39   22   23 1    
    40   23   24 1    
    41   23   48 1    
    42   23   49 1    
    43   24   25 1    
    44   24   30 1    
    45   24   26 1    
    46   26   27 1    
    47   26   28 1    
    48   28   29 2    
    49   28   50 1    
    50   29   30 1    
    51   29   51 1    
    52   30   52 1    
    53   30   53 1    
    54   31   32 2    
    55   31   33 2    
    56   31   34 1    
    57   34   54 1    
    58   34   55 1    
    59   35   36 2    
    60   35   37 1    
@<TRIPOS>SUBSTRUCTURE
     1 UNK         1 GROUP             0       ****    0 ROOT    
