ZINC39609124_3060
                    3D
 Schrodinger Suite 2024-2.
 75 80  0  0  1  0            999 V2000
    5.6001   54.3167   25.6769 C   0  0  0  0  0  0
    6.4351   54.2526   24.5639 C   0  0  0  0  0  0
    5.8870   54.1368   23.2902 C   0  0  0  0  0  0
    4.4997   54.0971   23.1271 C   0  0  0  0  0  0
    3.6667   54.1617   24.2484 C   0  0  0  0  0  0
    4.2161   54.2696   25.5246 C   0  0  0  0  0  0
    3.9035   54.0750   21.7234 C   0  0  0  0  0  0
    3.8591   52.7577   21.1817 O   0  0  0  0  0  0
    2.7853   51.9161   21.6122 C   0  0  2  0  0  0
    2.6638   51.9872   22.6938 H   0  0  0  0  0  0
    3.1202   50.4891   21.1638 C   0  0  0  0  0  0
    2.2445   50.1289   19.9545 C   0  0  0  0  0  0
    1.6092   51.4485   19.5296 C   0  0  0  0  0  0
    1.4925   52.2505   20.8281 C   0  0  1  0  0  0
    1.3951   53.2948   20.5603 H   0  0  0  0  0  0
    0.2639   51.8760   21.5269 N   0  0  0  0  0  0
   -0.1388   52.3878   22.6965 C   0  0  0  0  0  0
    0.4602   53.2941   23.2815 O   0  0  0  0  0  0
   -1.4607   51.8189   23.2518 C   0  0  2  0  0  0
   -2.0189   51.3354   22.4466 H   0  0  0  0  0  0
   -2.3010   52.9759   23.8084 C   0  0  0  0  0  0
   -3.1027   52.3592   24.8669 N   0  0  0  0  0  0
   -2.6333   50.9942   25.1620 C   0  0  0  0  0  0
   -1.2712   50.8523   24.4425 C   0  0  0  0  0  0
   -0.9411   49.4181   23.9588 C   0  0  0  0  0  0
   -0.8929   48.4292   25.1327 C   0  0  0  0  0  0
    0.2264   48.8967   26.0817 N   0  3  0  0  0  0
    0.0456   50.3340   26.6117 C   0  0  0  0  0  0
   -0.0956   51.2612   25.4008 C   0  0  0  0  0  0
   -4.1916   53.0142   25.3677 C   0  0  0  0  0  0
   -4.5472   54.0968   24.8887 O   0  0  0  0  0  0
   -4.9754   52.4758   26.5568 C   0  0  0  0  0  0
   -6.2619   52.9613   26.8287 C   0  0  0  0  0  0
   -6.9199   52.5724   27.9967 C   0  0  0  0  0  0
   -6.2730   51.6956   28.9001 C   0  0  0  0  0  0
   -6.8464   51.2906   30.1305 C   0  0  0  0  0  0
   -6.1460   50.4350   30.9791 C   0  0  0  0  0  0
   -4.8886   49.9587   30.6227 C   0  0  0  0  0  0
   -4.3004   50.3339   29.4191 C   0  0  0  0  0  0
   -4.9790   51.2149   28.5459 C   0  0  0  0  0  0
   -4.3633   51.6028   27.3992 N   0  0  0  0  0  0
    6.0261   54.4036   26.6658 H   0  0  0  0  0  0
    7.5059   54.2965   24.6807 H   0  0  0  0  0  0
    6.5411   54.0973   22.4315 H   0  0  0  0  0  0
    2.5950   54.1585   24.1339 H   0  0  0  0  0  0
    3.5729   54.3260   26.3907 H   0  0  0  0  0  0
    4.5443   54.6781   21.0782 H   0  0  0  0  0  0
    2.9276   54.5602   21.6953 H   0  0  0  0  0  0
    4.1584   50.4673   20.8335 H   0  0  0  0  0  0
    3.0140   49.7677   21.9734 H   0  0  0  0  0  0
    2.8239   49.6794   19.1438 H   0  0  0  0  0  0
    1.4734   49.4136   20.2464 H   0  0  0  0  0  0
    0.6636   51.3315   18.9978 H   0  0  0  0  0  0
    2.2764   51.9736   18.8418 H   0  0  0  0  0  0
   -0.3128   51.1887   21.0679 H   0  0  0  0  0  0
   -2.8943   53.4428   23.0216 H   0  0  0  0  0  0
   -1.6661   53.6967   24.3235 H   0  0  0  0  0  0
   -2.5749   50.6873   26.2012 H   0  0  0  0  0  0
   -3.3463   50.3200   24.6835 H   0  0  0  0  0  0
   -1.7147   49.0754   23.2700 H   0  0  0  0  0  0
   -0.0128   49.3969   23.3833 H   0  0  0  0  0  0
   -1.8084   48.3894   25.7281 H   0  0  0  0  0  0
   -0.6238   47.4164   24.8276 H   0  0  0  0  0  0
    0.2312   48.2562   26.8721 H   0  0  0  0  0  0
   -0.8203   50.3212   27.2758 H   0  0  0  0  0  0
    0.9306   50.5531   27.2102 H   0  0  0  0  0  0
    0.8659   51.2884   24.8851 H   0  0  0  0  0  0
   -0.2529   52.2777   25.7661 H   0  0  0  0  0  0
   -6.7455   53.6558   26.1565 H   0  0  0  0  0  0
   -7.9046   52.9486   28.2295 H   0  0  0  0  0  0
   -7.8246   51.6505   30.4097 H   0  0  0  0  0  0
   -6.5820   50.1322   31.9206 H   0  0  0  0  0  0
   -4.3476   49.2953   31.2815 H   0  0  0  0  0  0
   -3.3195   49.9574   29.1588 H   0  0  0  0  0  0
    1.1243   48.7952   25.6259 H   0  0  0  0  0  0
  1  6  2  0  0  0
  1  2  1  0  0  0
  1 42  1  0  0  0
  2  3  2  0  0  0
  2 43  1  0  0  0
  3  4  1  0  0  0
  3 44  1  0  0  0
  4  5  2  0  0  0
  4  7  1  0  0  0
  5  6  1  0  0  0
  5 45  1  0  0  0
  6 46  1  0  0  0
  7  8  1  0  0  0
  7 47  1  0  0  0
  7 48  1  0  0  0
  8  9  1  0  0  0
  9 10  1  0  0  0
  9 14  1  0  0  0
  9 11  1  0  0  0
 11 12  1  0  0  0
 11 49  1  0  0  0
 11 50  1  0  0  0
 12 13  1  0  0  0
 12 51  1  0  0  0
 12 52  1  0  0  0
 13 14  1  0  0  0
 13 53  1  0  0  0
 13 54  1  0  0  0
 14 15  1  0  0  0
 14 16  1  0  0  0
 16 17  1  0  0  0
 16 55  1  0  0  0
 17 18  2  0  0  0
 17 19  1  0  0  0
 19 20  1  0  0  0
 19 24  1  0  0  0
 19 21  1  0  0  0
 21 22  1  0  0  0
 21 56  1  0  0  0
 21 57  1  0  0  0
 22 23  1  0  0  0
 22 30  1  0  0  0
 23 24  1  0  0  0
 23 58  1  0  0  0
 23 59  1  0  0  0
 24 29  1  0  0  0
 24 25  1  0  0  0
 25 26  1  0  0  0
 25 60  1  0  0  0
 25 61  1  0  0  0
 26 27  1  0  0  0
 26 62  1  0  0  0
 26 63  1  0  0  0
 27 28  1  0  0  0
 27 64  1  0  0  0
 27 75  1  0  0  0
 28 29  1  0  0  0
 28 65  1  0  0  0
 28 66  1  0  0  0
 29 67  1  0  0  0
 29 68  1  0  0  0
 30 31  2  0  0  0
 30 32  1  0  0  0
 32 41  2  0  0  0
 32 33  1  0  0  0
 33 34  2  0  0  0
 33 69  1  0  0  0
 34 35  1  0  0  0
 34 70  1  0  0  0
 35 40  2  0  0  0
 35 36  1  0  0  0
 36 37  2  0  0  0
 36 71  1  0  0  0
 37 38  1  0  0  0
 37 72  1  0  0  0
 38 39  2  0  0  0
 38 73  1  0  0  0
 39 40  1  0  0  0
 39 74  1  0  0  0
 40 41  1  0  0  0
M  CHG  1  27   1
M  END
> <i_i_glide_confnum>
8

> <i_i_glide_lignum>
3061

> <i_i_glide_posenum>
25

> <i_i_glide_rotatable_bonds>
8

> <i_m_Source_File_Index>
878

> <b_m_subgroup_collapsed>
0

> <r_i_docking_score>
-4.95161

> <r_i_glide_ecoul>
-6.71849

> <r_i_glide_eff_state_penalty>
0

> <r_i_glide_einternal>
4.63604

> <r_i_glide_emodel>
-65.7492

> <r_i_glide_energy>
-49.7206

> <r_i_glide_erotb>
0.621824

> <r_i_glide_esite>
-0.1

> <r_i_glide_evdw>
-43.0021

> <r_i_glide_gscore>
-4.95161

> <r_i_glide_hbond>
-0.0396105

> <r_i_glide_ligand_efficiency>
-0.130305

> <r_i_glide_ligand_efficiency_ln>
-1.06771

> <r_i_glide_ligand_efficiency_sa>
-0.438084

> <r_i_glide_lipo>
-1.95354

> <r_i_glide_metal>
0

> <r_i_glide_rewards>
-0.3224

> <s_i_glide_gridfile>
wee1_glide-grid

> <s_m_Source_File>
wee1_decoys_glide_SP.sdf

> <s_m_Source_Path>
/Users/zhangxujun/Desktop

> <s_m_entry_id>
1153

> <s_m_entry_name>
wee1_decoys_glide_SP.878

> <s_m_subgroup_title>
wee1_decoys_glide_SP

> <s_m_subgroupid>
wee1_decoys_glide_SP


$$$$
