ZINC63480122_5571
                    3D
 Schrodinger Suite 2024-2.
 60 66  0  0  1  0            999 V2000
    1.7547   56.0442   29.2514 C   0  0  0  0  0  0
    1.1057   56.0075   30.5517 C   0  0  0  0  0  0
    0.4614   54.8963   31.0015 C   0  0  0  0  0  0
    0.3813   53.7501   30.2140 C   0  0  0  0  0  0
   -0.1823   52.5973   30.4824 N   0  3  0  0  0  0
    0.0036   51.6985   29.3379 C   0  0  0  0  0  0
    0.7481   52.5628   28.3476 C   0  0  0  0  0  0
    0.9648   53.7453   28.9445 C   0  0  0  0  0  0
    1.6836   54.9402   28.4813 C   0  0  0  0  0  0
    1.2006   52.0215   27.0057 C   0  0  0  0  0  0
    0.1337   52.0942   25.9030 C   0  0  1  0  0  0
   -0.1548   53.1368   25.7746 H   0  0  0  0  0  0
    0.5570   51.5379   24.5545 C   0  0  1  0  0  0
    1.0503   50.5752   24.7294 H   0  0  0  0  0  0
   -0.7465   51.5160   23.8896 C   0  0  1  0  0  0
   -1.2153   52.4994   23.7579 H   0  0  0  0  0  0
   -0.3350   51.1140   22.4943 C   0  0  0  0  0  0
   -1.0035   50.4364   21.7132 O   0  0  0  0  0  0
    0.8668   51.7644   22.3050 N   0  0  0  0  0  0
    1.3679   52.2464   23.4975 C   0  0  0  0  0  0
    2.3033   53.0169   23.7119 O   0  0  0  0  0  0
    1.4970   51.9303   21.0374 C   0  0  0  0  0  0
    2.8970   51.9360   20.9197 C   0  0  0  0  0  0
    3.5045   52.0981   19.6780 C   0  0  0  0  0  0
    2.7300   52.2527   18.5316 C   0  0  0  0  0  0
    1.3312   52.2676   18.6116 C   0  0  0  0  0  0
    0.7322   52.0966   19.8683 C   0  0  0  0  0  0
    0.5018   52.4753   17.4004 N   0  3  0  0  0  0
   -0.7174   52.5567   17.5332 O   0  0  0  0  0  0
    1.0624   52.5701   16.3124 O   0  5  0  0  0  0
   -1.6519   50.7825   24.8950 C   0  0  1  0  0  0
   -1.0668   51.2767   26.1610 N   0  0  0  0  0  0
   -3.1316   51.0025   24.7484 C   0  0  0  0  0  0
   -3.8928   52.1743   24.6930 C   0  0  0  0  0  0
   -5.2799   52.0866   24.5490 C   0  0  0  0  0  0
   -5.9013   50.8367   24.4685 C   0  0  0  0  0  0
   -5.1392   49.6672   24.5313 C   0  0  0  0  0  0
   -3.7559   49.7715   24.6698 C   0  0  0  0  0  0
   -2.8066   48.7658   24.7421 N   0  0  0  0  0  0
   -1.5492   49.2287   24.8451 C   0  0  0  0  0  0
   -0.5237   48.5476   24.8692 O   0  0  0  0  0  0
    2.2862   56.9254   28.9221 H   0  0  0  0  0  0
    1.1632   56.8800   31.1895 H   0  0  0  0  0  0
    0.0256   54.8966   31.9899 H   0  0  0  0  0  0
    0.6365   50.8961   29.6787 H   0  0  0  0  0  0
   -0.9672   51.3195   29.0116 H   0  0  0  0  0  0
    2.1765   54.9580   27.5199 H   0  0  0  0  0  0
    2.0905   52.5634   26.6842 H   0  0  0  0  0  0
    1.5044   50.9858   27.1578 H   0  0  0  0  0  0
    3.5292   51.8043   21.7852 H   0  0  0  0  0  0
    4.5818   52.0935   19.5919 H   0  0  0  0  0  0
    3.2335   52.3591   17.5801 H   0  0  0  0  0  0
   -0.3458   52.1137   19.9331 H   0  0  0  0  0  0
   -1.7534   51.7238   26.7508 H   0  0  0  0  0  0
   -3.4249   53.1458   24.7566 H   0  0  0  0  0  0
   -5.8764   52.9859   24.4961 H   0  0  0  0  0  0
   -6.9740   50.7754   24.3562 H   0  0  0  0  0  0
   -5.6264   48.7051   24.4692 H   0  0  0  0  0  0
   -3.0140   47.7804   24.7182 H   0  0  0  0  0  0
   -0.6584   52.3388   31.3528 H   0  0  0  0  0  0
  1  9  2  0  0  0
  1  2  1  0  0  0
  1 42  1  0  0  0
  2  3  2  0  0  0
  2 43  1  0  0  0
  3  4  1  0  0  0
  3 44  1  0  0  0
  4  8  1  0  0  0
  4  5  2  0  0  0
  5  6  1  0  0  0
  5 60  1  0  0  0
  6  7  1  0  0  0
  6 45  1  0  0  0
  6 46  1  0  0  0
  7  8  2  0  0  0
  7 10  1  0  0  0
  8  9  1  0  0  0
  9 47  1  0  0  0
 10 11  1  0  0  0
 10 48  1  0  0  0
 10 49  1  0  0  0
 11 12  1  0  0  0
 11 32  1  0  0  0
 11 13  1  0  0  0
 13 14  1  0  0  0
 13 20  1  0  0  0
 13 15  1  0  0  0
 15 16  1  0  0  0
 15 17  1  0  0  0
 15 31  1  0  0  0
 17 18  2  0  0  0
 17 19  1  0  0  0
 19 20  1  0  0  0
 19 22  1  0  0  0
 20 21  2  0  0  0
 22 27  2  0  0  0
 22 23  1  0  0  0
 23 24  2  0  0  0
 23 50  1  0  0  0
 24 25  1  0  0  0
 24 51  1  0  0  0
 25 26  2  0  0  0
 25 52  1  0  0  0
 26 27  1  0  0  0
 26 28  1  0  0  0
 27 53  1  0  0  0
 28 29  2  0  0  0
 28 30  1  0  0  0
 31 40  1  0  0  0
 31 32  1  0  0  0
 31 33  1  0  0  0
 32 54  1  0  0  0
 33 38  2  0  0  0
 33 34  1  0  0  0
 34 35  2  0  0  0
 34 55  1  0  0  0
 35 36  1  0  0  0
 35 56  1  0  0  0
 36 37  2  0  0  0
 36 57  1  0  0  0
 37 38  1  0  0  0
 37 58  1  0  0  0
 38 39  1  0  0  0
 39 40  1  0  0  0
 39 59  1  0  0  0
 40 41  2  0  0  0
M  CHG  3   5   1  28   1  30  -1
M  END
> <i_i_glide_confnum>
2

> <i_i_glide_lignum>
5572

> <i_i_glide_posenum>
246

> <i_i_glide_rotatable_bonds>
4

> <i_m_Source_File_Index>
1838

> <b_m_subgroup_collapsed>
0

> <r_i_docking_score>
-4.34441

> <r_i_glide_ecoul>
-0.276531

> <r_i_glide_eff_state_penalty>
0

> <r_i_glide_einternal>
0.800817

> <r_i_glide_emodel>
-51.8493

> <r_i_glide_energy>
-39.4399

> <r_i_glide_erotb>
0.237535

> <r_i_glide_esite>
-0.165285

> <r_i_glide_evdw>
-39.1634

> <r_i_glide_gscore>
-4.34441

> <r_i_glide_hbond>
-0.170444

> <r_i_glide_ligand_efficiency>
-0.114327

> <r_i_glide_ligand_efficiency_ln>
-0.936783

> <r_i_glide_ligand_efficiency_sa>
-0.384363

> <r_i_glide_lipo>
-1.9536

> <r_i_glide_metal>
0

> <r_i_glide_rewards>
-0.292968

> <s_i_glide_gridfile>
wee1_glide-grid

> <s_m_Source_File>
wee1_decoys_glide_SP.sdf

> <s_m_Source_Path>
/Users/zhangxujun/Desktop

> <s_m_entry_id>
2113

> <s_m_entry_name>
wee1_decoys_glide_SP.1838

> <s_m_subgroup_title>
wee1_decoys_glide_SP

> <s_m_subgroupid>
wee1_decoys_glide_SP


$$$$
