ZINC34750169_321
                    3D
 Schrodinger Suite 2024-2.
 73 77  0  0  1  0            999 V2000
    1.8108   52.2003   29.3093 C   0  0  0  0  0  0
    1.8360   53.7467   29.2639 C   0  0  0  0  0  0
    2.0511   54.2660   27.8088 C   0  0  0  0  0  0
    3.5157   54.1063   27.3641 C   0  0  0  0  0  0
    4.5134   54.0228   28.3247 C   0  0  0  0  0  0
    6.1414   54.0954   27.7140 S   0  0  0  0  0  0
    5.5100   54.2492   26.0977 C   0  0  0  0  0  0
    4.0838   54.1136   26.0339 C   0  0  0  0  0  0
    3.5605   54.0631   24.7063 C   0  0  0  0  0  0
    4.3752   54.2695   23.6347 N   0  0  0  0  0  0
    5.6889   54.4878   23.8600 C   0  0  0  0  0  0
    6.3151   54.4500   25.0551 N   0  0  0  0  0  0
    6.7116   54.8963   22.4866 S   0  0  0  0  0  0
    5.7268   54.9892   20.9595 C   0  0  0  0  0  0
    6.2807   55.9825   19.9285 C   0  0  0  0  0  0
    7.0449   56.8940   20.2420 O   0  0  0  0  0  0
    5.8878   55.8300   18.6669 N   0  0  0  0  0  0
    2.2354   53.7532   24.3990 N   0  0  0  0  0  0
    1.5399   52.6071   25.0078 C   0  0  0  0  0  0
    1.3679   51.3885   24.0859 C   0  0  0  0  0  0
    0.6596   51.8161   22.7811 N   0  3  0  0  0  0
    1.5063   52.9232   22.1141 C   0  0  0  0  0  0
    1.6273   54.1012   23.1011 C   0  0  0  0  0  0
    0.4302   50.5886   21.8567 C   0  0  0  0  0  0
   -0.8962   49.9318   22.2599 C   0  0  0  0  0  0
   -1.9200   50.2551   21.6637 O   0  0  0  0  0  0
   -0.8819   49.0742   23.3025 N   0  0  0  0  0  0
   -2.0559   48.4752   23.9548 C   0  0  0  0  0  0
   -1.6757   47.4291   25.0377 C   0  0  0  0  0  0
   -2.8822   46.8051   25.7737 C   0  0  0  0  0  0
   -3.8506   47.8738   26.3029 C   0  0  0  0  0  0
   -4.3121   48.8223   25.1860 C   0  0  0  0  0  0
   -3.1213   49.4841   24.4676 C   0  0  0  0  0  0
    4.2129   53.8684   29.7975 C   0  0  0  0  0  0
    2.8799   54.2791   30.0813 O   0  0  0  0  0  0
    0.5594   54.3696   29.8512 C   0  0  0  0  0  0
    0.9290   51.8041   28.8017 H   0  0  0  0  0  0
    2.6850   51.7486   28.8328 H   0  0  0  0  0  0
    1.7775   51.8526   30.3413 H   0  0  0  0  0  0
    1.8123   55.3312   27.7639 H   0  0  0  0  0  0
    1.3105   53.8025   27.1720 H   0  0  0  0  0  0
    5.6984   53.9927   20.5220 H   0  0  0  0  0  0
    4.7032   55.2665   21.1984 H   0  0  0  0  0  0
    5.2873   55.0708   18.3878 H   0  0  0  0  0  0
    6.2255   56.4831   17.9743 H   0  0  0  0  0  0
    0.5523   52.9710   25.2920 H   0  0  0  0  0  0
    2.0542   52.2633   25.9035 H   0  0  0  0  0  0
    0.7262   50.6631   24.5882 H   0  0  0  0  0  0
    2.3073   50.9144   23.8052 H   0  0  0  0  0  0
    2.4725   52.5027   21.8266 H   0  0  0  0  0  0
    0.9758   53.2839   21.2285 H   0  0  0  0  0  0
    2.1764   54.9017   22.6069 H   0  0  0  0  0  0
    0.6445   54.4951   23.3467 H   0  0  0  0  0  0
    1.2945   49.9289   21.9166 H   0  0  0  0  0  0
    0.3594   50.9670   20.8337 H   0  0  0  0  0  0
    0.0043   48.8610   23.7415 H   0  0  0  0  0  0
   -2.5708   47.9080   23.1745 H   0  0  0  0  0  0
   -1.0587   47.9017   25.8034 H   0  0  0  0  0  0
   -1.0744   46.6295   24.5995 H   0  0  0  0  0  0
   -2.5304   46.1878   26.6038 H   0  0  0  0  0  0
   -3.4133   46.1403   25.0943 H   0  0  0  0  0  0
   -3.3670   48.4494   27.0930 H   0  0  0  0  0  0
   -4.7170   47.3972   26.7713 H   0  0  0  0  0  0
   -4.9713   49.5935   25.5983 H   0  0  0  0  0  0
   -4.9130   48.2746   24.4573 H   0  0  0  0  0  0
   -3.5199   50.0837   23.6479 H   0  0  0  0  0  0
   -2.6341   50.1606   25.1721 H   0  0  0  0  0  0
    4.3446   52.8360   30.1200 H   0  0  0  0  0  0
    4.8627   54.4997   30.3957 H   0  0  0  0  0  0
   -0.3223   54.0985   29.2701 H   0  0  0  0  0  0
    0.3905   54.0396   30.8742 H   0  0  0  0  0  0
    0.6371   55.4589   29.8808 H   0  0  0  0  0  0
   -0.2440   52.2133   23.0067 H   0  0  0  0  0  0
  1  2  1  0  0  0
  1 37  1  0  0  0
  1 38  1  0  0  0
  1 39  1  0  0  0
  2 35  1  0  0  0
  2  3  1  0  0  0
  2 36  1  0  0  0
  3  4  1  0  0  0
  3 40  1  0  0  0
  3 41  1  0  0  0
  4  8  1  0  0  0
  4  5  2  0  0  0
  5  6  1  0  0  0
  5 34  1  0  0  0
  6  7  1  0  0  0
  7 12  2  0  0  0
  7  8  1  0  0  0
  8  9  2  0  0  0
  9 10  1  0  0  0
  9 18  1  0  0  0
 10 11  2  0  0  0
 11 12  1  0  0  0
 11 13  1  0  0  0
 13 14  1  0  0  0
 14 15  1  0  0  0
 14 42  1  0  0  0
 14 43  1  0  0  0
 15 16  2  0  0  0
 15 17  1  0  0  0
 17 44  1  0  0  0
 17 45  1  0  0  0
 18 23  1  0  0  0
 18 19  1  0  0  0
 19 20  1  0  0  0
 19 46  1  0  0  0
 19 47  1  0  0  0
 20 21  1  0  0  0
 20 48  1  0  0  0
 20 49  1  0  0  0
 21 22  1  0  0  0
 21 24  1  0  0  0
 21 73  1  0  0  0
 22 23  1  0  0  0
 22 50  1  0  0  0
 22 51  1  0  0  0
 23 52  1  0  0  0
 23 53  1  0  0  0
 24 25  1  0  0  0
 24 54  1  0  0  0
 24 55  1  0  0  0
 25 26  2  0  0  0
 25 27  1  0  0  0
 27 28  1  0  0  0
 27 56  1  0  0  0
 28 33  1  0  0  0
 28 29  1  0  0  0
 28 57  1  0  0  0
 29 30  1  0  0  0
 29 58  1  0  0  0
 29 59  1  0  0  0
 30 31  1  0  0  0
 30 60  1  0  0  0
 30 61  1  0  0  0
 31 32  1  0  0  0
 31 62  1  0  0  0
 31 63  1  0  0  0
 32 33  1  0  0  0
 32 64  1  0  0  0
 32 65  1  0  0  0
 33 66  1  0  0  0
 33 67  1  0  0  0
 34 35  1  0  0  0
 34 68  1  0  0  0
 34 69  1  0  0  0
 36 70  1  0  0  0
 36 71  1  0  0  0
 36 72  1  0  0  0
M  CHG  1  21   1
M  END
> <i_i_glide_confnum>
125

> <i_i_glide_lignum>
322

> <i_i_glide_posenum>
305

> <i_i_glide_rotatable_bonds>
8

> <i_m_Source_File_Index>
4818

> <b_m_subgroup_collapsed>
0

> <r_i_docking_score>
-8.21552

> <r_i_glide_ecoul>
-8.92339

> <r_i_glide_eff_state_penalty>
0

> <r_i_glide_einternal>
7.72993

> <r_i_glide_emodel>
-84.0461

> <r_i_glide_energy>
-58.6885

> <r_i_glide_erotb>
0.434599

> <r_i_glide_esite>
-0.00115757

> <r_i_glide_evdw>
-49.7651

> <r_i_glide_gscore>
-8.21552

> <r_i_glide_hbond>
-0.605683

> <r_i_glide_ligand_efficiency>
-0.228209

> <r_i_glide_ligand_efficiency_ln>
-1.7924

> <r_i_glide_ligand_efficiency_sa>
-0.753529

> <r_i_glide_lipo>
-3.26958

> <r_i_glide_metal>
0

> <r_i_glide_rewards>
-0.946937

> <s_i_glide_gridfile>
wee1_glide-grid

> <s_m_Source_File>
wee1_decoys_glide_SP.sdf

> <s_m_Source_Path>
/Users/zhangxujun/Desktop

> <s_m_entry_id>
5093

> <s_m_entry_name>
wee1_decoys_glide_SP.4818

> <s_m_subgroup_title>
wee1_decoys_glide_SP

> <s_m_subgroupid>
wee1_decoys_glide_SP


$$$$
