@<TRIPOS>MOLECULE
ZINC35734075_1575
39   41    1
SMALL
USER_CHARGES


@<TRIPOS>ATOM
      1 C1          0.4113   53.0920   30.9536 C.3       1 UNK         0.0000 
      2 C2          0.4612   53.2279   29.4227 C.3       1 UNK         0.0000 
      3 H3         -0.3515   53.8922   29.1260 H         1 UNK         0.0000 
      4 C4          0.2394   51.8854   28.6876 C.3       1 UNK         0.0000 
      5 C5         -0.9943   51.6760   27.8389 C.3       1 UNK         0.0000 
      6 C6          0.3619   51.7935   27.1823 C.3       1 UNK         0.0000 
      7 N7          1.7054   53.9093   28.9911 N.pl3     1 UNK         0.0000 
      8 S8          3.2757   53.1553   29.2815 S.o2      1 UNK         0.0000 
      9 O9          3.8436   53.7695   30.4817 O.2       1 UNK         0.0000 
     10 O10         3.1383   51.6986   29.1929 O.2       1 UNK         0.0000 
     11 C11         4.2889   53.6862   27.9117 C.ar      1 UNK         0.0000 
     12 C12         5.6072   54.0893   28.1278 C.ar      1 UNK         0.0000 
     13 C13         6.4085   54.4930   27.0640 C.ar      1 UNK         0.0000 
     14 C14         5.8924   54.4966   25.7473 C.ar      1 UNK         0.0000 
     15 C15         4.5396   54.0966   25.5276 C.ar      1 UNK         0.0000 
     16 C16         3.7490   53.6969   26.6272 C.ar      1 UNK         0.0000 
     17 C17         4.0505   54.0966   24.1998 C.ar      1 UNK         0.0000 
     18 C18         4.9054   54.4533   23.1621 C.ar      1 UNK         0.0000 
     19 C19         6.2121   54.8449   23.4609 C.ar      1 UNK         0.0000 
     20 N20         6.7044   54.8747   24.7230 N.ar      1 UNK         0.0000 
     21 N21         7.1046   55.2976   22.4882 N.pl3     1 UNK         0.0000 
     22 N22         6.8219   55.3311   21.0627 N.3       1 UNK         0.0000 
     23 H23        -0.5133   52.6138   31.2755 H         1 UNK         0.0000 
     24 H24         1.2323   52.4846   31.3355 H         1 UNK         0.0000 
     25 H25         0.4610   54.0641   31.4440 H         1 UNK         0.0000 
     26 H26         0.6111   51.0307   29.2546 H         1 UNK         0.0000 
     27 H27        -1.6961   52.4929   27.6817 H         1 UNK         0.0000 
     28 H28        -1.4868   50.7028   27.8757 H         1 UNK         0.0000 
     29 H29         0.8265   50.9024   26.7586 H         1 UNK         0.0000 
     30 H30         0.5833   52.6930   26.6090 H         1 UNK         0.0000 
     31 H31         1.7110   54.8597   29.3670 H         1 UNK         0.0000 
     32 H32         6.0215   54.0942   29.1255 H         1 UNK         0.0000 
     33 H33         7.4287   54.7966   27.2455 H         1 UNK         0.0000 
     34 H34         2.7314   53.3801   26.4578 H         1 UNK         0.0000 
     35 H35         3.0312   53.7986   23.9984 H         1 UNK         0.0000 
     36 H36         4.5416   54.4550   22.1457 H         1 UNK         0.0000 
     37 H37         8.1012   55.3131   22.7046 H         1 UNK         0.0000 
     38 H38         6.4431   54.4410   20.7657 H         1 UNK         0.0000 
     39 H39         6.1936   56.0971   20.8580 H         1 UNK         0.0000 
@<TRIPOS>BOND
     1    1    2 1    
     2    1   23 1    
     3    1   24 1    
     4    1   25 1    
     5    2    3 1    
     6    2    4 1    
     7    2    7 1    
     8    4    6 1    
     9    4    5 1    
    10    4   26 1    
    11    5    6 1    
    12    5   27 1    
    13    5   28 1    
    14    6   29 1    
    15    6   30 1    
    16    7    8 1    
    17    7   31 1    
    18    8    9 2    
    19    8   10 2    
    20    8   11 1    
    21   11   16 ar   
    22   11   12 ar   
    23   12   13 ar   
    24   12   32 1    
    25   13   14 ar   
    26   13   33 1    
    27   14   20 ar   
    28   14   15 ar   
    29   15   16 ar   
    30   15   17 ar   
    31   16   34 1    
    32   17   18 ar   
    33   17   35 1    
    34   18   19 ar   
    35   18   36 1    
    36   19   20 ar   
    37   19   21 1    
    38   21   22 1    
    39   21   37 1    
    40   22   38 1    
    41   22   39 1    
@<TRIPOS>SUBSTRUCTURE
     1 UNK         1 GROUP             0       ****    0 ROOT    
