ZINC63842496_1350
                    3D
 Schrodinger Suite 2024-2.
 37 39  0  0  1  0            999 V2000
    3.8150   54.0957   26.7137 C   0  0  0  0  0  0
    5.0915   54.3966   27.3459 C   0  0  0  0  0  0
    6.2039   54.6868   26.6220 C   0  0  0  0  0  0
    6.1551   54.7050   25.2207 C   0  0  0  0  0  0
    7.1002   54.9611   24.3449 N   0  3  0  0  0  0
    6.5678   54.8493   22.9843 C   0  0  0  0  0  0
    5.1289   54.4421   23.2298 C   0  0  0  0  0  0
    4.9533   54.4079   24.5649 C   0  0  0  0  0  0
    3.7595   54.0992   25.3667 C   0  0  0  0  0  0
    4.1470   54.2147   22.0819 C   0  0  0  0  0  0
    4.1857   52.7835   21.5318 C   0  0  0  0  0  0
    5.1949   52.0967   21.6819 O   0  0  0  0  0  0
    3.0651   52.3493   20.9187 N   0  0  0  0  0  0
    3.0754   51.0801   20.3361 N   0  0  0  0  0  0
    2.1841   50.2016   20.8444 C   0  0  0  0  0  0
    1.9665   50.0874   22.0548 O   0  0  0  0  0  0
    1.4836   49.4066   19.8560 C   0  0  0  0  0  0
    0.4046   48.6482   20.0947 C   0  0  0  0  0  0
   -0.0164   48.0644   18.7725 C   0  0  0  0  0  0
    1.1461   48.4842   17.8557 C   0  0  1  0  0  0
    0.8519   48.8276   16.8643 H   0  0  0  0  0  0
    1.9049   49.4452   18.5768 O   0  0  0  0  0  0
    2.3039   46.8966   17.5129 Br  0  0  0  0  0  0
    2.9428   53.8607   27.3068 H   0  0  0  0  0  0
    5.1597   54.3855   28.4252 H   0  0  0  0  0  0
    7.1125   54.8973   27.1625 H   0  0  0  0  0  0
    7.1604   54.0967   22.4828 H   0  0  0  0  0  0
    6.7045   55.8068   22.4796 H   0  0  0  0  0  0
    2.8152   53.8588   24.8998 H   0  0  0  0  0  0
    4.3682   54.9006   21.2667 H   0  0  0  0  0  0
    3.1379   54.4503   22.4227 H   0  0  0  0  0  0
    2.3539   52.9643   20.5481 H   0  0  0  0  0  0
    3.2661   51.1245   19.3434 H   0  0  0  0  0  0
   -0.1115   48.4894   21.0304 H   0  0  0  0  0  0
   -0.9581   48.5024   18.4427 H   0  0  0  0  0  0
   -0.1495   46.9832   18.8050 H   0  0  0  0  0  0
    8.0800   55.1794   24.5250 H   0  0  0  0  0  0
  1  9  2  0  0  0
  1  2  1  0  0  0
  1 24  1  0  0  0
  2  3  2  0  0  0
  2 25  1  0  0  0
  3  4  1  0  0  0
  3 26  1  0  0  0
  4  8  1  0  0  0
  4  5  2  0  0  0
  5  6  1  0  0  0
  5 37  1  0  0  0
  6  7  1  0  0  0
  6 27  1  0  0  0
  6 28  1  0  0  0
  7  8  2  0  0  0
  7 10  1  0  0  0
  8  9  1  0  0  0
  9 29  1  0  0  0
 10 11  1  0  0  0
 10 30  1  0  0  0
 10 31  1  0  0  0
 11 12  2  0  0  0
 11 13  1  0  0  0
 13 14  1  0  0  0
 13 32  1  0  0  0
 14 15  1  0  0  0
 14 33  1  0  0  0
 15 16  2  0  0  0
 15 17  1  0  0  0
 17 22  1  0  0  0
 17 18  2  0  0  0
 18 19  1  0  0  0
 18 34  1  0  0  0
 19 20  1  0  0  0
 19 35  1  0  0  0
 19 36  1  0  0  0
 20 21  1  0  0  0
 20 22  1  0  0  0
 20 23  1  0  0  0
M  CHG  1   5   1
M  END
> <i_i_glide_confnum>
8

> <i_i_glide_lignum>
1351

> <i_i_glide_posenum>
92

> <i_i_glide_rotatable_bonds>
6

> <i_m_Source_File_Index>
4180

> <b_m_subgroup_collapsed>
0

> <r_i_docking_score>
-5.13852

> <r_i_glide_ecoul>
-3.58625

> <r_i_glide_eff_state_penalty>
0

> <r_i_glide_einternal>
11.1938

> <r_i_glide_emodel>
-47.3461

> <r_i_glide_energy>
-37.9534

> <r_i_glide_erotb>
0.576835

> <r_i_glide_esite>
-0.0481973

> <r_i_glide_evdw>
-34.3672

> <r_i_glide_gscore>
-5.13852

> <r_i_glide_hbond>
0

> <r_i_glide_ligand_efficiency>
-0.233569

> <r_i_glide_ligand_efficiency_ln>
-1.25604

> <r_i_glide_ligand_efficiency_sa>
-0.65447

> <r_i_glide_lipo>
-2.19809

> <r_i_glide_metal>
0

> <r_i_glide_rewards>
-1.21278

> <s_i_glide_gridfile>
wee1_glide-grid

> <s_m_Source_File>
wee1_decoys_glide_SP.sdf

> <s_m_Source_Path>
/Users/zhangxujun/Desktop

> <s_m_entry_id>
4455

> <s_m_entry_name>
wee1_decoys_glide_SP.4180

> <s_m_subgroup_title>
wee1_decoys_glide_SP

> <s_m_subgroupid>
wee1_decoys_glide_SP


$$$$
