@<TRIPOS>MOLECULE
ZINC00141735_3860
25   26    1
SMALL
USER_CHARGES


@<TRIPOS>ATOM
      1 C1          3.9276   54.4431   26.1083 C.ar      1 UNK         0.0000 
      2 C2          3.5058   54.3650   27.4307 C.ar      1 UNK         0.0000 
      3 C3          4.4432   54.1886   28.4451 C.ar      1 UNK         0.0000 
      4 C4          5.8013   54.0958   28.1476 C.ar      1 UNK         0.0000 
      5 C5          6.2253   54.1659   26.8237 C.ar      1 UNK         0.0000 
      6 C6          5.2902   54.3235   25.7971 C.ar      1 UNK         0.0000 
      7 N7          5.7945   54.3815   24.4870 N.am      1 UNK         0.0000 
      8 C8          5.1401   54.1363   23.3350 C.2       1 UNK         0.0000 
      9 O9          3.9932   53.6969   23.2579 O.2       1 UNK         0.0000 
     10 N10         5.9029   54.4935   22.2856 N.am      1 UNK         0.0000 
     11 C11         5.5153   54.5476   20.9530 C.2       1 UNK         0.0000 
     12 C12         4.3842   53.9574   20.3482 C.2       1 UNK         0.0000 
     13 C13         4.3046   54.2036   18.9847 C.2       1 UNK         0.0000 
     14 S14         5.6244   55.1702   18.4202 S.3       1 UNK         0.0000 
     15 C15         6.2893   55.2369   20.0203 C.2       1 UNK         0.0000 
     16 Cl16        7.7586   56.0931   20.2892 Cl        1 UNK         0.0000 
     17 Cl17        3.0916   53.6674   17.8940 Cl        1 UNK         0.0000 
     18 Cl18        3.9078   54.0941   30.0808 Cl        1 UNK         0.0000 
     19 H19         3.1839   54.5965   25.3411 H         1 UNK         0.0000 
     20 H20         2.4540   54.4448   27.6677 H         1 UNK         0.0000 
     21 H21         6.5275   53.9716   28.9390 H         1 UNK         0.0000 
     22 H22         7.2805   54.0796   26.6040 H         1 UNK         0.0000 
     23 H23         6.7814   54.5729   24.4169 H         1 UNK         0.0000 
     24 H24         6.8148   54.8745   22.4835 H         1 UNK         0.0000 
     25 H25         3.6436   53.3688   20.8688 H         1 UNK         0.0000 
@<TRIPOS>BOND
     1    1    6 ar   
     2    1    2 ar   
     3    1   19 1    
     4    2    3 ar   
     5    2   20 1    
     6    3    4 ar   
     7    3   18 1    
     8    4    5 ar   
     9    4   21 1    
    10    5    6 ar   
    11    5   22 1    
    12    6    7 1    
    13    7    8 am   BACKBONE|DICT|INTERRES
    14    7   23 1    
    15    8    9 2    
    16    8   10 am   BACKBONE|DICT|INTERRES
    17   10   11 1    
    18   10   24 1    
    19   11   15 2    
    20   11   12 1    
    21   12   13 2    
    22   12   25 1    
    23   13   14 1    
    24   13   17 1    
    25   14   15 1    
    26   15   16 1    
@<TRIPOS>SUBSTRUCTURE
     1 UNK         1 GROUP             0       ****    0 ROOT    
