@<TRIPOS>MOLECULE
ZINC08867629_817
52   55    1
SMALL
USER_CHARGES


@<TRIPOS>ATOM
      1 C1          5.2828   57.9561   15.4039 C.3       1 UNK         0.0000 
      2 O2          5.3614   57.2507   16.6396 O.3       1 UNK         0.0000 
      3 C3          6.5966   57.0401   17.2260 C.ar      1 UNK         0.0000 
      4 C4          7.8157   57.3466   16.6043 C.ar      1 UNK         0.0000 
      5 C5          9.0187   57.1309   17.2675 C.ar      1 UNK         0.0000 
      6 C6          9.0171   56.6203   18.5623 C.ar      1 UNK         0.0000 
      7 C7          7.8244   56.3011   19.2209 C.ar      1 UNK         0.0000 
      8 C8          6.6098   56.4890   18.5202 C.ar      1 UNK         0.0000 
      9 O9          5.4038   56.1800   19.1041 O.3       1 UNK         0.0000 
     10 C10         4.8672   54.9169   18.7219 C.3       1 UNK         0.0000 
     11 C11         7.9205   55.8211   20.6174 C.2       1 UNK         0.0000 
     12 N12         6.9130   55.5250   21.3269 N.2       1 UNK         0.0000 
     13 N13         7.1034   55.1568   22.6637 N.pl3     1 UNK         0.0000 
     14 C14         6.0743   54.6999   23.4550 C.2       1 UNK         0.0000 
     15 N15         4.9140   54.2942   23.0117 N.2       1 UNK         0.0000 
     16 C16         4.0634   53.9712   23.9711 C.2       1 UNK         0.0000 
     17 C17         4.5992   54.0982   25.2677 C.2       1 UNK         0.0000 
     18 S18         6.2516   54.6925   25.1710 S.3       1 UNK         0.0000 
     19 N19         3.9505   53.7650   26.4471 N.am      1 UNK         0.0000 
     20 C20         4.4503   53.6634   27.6953 C.2       1 UNK         0.0000 
     21 O21         5.6255   53.8361   28.0241 O.2       1 UNK         0.0000 
     22 C22         3.4435   53.2864   28.6548 C.2       1 UNK         0.0000 
     23 C23         2.0695   53.5631   28.6409 C.2       1 UNK         0.0000 
     24 C24         1.4017   53.0971   29.7778 C.2       1 UNK         0.0000 
     25 C25         2.2585   52.4971   30.6885 C.2       1 UNK         0.0000 
     26 S26         3.9019   52.4971   30.1329 S.3       1 UNK         0.0000 
     27 C27         2.7058   53.4480   23.5832 C.ar      1 UNK         0.0000 
     28 C28         1.5860   53.6681   24.3968 C.ar      1 UNK         0.0000 
     29 C29         0.3499   53.1269   24.0593 C.ar      1 UNK         0.0000 
     30 C30         0.2193   52.3684   22.8992 C.ar      1 UNK         0.0000 
     31 C31         1.3128   52.1649   22.0620 C.ar      1 UNK         0.0000 
     32 C32         2.5502   52.7047   22.4029 C.ar      1 UNK         0.0000 
     33 H33         4.2345   58.0808   15.1320 H         1 UNK         0.0000 
     34 H34         5.7207   58.9548   15.4796 H         1 UNK         0.0000 
     35 H35         5.7697   57.4074   14.5947 H         1 UNK         0.0000 
     36 H36         7.8510   57.7539   15.6049 H         1 UNK         0.0000 
     37 H37         9.9554   57.3696   16.7811 H         1 UNK         0.0000 
     38 H38         9.9678   56.4918   19.0554 H         1 UNK         0.0000 
     39 H39         3.9331   54.7421   19.2576 H         1 UNK         0.0000 
     40 H40         4.6510   54.8709   17.6533 H         1 UNK         0.0000 
     41 H41         5.5527   54.1067   18.9736 H         1 UNK         0.0000 
     42 H42         8.9325   55.7494   21.0133 H         1 UNK         0.0000 
     43 H43         8.0618   55.2338   22.9985 H         1 UNK         0.0000 
     44 H44         2.9982   53.4527   26.3413 H         1 UNK         0.0000 
     45 H45         1.5643   54.0866   27.8404 H         1 UNK         0.0000 
     46 H46         0.3402   53.2127   29.9422 H         1 UNK         0.0000 
     47 H47         2.0015   52.0931   31.6572 H         1 UNK         0.0000 
     48 H48         1.6619   54.2614   25.2922 H         1 UNK         0.0000 
     49 H49        -0.5094   53.2960   24.6926 H         1 UNK         0.0000 
     50 H50        -0.7387   51.9435   22.6419 H         1 UNK         0.0000 
     51 H51         1.2054   51.5854   21.1570 H         1 UNK         0.0000 
     52 H52         3.3923   52.5267   21.7495 H         1 UNK         0.0000 
@<TRIPOS>BOND
     1    1    2 1    
     2    1   33 1    
     3    1   34 1    
     4    1   35 1    
     5    2    3 1    
     6    3    8 ar   
     7    3    4 ar   
     8    4    5 ar   
     9    4   36 1    
    10    5    6 ar   
    11    5   37 1    
    12    6    7 ar   
    13    6   38 1    
    14    7    8 ar   
    15    7   11 1    
    16    8    9 1    
    17    9   10 1    
    18   10   39 1    
    19   10   40 1    
    20   10   41 1    
    21   11   12 2    
    22   11   42 1    
    23   12   13 1    
    24   13   14 1    
    25   13   43 1    
    26   14   18 1    
    27   14   15 2    
    28   15   16 1    
    29   16   17 2    
    30   16   27 1    
    31   17   18 1    
    32   17   19 am   BACKBONE|DICT|INTERRES
    33   19   20 am   BACKBONE|DICT|INTERRES
    34   19   44 1    
    35   20   21 2    
    36   20   22 1    
    37   22   26 1    
    38   22   23 2    
    39   23   24 1    
    40   23   45 1    
    41   24   25 2    
    42   24   46 1    
    43   25   26 1    
    44   25   47 1    
    45   27   32 ar   
    46   27   28 ar   
    47   28   29 ar   
    48   28   48 1    
    49   29   30 ar   
    50   29   49 1    
    51   30   31 ar   
    52   30   50 1    
    53   31   32 ar   
    54   31   51 1    
    55   32   52 1    
@<TRIPOS>SUBSTRUCTURE
     1 UNK         1 GROUP             0       ****    0 ROOT    
