@<TRIPOS>MOLECULE
ZINC09345498_4407
43   46    1
SMALL
USER_CHARGES


@<TRIPOS>ATOM
      1 C1          2.7235   53.5689   27.9585 C.3       1 UNK         0.0000 
      2 O2          4.0975   53.8299   27.6822 O.3       1 UNK         0.0000 
      3 C3          4.4995   54.0500   26.3782 C.ar      1 UNK         0.0000 
      4 C4          3.6221   54.0974   25.2846 C.ar      1 UNK         0.0000 
      5 C5          4.1049   54.3158   23.9983 C.ar      1 UNK         0.0000 
      6 C6          5.4751   54.4955   23.7576 C.ar      1 UNK         0.0000 
      7 C7          6.3490   54.4430   24.8502 C.ar      1 UNK         0.0000 
      8 C8          5.8689   54.2150   26.1422 C.ar      1 UNK         0.0000 
      9 Br9         7.1043   54.0976   27.5878 Br        1 UNK         0.0000 
     10 C10         5.9614   54.7909   22.3847 C.2       1 UNK         0.0000 
     11 C11         7.0750   55.4749   22.0816 C.2       1 UNK         0.0000 
     12 S12         7.2266   55.6969   20.3380 S.3       1 UNK         0.0000 
     13 C13         5.7108   54.7602   20.0409 C.2       1 UNK         0.0000 
     14 N14         5.2467   54.3900   21.2808 N.pl3     1 UNK         0.0000 
     15 N15         5.1474   54.4621   18.9342 N.2       1 UNK         0.0000 
     16 C16         5.5682   54.8676   17.6880 C.2       1 UNK         0.0000 
     17 S17         5.2026   56.3990   17.0928 S.2       1 UNK         0.0000 
     18 N18         6.2477   53.8330   17.1020 N.am      1 UNK         0.0000 
     19 C19         6.8039   53.7109   15.8722 C.2       1 UNK         0.0000 
     20 O20         6.5484   54.4087   14.8865 O.2       1 UNK         0.0000 
     21 C21         7.7843   52.6590   15.7936 C.2       1 UNK         0.0000 
     22 C22         8.6989   52.1927   16.7388 C.2       1 UNK         0.0000 
     23 C23         9.4935   51.2034   16.0881 C.ar      1 UNK         0.0000 
     24 C24        10.5462   50.3507   16.4534 C.ar      1 UNK         0.0000 
     25 C25        11.1077   49.5288   15.4730 C.ar      1 UNK         0.0000 
     26 C26        10.6319   49.5301   14.1589 C.ar      1 UNK         0.0000 
     27 C27         9.5715   50.3511   13.7705 C.ar      1 UNK         0.0000 
     28 C28         9.0261   51.1814   14.7539 C.ar      1 UNK         0.0000 
     29 O29         8.0074   52.0758   14.5745 O.3       1 UNK         0.0000 
     30 H30         2.5967   53.3960   29.0270 H         1 UNK         0.0000 
     31 H31         2.0909   54.4155   27.6831 H         1 UNK         0.0000 
     32 H32         2.3750   52.6731   27.4358 H         1 UNK         0.0000 
     33 H33         2.5566   53.9726   25.4158 H         1 UNK         0.0000 
     34 H34         3.3941   54.3706   23.1869 H         1 UNK         0.0000 
     35 H35         7.4125   54.5641   24.6983 H         1 UNK         0.0000 
     36 H36         7.7979   55.9068   22.7571 H         1 UNK         0.0000 
     37 H37         6.3679   53.0329   17.7052 H         1 UNK         0.0000 
     38 H38         8.7949   52.5330   17.7555 H         1 UNK         0.0000 
     39 H39        10.9252   50.3442   17.4651 H         1 UNK         0.0000 
     40 H40        11.9313   48.8776   15.7294 H         1 UNK         0.0000 
     41 H41        11.1016   48.8905   13.4247 H         1 UNK         0.0000 
     42 H42         9.2081   50.3578   12.7535 H         1 UNK         0.0000 
     43 H43         4.4005   53.8469   21.3405 H         1 UNK         0.0000 
@<TRIPOS>BOND
     1    1    2 1    
     2    1   30 1    
     3    1   31 1    
     4    1   32 1    
     5    2    3 1    
     6    3    8 ar   
     7    3    4 ar   
     8    4    5 ar   
     9    4   33 1    
    10    5    6 ar   
    11    5   34 1    
    12    6    7 ar   
    13    6   10 1    
    14    7    8 ar   
    15    7   35 1    
    16    8    9 1    
    17   10   14 1    
    18   10   11 2    
    19   11   12 1    
    20   11   36 1    
    21   12   13 1    
    22   13   14 1    
    23   13   15 2    
    24   14   43 1    
    25   15   16 1    
    26   16   17 2    
    27   16   18 am   BACKBONE|DICT|INTERRES
    28   18   19 am   BACKBONE|DICT|INTERRES
    29   18   37 1    
    30   19   20 2    
    31   19   21 1    
    32   21   29 1    
    33   21   22 2    
    34   22   23 1    
    35   22   38 1    
    36   23   28 ar   
    37   23   24 ar   
    38   24   25 ar   
    39   24   39 1    
    40   25   26 ar   
    41   25   40 1    
    42   26   27 ar   
    43   26   41 1    
    44   27   28 ar   
    45   27   42 1    
    46   28   29 1    
@<TRIPOS>SUBSTRUCTURE
     1 UNK         1 GROUP             0       ****    0 ROOT    
