@<TRIPOS>MOLECULE
ZINC20477457_5235
55   58    1
SMALL
USER_CHARGES


@<TRIPOS>ATOM
      1 C1          1.1065   53.8318   23.2997 C.3       1 UNK         0.0000 
      2 O2          2.1296   54.0970   24.2498 O.3       1 UNK         0.0000 
      3 C3          3.4426   54.2012   23.8243 C.ar      1 UNK         0.0000 
      4 C4          3.8383   54.0799   22.4821 C.ar      1 UNK         0.0000 
      5 C5          5.1781   54.2273   22.1061 C.ar      1 UNK         0.0000 
      6 C6          6.1402   54.4639   23.0923 C.ar      1 UNK         0.0000 
      7 C7          5.7656   54.5750   24.4312 C.ar      1 UNK         0.0000 
      8 C8          4.4212   54.4565   24.7987 C.ar      1 UNK         0.0000 
      9 O9          4.0686   54.6006   26.1204 O.3       1 UNK         0.0000 
     10 C10         3.6925   53.3934   26.7828 C.3       1 UNK         0.0000 
     11 C11         2.7265   53.6850   27.9230 C.ar      1 UNK         0.0000 
     12 C12         2.7941   54.8837   28.6413 C.ar      1 UNK         0.0000 
     13 C13         1.9028   55.1316   29.6826 C.ar      1 UNK         0.0000 
     14 C14         0.9490   54.1756   30.0318 C.ar      1 UNK         0.0000 
     15 C15         0.8668   52.9766   29.3128 C.ar      1 UNK         0.0000 
     16 C16         1.7576   52.7366   28.2660 C.ar      1 UNK         0.0000 
     17 Cl17       -0.3239   51.7786   29.6846 Cl        1 UNK         0.0000 
     18 Cl18       -0.0955   54.4964   31.3673 Cl        1 UNK         0.0000 
     19 Br19        7.1009   54.8971   25.7502 Br        1 UNK         0.0000 
     20 C20         5.6016   54.0927   20.6483 C.3       1 UNK         0.0000 
     21 N21         4.7043   54.7890   19.7324 N.3       1 UNK         0.0000 
     22 C22         5.0563   54.6471   18.3225 C.3       1 UNK         0.0000 
     23 H23         6.0902   54.9909   18.2481 H         1 UNK         0.0000 
     24 C24         4.1955   55.5979   17.4351 C.3       1 UNK         0.0000 
     25 N25         3.4863   54.7791   16.3214 N.4       1 UNK         0.0000 
     26 C26         4.5574   54.1215   15.4096 C.3       1 UNK         0.0000 
     27 C27         5.4624   53.2115   16.2808 C.3       1 UNK         0.0000 
     28 C28         4.9789   53.1987   17.7510 C.3       1 UNK         0.0000 
     29 C29         3.5100   52.7051   17.7663 C.3       1 UNK         0.0000 
     30 C30         2.6004   53.6781   16.9707 C.3       1 UNK         0.0000 
     31 H31         0.1363   53.8561   23.7964 H         1 UNK         0.0000 
     32 H32         1.1046   54.5859   22.5120 H         1 UNK         0.0000 
     33 H33         1.2283   52.8445   22.8499 H         1 UNK         0.0000 
     34 H34         3.1070   53.8767   21.7161 H         1 UNK         0.0000 
     35 H35         7.1837   54.5647   22.8275 H         1 UNK         0.0000 
     36 H36         3.2083   52.6951   26.0989 H         1 UNK         0.0000 
     37 H37         4.5821   52.8988   27.1763 H         1 UNK         0.0000 
     38 H38         3.5390   55.6249   28.3993 H         1 UNK         0.0000 
     39 H39         1.9605   56.0627   30.2285 H         1 UNK         0.0000 
     40 H40         1.6897   51.8071   27.7168 H         1 UNK         0.0000 
     41 H41         5.6125   53.0257   20.4260 H         1 UNK         0.0000 
     42 H42         6.6092   54.4963   20.5248 H         1 UNK         0.0000 
     43 H43         3.7486   54.4892   19.8769 H         1 UNK         0.0000 
     44 H44         4.8037   56.3605   16.9436 H         1 UNK         0.0000 
     45 H45         3.4162   56.1221   17.9914 H         1 UNK         0.0000 
     46 H46         5.1117   54.9322   14.9323 H         1 UNK         0.0000 
     47 H47         4.0189   53.5622   14.6415 H         1 UNK         0.0000 
     48 H48         5.4559   52.1940   15.8823 H         1 UNK         0.0000 
     49 H49         6.4983   53.5472   16.2240 H         1 UNK         0.0000 
     50 H50         5.6073   52.5089   18.3188 H         1 UNK         0.0000 
     51 H51         3.1514   52.6072   18.7910 H         1 UNK         0.0000 
     52 H52         3.4507   51.6996   17.3414 H         1 UNK         0.0000 
     53 H53         1.8814   54.1930   17.6114 H         1 UNK         0.0000 
     54 H54         2.0610   53.1793   16.1643 H         1 UNK         0.0000 
     55 H55         2.9053   55.3984   15.7709 H         1 UNK         0.0000 
@<TRIPOS>BOND
     1    1    2 1    
     2    1   31 1    
     3    1   32 1    
     4    1   33 1    
     5    2    3 1    
     6    3    8 ar   
     7    3    4 ar   
     8    4    5 ar   
     9    4   34 1    
    10    5    6 ar   
    11    5   20 1    
    12    6    7 ar   
    13    6   35 1    
    14    7    8 ar   
    15    7   19 1    
    16    8    9 1    
    17    9   10 1    
    18   10   11 1    
    19   10   36 1    
    20   10   37 1    
    21   11   16 ar   
    22   11   12 ar   
    23   12   13 ar   
    24   12   38 1    
    25   13   14 ar   
    26   13   39 1    
    27   14   15 ar   
    28   14   18 1    
    29   15   16 ar   
    30   15   17 1    
    31   16   40 1    
    32   20   21 1    
    33   20   41 1    
    34   20   42 1    
    35   21   22 1    
    36   21   43 1    
    37   22   23 1    
    38   22   28 1    
    39   22   24 1    
    40   24   25 1    
    41   24   44 1    
    42   24   45 1    
    43   25   30 1    
    44   25   26 1    
    45   25   55 1    
    46   26   27 1    
    47   26   46 1    
    48   26   47 1    
    49   27   28 1    
    50   27   48 1    
    51   27   49 1    
    52   28   29 1    
    53   28   50 1    
    54   29   30 1    
    55   29   51 1    
    56   29   52 1    
    57   30   53 1    
    58   30   54 1    
@<TRIPOS>SUBSTRUCTURE
     1 UNK         1 GROUP             0       ****    0 ROOT    
