@<TRIPOS>MOLECULE
ZINC14467991_3919
53   56    1
SMALL
USER_CHARGES


@<TRIPOS>ATOM
      1 C1          4.2271   53.9330   24.0006 C.3       1 UNK         0.0000 
      2 C2          4.6856   53.7019   22.5471 C.3       1 UNK         0.0000 
      3 C3          3.5449   53.7717   21.4995 C.3       1 UNK         0.0000 
      4 H4          3.1490   54.7873   21.5573 H         1 UNK         0.0000 
      5 C5          4.0701   53.5924   20.0591 C.3       1 UNK         0.0000 
      6 N6          2.3969   52.9034   21.7975 N.am      1 UNK         0.0000 
      7 C7          2.4018   51.5634   21.8894 C.2       1 UNK         0.0000 
      8 O8          3.4076   50.8967   21.6530 O.2       1 UNK         0.0000 
      9 C9          1.1315   50.9113   22.3927 C.ar      1 UNK         0.0000 
     10 C10         1.1756   49.5960   22.8685 C.ar      1 UNK         0.0000 
     11 C11         0.0401   48.9887   23.3924 C.ar      1 UNK         0.0000 
     12 C12        -1.1700   49.6791   23.4351 C.ar      1 UNK         0.0000 
     13 C13        -1.2512   51.0082   22.9735 C.ar      1 UNK         0.0000 
     14 C14        -0.0958   51.5924   22.4376 C.ar      1 UNK         0.0000 
     15 C15        -2.5696   51.7851   23.0379 C.3       1 UNK         0.0000 
     16 H16        -2.8503   51.9847   22.0025 H         1 UNK         0.0000 
     17 C17        -2.5343   53.0991   23.7869 C.2       1 UNK         0.0000 
     18 C18        -3.6736   53.3001   24.4747 C.2       1 UNK         0.0000 
     19 C19        -4.6141   52.1235   24.3367 C.3       1 UNK         0.0000 
     20 C20        -3.7086   51.0289   23.7487 C.3       1 UNK         0.0000 
     21 H21        -4.2756   50.4938   22.9832 H         1 UNK         0.0000 
     22 C22        -3.2258   49.9436   24.7652 C.3       1 UNK         0.0000 
     23 H23        -4.0780   49.2888   24.9449 H         1 UNK         0.0000 
     24 N24        -2.2468   49.0746   24.1072 N.pl3     1 UNK         0.0000 
     25 C25        -2.8058   50.4691   26.1580 C.ar      1 UNK         0.0000 
     26 C26        -1.5011   50.9248   26.4005 C.ar      1 UNK         0.0000 
     27 C27        -1.1027   51.3251   27.6728 C.ar      1 UNK         0.0000 
     28 C28        -2.0117   51.2969   28.7236 C.ar      1 UNK         0.0000 
     29 C29        -3.3267   50.8953   28.5030 C.ar      1 UNK         0.0000 
     30 C30        -3.7176   50.4567   27.2321 C.ar      1 UNK         0.0000 
     31 O31        -5.0025   50.0049   27.0626 O.3       1 UNK         0.0000 
     32 Cl32       -4.4459   50.8962   29.8254 Cl        1 UNK         0.0000 
     33 Cl33        0.5223   51.8280   27.9528 Cl        1 UNK         0.0000 
     34 H34         5.0759   53.8972   24.6840 H         1 UNK         0.0000 
     35 H35         3.5103   53.1787   24.3262 H         1 UNK         0.0000 
     36 H36         3.7491   54.9034   24.1131 H         1 UNK         0.0000 
     37 H37         5.4435   54.4467   22.3023 H         1 UNK         0.0000 
     38 H38         5.1859   52.7343   22.4836 H         1 UNK         0.0000 
     39 H39         4.9174   54.2532   19.8734 H         1 UNK         0.0000 
     40 H40         4.4258   52.5787   19.8704 H         1 UNK         0.0000 
     41 H41         3.3109   53.8410   19.3176 H         1 UNK         0.0000 
     42 H42         1.5137   53.3765   21.8972 H         1 UNK         0.0000 
     43 H43         2.1014   49.0396   22.8621 H         1 UNK         0.0000 
     44 H44         0.1141   47.9870   23.7926 H         1 UNK         0.0000 
     45 H45        -0.1680   52.6035   22.0669 H         1 UNK         0.0000 
     46 H46        -1.7164   53.7979   23.6889 H         1 UNK         0.0000 
     47 H47        -3.9291   54.1740   25.0565 H         1 UNK         0.0000 
     48 H48        -5.4510   52.3606   23.6818 H         1 UNK         0.0000 
     49 H49        -5.0573   51.8435   25.2899 H         1 UNK         0.0000 
     50 H50        -2.0876   48.2095   24.6035 H         1 UNK         0.0000 
     51 H51        -0.7614   50.9487   25.6192 H         1 UNK         0.0000 
     52 H52        -1.6946   51.5795   29.7161 H         1 UNK         0.0000 
     53 H53        -5.4308   49.8640   27.9108 H         1 UNK         0.0000 
@<TRIPOS>BOND
     1    1    2 1    
     2    1   34 1    
     3    1   35 1    
     4    1   36 1    
     5    2    3 1    
     6    2   37 1    
     7    2   38 1    
     8    3    4 1    
     9    3    5 1    
    10    3    6 1    
    11    5   39 1    
    12    5   40 1    
    13    5   41 1    
    14    6    7 am   BACKBONE|DICT|INTERRES
    15    6   42 1    
    16    7    8 2    
    17    7    9 1    
    18    9   14 ar   
    19    9   10 ar   
    20   10   11 ar   
    21   10   43 1    
    22   11   12 ar   
    23   11   44 1    
    24   12   24 1    
    25   12   13 ar   
    26   13   14 ar   
    27   13   15 1    
    28   14   45 1    
    29   15   16 1    
    30   15   20 1    
    31   15   17 1    
    32   17   18 2    
    33   17   46 1    
    34   18   19 1    
    35   18   47 1    
    36   19   20 1    
    37   19   48 1    
    38   19   49 1    
    39   20   21 1    
    40   20   22 1    
    41   22   23 1    
    42   22   24 1    
    43   22   25 1    
    44   24   50 1    
    45   25   30 ar   
    46   25   26 ar   
    47   26   27 ar   
    48   26   51 1    
    49   27   28 ar   
    50   27   33 1    
    51   28   29 ar   
    52   28   52 1    
    53   29   30 ar   
    54   29   32 1    
    55   30   31 1    
    56   31   53 1    
@<TRIPOS>SUBSTRUCTURE
     1 UNK         1 GROUP             0       ****    0 ROOT    
