ZINC64928186_5070
                    3D
 Schrodinger Suite 2024-2.
 61 64  0  0  1  0            999 V2000
   -8.4416   54.7878   27.1339 C   0  0  0  0  0  0
   -7.3836   53.7410   27.5315 C   0  0  0  0  0  0
   -6.1365   53.7849   26.6399 C   0  0  0  0  0  0
   -5.5501   54.8546   26.4789 O   0  0  0  0  0  0
   -5.7712   52.6009   26.1075 N   0  0  0  0  0  0
   -4.7459   52.2927   25.1988 C   0  0  0  0  0  0
   -4.6979   50.9608   24.7851 C   0  0  0  0  0  0
   -3.7743   50.5516   23.8320 C   0  0  0  0  0  0
   -2.8924   51.4817   23.2801 C   0  0  0  0  0  0
   -2.8969   52.8057   23.7202 C   0  0  0  0  0  0
   -3.8252   53.2134   24.6744 C   0  0  0  0  0  0
   -1.7638   50.9794   21.9831 S   0  0  0  0  0  0
   -2.1985   49.6502   21.5403 O   0  0  0  0  0  0
   -1.6942   52.0951   21.0312 O   0  0  0  0  0  0
   -0.1850   50.7807   22.7658 N   0  0  0  0  0  0
   -0.0554   49.9095   23.9547 C   0  0  0  0  0  0
   -0.0945   50.7659   25.2308 C   0  0  0  0  0  0
    0.8872   51.9438   25.1539 C   0  0  0  0  0  0
    1.3921   52.5069   26.3336 C   0  0  0  0  0  0
    2.2997   53.5617   26.2991 C   0  0  0  0  0  0
    2.6873   54.0967   25.0766 C   0  0  0  0  0  0
    2.1571   53.5844   23.8986 C   0  0  0  0  0  0
    1.3017   52.4750   23.9048 C   0  0  0  0  0  0
    0.8778   51.8039   22.5848 C   0  0  1  0  0  0
    0.4943   52.5663   21.9055 H   0  0  0  0  0  0
    2.0516   51.0583   21.8769 C   0  0  0  0  0  0
    2.8714   51.9887   20.9761 C   0  0  0  0  0  0
    2.4353   52.2657   19.8590 O   0  0  0  0  0  0
    4.0031   52.4956   21.5113 N   0  0  0  0  0  0
    4.8603   53.4488   20.9442 C   0  0  0  0  0  0
    5.1074   53.5327   19.5675 C   0  0  0  0  0  0
    5.9748   54.5056   19.0807 C   0  0  0  0  0  0
    6.5990   55.3833   19.9657 C   0  0  0  0  0  0
    6.3658   55.2968   21.3369 C   0  0  0  0  0  0
    5.5016   54.3221   21.8268 C   0  0  0  0  0  0
    7.6828   56.5805   19.3596 Cl  0  0  0  0  0  0
   -9.3284   54.6841   27.7661 H   0  0  0  0  0  0
   -8.7703   54.6697   26.0990 H   0  0  0  0  0  0
   -8.0776   55.8072   27.2810 H   0  0  0  0  0  0
   -7.0668   53.9131   28.5623 H   0  0  0  0  0  0
   -7.8405   52.7479   27.5204 H   0  0  0  0  0  0
   -6.3401   51.8105   26.3699 H   0  0  0  0  0  0
   -5.3898   50.2312   25.1832 H   0  0  0  0  0  0
   -3.7668   49.5202   23.5056 H   0  0  0  0  0  0
   -2.1979   53.5244   23.3101 H   0  0  0  0  0  0
   -3.8194   54.2482   24.9772 H   0  0  0  0  0  0
   -0.8392   49.1520   23.9403 H   0  0  0  0  0  0
    0.9113   49.4084   23.8787 H   0  0  0  0  0  0
   -1.0854   51.2041   25.3468 H   0  0  0  0  0  0
    0.0974   50.1522   26.1100 H   0  0  0  0  0  0
    1.0832   52.1087   27.2897 H   0  0  0  0  0  0
    2.6912   53.9699   27.2191 H   0  0  0  0  0  0
    3.3770   54.9250   25.0423 H   0  0  0  0  0  0
    2.4513   54.0351   22.9615 H   0  0  0  0  0  0
    2.7051   50.5885   22.6133 H   0  0  0  0  0  0
    1.6929   50.2570   21.2267 H   0  0  0  0  0  0
    4.1777   52.2687   22.4757 H   0  0  0  0  0  0
    4.6520   52.8410   18.8741 H   0  0  0  0  0  0
    6.1676   54.5670   18.0197 H   0  0  0  0  0  0
    6.8618   55.9737   22.0168 H   0  0  0  0  0  0
    5.3244   54.2610   22.8909 H   0  0  0  0  0  0
  1  2  1  0  0  0
  1 37  1  0  0  0
  1 38  1  0  0  0
  1 39  1  0  0  0
  2  3  1  0  0  0
  2 40  1  0  0  0
  2 41  1  0  0  0
  3  4  2  0  0  0
  3  5  1  0  0  0
  5  6  1  0  0  0
  5 42  1  0  0  0
  6 11  2  0  0  0
  6  7  1  0  0  0
  7  8  2  0  0  0
  7 43  1  0  0  0
  8  9  1  0  0  0
  8 44  1  0  0  0
  9 10  2  0  0  0
  9 12  1  0  0  0
 10 11  1  0  0  0
 10 45  1  0  0  0
 11 46  1  0  0  0
 12 13  2  0  0  0
 12 14  2  0  0  0
 12 15  1  0  0  0
 15 24  1  0  0  0
 15 16  1  0  0  0
 16 17  1  0  0  0
 16 47  1  0  0  0
 16 48  1  0  0  0
 17 18  1  0  0  0
 17 49  1  0  0  0
 17 50  1  0  0  0
 18 23  2  0  0  0
 18 19  1  0  0  0
 19 20  2  0  0  0
 19 51  1  0  0  0
 20 21  1  0  0  0
 20 52  1  0  0  0
 21 22  2  0  0  0
 21 53  1  0  0  0
 22 23  1  0  0  0
 22 54  1  0  0  0
 23 24  1  0  0  0
 24 25  1  0  0  0
 24 26  1  0  0  0
 26 27  1  0  0  0
 26 55  1  0  0  0
 26 56  1  0  0  0
 27 28  2  0  0  0
 27 29  1  0  0  0
 29 30  1  0  0  0
 29 57  1  0  0  0
 30 35  2  0  0  0
 30 31  1  0  0  0
 31 32  2  0  0  0
 31 58  1  0  0  0
 32 33  1  0  0  0
 32 59  1  0  0  0
 33 34  2  0  0  0
 33 36  1  0  0  0
 34 35  1  0  0  0
 34 60  1  0  0  0
 35 61  1  0  0  0
M  END
> <i_i_glide_confnum>
8

> <i_i_glide_lignum>
5071

> <i_i_glide_posenum>
125

> <i_i_glide_rotatable_bonds>
9

> <i_m_Source_File_Index>
1075

> <b_m_subgroup_collapsed>
0

> <r_i_docking_score>
-4.20014

> <r_i_glide_ecoul>
-2.6153

> <r_i_glide_eff_state_penalty>
0

> <r_i_glide_einternal>
6.26127

> <r_i_glide_emodel>
-53.0124

> <r_i_glide_energy>
-43.929

> <r_i_glide_erotb>
0.54728

> <r_i_glide_esite>
-0.0300699

> <r_i_glide_evdw>
-41.3137

> <r_i_glide_gscore>
-4.20014

> <r_i_glide_hbond>
-0.32

> <r_i_glide_ligand_efficiency>
-0.120004

> <r_i_glide_ligand_efficiency_ln>
-0.922025

> <r_i_glide_ligand_efficiency_sa>
-0.392541

> <r_i_glide_lipo>
-2.16103

> <r_i_glide_metal>
0

> <r_i_glide_rewards>
0.221657

> <s_i_glide_gridfile>
wee1_glide-grid

> <s_m_Source_File>
wee1_decoys_glide_SP.sdf

> <s_m_Source_Path>
/Users/zhangxujun/Desktop

> <s_m_entry_id>
1350

> <s_m_entry_name>
wee1_decoys_glide_SP.1075

> <s_m_subgroup_title>
wee1_decoys_glide_SP

> <s_m_subgroupid>
wee1_decoys_glide_SP


$$$$
