@<TRIPOS>MOLECULE
ZINC66907955_2582
41   42    1
SMALL
USER_CHARGES


@<TRIPOS>ATOM
      1 C1          3.2095   53.9468   22.1096 C.3       1 UNK         0.0000 
      2 C2          4.6490   53.9266   22.6849 C.3       1 UNK         0.0000 
      3 H3          5.0421   52.9240   22.4973 H         1 UNK         0.0000 
      4 C4          4.7403   54.0982   24.2133 C.ar      1 UNK         0.0000 
      5 C5          6.0007   54.2123   24.8209 C.ar      1 UNK         0.0000 
      6 C6          6.1108   54.3350   26.2041 C.ar      1 UNK         0.0000 
      7 C7          4.9611   54.3483   26.9880 C.ar      1 UNK         0.0000 
      8 C8          3.7044   54.2489   26.4023 C.ar      1 UNK         0.0000 
      9 C9          3.5936   54.1240   25.0216 C.ar      1 UNK         0.0000 
     10 Br10        5.1017   54.4950   28.8782 Br        1 UNK         0.0000 
     11 N11         5.5354   54.8682   21.9923 N.am      1 UNK         0.0000 
     12 C12         5.9045   54.8118   20.7057 C.2       1 UNK         0.0000 
     13 O13         5.5049   53.9493   19.9209 O.2       1 UNK         0.0000 
     14 N14         6.8020   55.7750   20.4137 N.am      1 UNK         0.0000 
     15 N15         7.3150   55.8997   19.1150 N.am      1 UNK         0.0000 
     16 C16         6.5515   56.3929   18.1141 C.2       1 UNK         0.0000 
     17 O17         5.4391   56.8984   18.2749 O.2       1 UNK         0.0000 
     18 C18         7.1303   56.2665   16.6999 C.3       1 UNK         0.0000 
     19 C19         6.7946   54.9087   16.0825 C.ar      1 UNK         0.0000 
     20 C20         5.8263   54.8234   15.0740 C.ar      1 UNK         0.0000 
     21 C21         5.4911   53.5860   14.5219 C.ar      1 UNK         0.0000 
     22 C22         6.1243   52.4263   14.9702 C.ar      1 UNK         0.0000 
     23 C23         7.0986   52.5035   15.9656 C.ar      1 UNK         0.0000 
     24 C24         7.4367   53.7377   16.5195 C.ar      1 UNK         0.0000 
     25 F25         8.3913   53.7908   17.4786 F         1 UNK         0.0000 
     26 H26         2.5993   53.1489   22.5325 H         1 UNK         0.0000 
     27 H27         2.7120   54.8968   22.3036 H         1 UNK         0.0000 
     28 H28         3.1962   53.7944   21.0302 H         1 UNK         0.0000 
     29 H29         6.9034   54.1806   24.2269 H         1 UNK         0.0000 
     30 H30         7.0818   54.4028   26.6714 H         1 UNK         0.0000 
     31 H31         2.8173   54.2611   27.0178 H         1 UNK         0.0000 
     32 H32         2.6036   54.0423   24.6017 H         1 UNK         0.0000 
     33 H33         6.0151   55.5191   22.5941 H         1 UNK         0.0000 
     34 H34         6.9675   56.5824   20.9910 H         1 UNK         0.0000 
     35 H35         8.1645   55.3718   18.9666 H         1 UNK         0.0000 
     36 H36         8.2130   56.4039   16.7117 H         1 UNK         0.0000 
     37 H37         6.7315   57.0768   16.0868 H         1 UNK         0.0000 
     38 H38         5.3197   55.7135   14.7261 H         1 UNK         0.0000 
     39 H39         4.7340   53.5254   13.7533 H         1 UNK         0.0000 
     40 H40         5.8546   51.4656   14.5547 H         1 UNK         0.0000 
     41 H41         7.5854   51.6068   16.3215 H         1 UNK         0.0000 
@<TRIPOS>BOND
     1    1    2 1    
     2    1   26 1    
     3    1   27 1    
     4    1   28 1    
     5    2    3 1    
     6    2    4 1    
     7    2   11 1    
     8    4    9 ar   
     9    4    5 ar   
    10    5    6 ar   
    11    5   29 1    
    12    6    7 ar   
    13    6   30 1    
    14    7    8 ar   
    15    7   10 1    
    16    8    9 ar   
    17    8   31 1    
    18    9   32 1    
    19   11   12 am   BACKBONE|DICT|INTERRES
    20   11   33 1    
    21   12   13 2    
    22   12   14 am   BACKBONE|DICT|INTERRES
    23   14   15 1    
    24   14   34 1    
    25   15   16 am   BACKBONE|DICT|INTERRES
    26   15   35 1    
    27   16   17 2    
    28   16   18 1    
    29   18   19 1    
    30   18   36 1    
    31   18   37 1    
    32   19   24 ar   
    33   19   20 ar   
    34   20   21 ar   
    35   20   38 1    
    36   21   22 ar   
    37   21   39 1    
    38   22   23 ar   
    39   22   40 1    
    40   23   24 ar   
    41   23   41 1    
    42   24   25 1    
@<TRIPOS>SUBSTRUCTURE
     1 UNK         1 GROUP             0       ****    0 ROOT    
