ZINC14544578_2349
                    3D
 Schrodinger Suite 2024-2.
 61 66  0  0  1  0            999 V2000
    8.2052   56.3791   19.2559 C   0  0  0  0  0  0
    7.7160   57.4280   18.4821 C   0  0  0  0  0  0
    6.3999   57.4484   18.0217 C   0  0  0  0  0  0
    5.5885   56.3629   18.3672 C   0  0  0  0  0  0
    6.0533   55.2761   19.1726 C   0  0  0  0  0  0
    7.3886   55.3038   19.6068 C   0  0  0  0  0  0
    4.9521   54.3554   19.3540 C   0  0  0  0  0  0
    3.9061   54.8969   18.6222 C   0  0  0  0  0  0
    4.2790   56.0869   18.0514 N   0  0  0  0  0  0
    3.6535   56.6443   17.4855 H   0  0  0  0  0  0
    4.9528   53.0604   20.1620 C   0  0  1  0  0  0
    5.9043   52.5624   19.9871 H   0  0  0  0  0  0
    4.7717   53.2295   21.6917 C   0  0  1  0  0  0
    4.9123   52.2199   22.0888 H   0  0  0  0  0  0
    5.6752   54.1065   22.5528 C   0  0  0  0  0  0
    4.7895   54.2980   23.7756 C   0  0  0  0  0  0
    3.5016   54.0046   23.4978 C   0  0  0  0  0  0
    3.3610   53.6841   22.0226 C   0  0  2  0  0  0
    3.1074   54.5979   21.4815 H   0  0  0  0  0  0
    2.3990   52.6048   21.5362 C   0  0  0  0  0  0
    1.1719   52.3436   22.1570 C   0  0  0  0  0  0
    0.3237   51.3360   21.6897 C   0  0  0  0  0  0
    0.6973   50.5861   20.5702 C   0  0  0  0  0  0
    1.9002   50.8519   19.9168 C   0  0  0  0  0  0
    2.7367   51.8681   20.3768 C   0  0  0  0  0  0
    3.9448   52.0985   19.6825 N   0  0  0  0  0  0
   -1.2474   51.0139   22.4889 S   0  0  0  0  0  0
   -2.0951   52.1852   22.2375 O   0  0  0  0  0  0
   -1.6757   49.6774   22.0634 O   0  0  0  0  0  0
   -0.9333   50.9332   24.2180 N   0  0  0  0  0  0
   -0.7888   52.1752   25.0088 C   0  0  0  0  0  0
   -2.0071   52.3056   25.9480 C   0  0  0  0  0  0
   -1.9702   51.2737   27.0938 C   0  0  0  0  0  0
   -0.6182   51.2971   27.8402 C   0  0  0  0  0  0
    0.5833   51.1185   26.8943 C   0  0  0  0  0  0
    0.5680   52.1515   25.7492 C   0  0  0  0  0  0
    9.2342   56.3966   19.5869 H   0  0  0  0  0  0
    8.3719   58.2499   18.2337 H   0  0  0  0  0  0
    6.0338   58.2681   17.4201 H   0  0  0  0  0  0
    7.7897   54.5020   20.2011 H   0  0  0  0  0  0
    2.9011   54.5211   18.4802 H   0  0  0  0  0  0
    6.6037   53.5920   22.8019 H   0  0  0  0  0  0
    5.9355   55.0509   22.0707 H   0  0  0  0  0  0
    5.1813   54.6281   24.7271 H   0  0  0  0  0  0
    2.6597   54.0878   24.1695 H   0  0  0  0  0  0
    0.8865   52.9429   23.0039 H   0  0  0  0  0  0
    0.0535   49.8041   20.1908 H   0  0  0  0  0  0
    2.1795   50.2741   19.0474 H   0  0  0  0  0  0
    4.2642   51.4834   18.9330 H   0  0  0  0  0  0
   -0.3656   50.1376   24.5215 H   0  0  0  0  0  0
   -0.8022   53.0413   24.3451 H   0  0  0  0  0  0
   -2.0280   53.3019   26.3871 H   0  0  0  0  0  0
   -2.9367   52.2016   25.3871 H   0  0  0  0  0  0
   -2.7847   51.4591   27.7966 H   0  0  0  0  0  0
   -2.1427   50.2722   26.6963 H   0  0  0  0  0  0
   -0.5192   52.2337   28.3900 H   0  0  0  0  0  0
   -0.6032   50.5011   28.5850 H   0  0  0  0  0  0
    1.5107   51.2040   27.4606 H   0  0  0  0  0  0
    0.5741   50.1057   26.4853 H   0  0  0  0  0  0
    1.3858   51.9395   25.0590 H   0  0  0  0  0  0
    0.7661   53.1420   26.1643 H   0  0  0  0  0  0
  1  6  2  0  0  0
  1  2  1  0  0  0
  1 37  1  0  0  0
  2  3  2  0  0  0
  2 38  1  0  0  0
  3  4  1  0  0  0
  3 39  1  0  0  0
  4  9  1  0  0  0
  4  5  2  0  0  0
  5  6  1  0  0  0
  5  7  1  0  0  0
  6 40  1  0  0  0
  7  8  2  0  0  0
  7 11  1  0  0  0
  8  9  1  0  0  0
  8 41  1  0  0  0
  9 10  1  0  0  0
 11 12  1  0  0  0
 11 26  1  0  0  0
 11 13  1  0  0  0
 13 14  1  0  0  0
 13 18  1  0  0  0
 13 15  1  0  0  0
 15 16  1  0  0  0
 15 42  1  0  0  0
 15 43  1  0  0  0
 16 17  2  0  0  0
 16 44  1  0  0  0
 17 18  1  0  0  0
 17 45  1  0  0  0
 18 19  1  0  0  0
 18 20  1  0  0  0
 20 25  2  0  0  0
 20 21  1  0  0  0
 21 22  2  0  0  0
 21 46  1  0  0  0
 22 23  1  0  0  0
 22 27  1  0  0  0
 23 24  2  0  0  0
 23 47  1  0  0  0
 24 25  1  0  0  0
 24 48  1  0  0  0
 25 26  1  0  0  0
 26 49  1  0  0  0
 27 28  2  0  0  0
 27 29  2  0  0  0
 27 30  1  0  0  0
 30 31  1  0  0  0
 30 50  1  0  0  0
 31 36  1  0  0  0
 31 32  1  0  0  0
 31 51  1  0  0  0
 32 33  1  0  0  0
 32 52  1  0  0  0
 32 53  1  0  0  0
 33 34  1  0  0  0
 33 54  1  0  0  0
 33 55  1  0  0  0
 34 35  1  0  0  0
 34 56  1  0  0  0
 34 57  1  0  0  0
 35 36  1  0  0  0
 35 58  1  0  0  0
 35 59  1  0  0  0
 36 60  1  0  0  0
 36 61  1  0  0  0
M  END
> <i_i_glide_confnum>
189

> <i_i_glide_lignum>
2350

> <i_i_glide_posenum>
26

> <i_i_glide_rotatable_bonds>
4

> <i_m_Source_File_Index>
4450

> <b_m_subgroup_collapsed>
0

> <r_i_docking_score>
-3.47003

> <r_i_glide_ecoul>
-5.6809

> <r_i_glide_eff_state_penalty>
0

> <r_i_glide_einternal>
2.36408

> <r_i_glide_emodel>
-47.414

> <r_i_glide_energy>
-41.3982

> <r_i_glide_erotb>
0.399838

> <r_i_glide_esite>
-0.0877351

> <r_i_glide_evdw>
-35.7173

> <r_i_glide_gscore>
-3.47003

> <r_i_glide_hbond>
-0.16

> <r_i_glide_ligand_efficiency>
-0.108439

> <r_i_glide_ligand_efficiency_ln>
-0.777035

> <r_i_glide_ligand_efficiency_sa>
-0.344271

> <r_i_glide_lipo>
-1.30515

> <r_i_glide_metal>
0

> <r_i_glide_rewards>
0.321007

> <s_i_glide_gridfile>
wee1_glide-grid

> <s_m_Source_File>
wee1_decoys_glide_SP.sdf

> <s_m_Source_Path>
/Users/zhangxujun/Desktop

> <s_m_entry_id>
4725

> <s_m_entry_name>
wee1_decoys_glide_SP.4450

> <s_m_subgroup_title>
wee1_decoys_glide_SP

> <s_m_subgroupid>
wee1_decoys_glide_SP


$$$$
