@<TRIPOS>MOLECULE
ZINC03960083_3452
54   58    1
SMALL
USER_CHARGES


@<TRIPOS>ATOM
      1 C1          6.5454   54.7860   26.7090 C.ar      1 UNK         0.0000 
      2 C2          5.3053   54.5724   27.2921 C.ar      1 UNK         0.0000 
      3 C3          4.1997   54.2551   26.5096 C.ar      1 UNK         0.0000 
      4 C4          4.3248   54.0967   25.0944 C.ar      1 UNK         0.0000 
      5 C5          5.6132   54.2978   24.5096 C.ar      1 UNK         0.0000 
      6 C6          6.7044   54.6668   25.3324 C.ar      1 UNK         0.0000 
      7 C7          5.7884   54.0967   23.1237 C.ar      1 UNK         0.0000 
      8 C8          4.7387   53.6539   22.3298 C.ar      1 UNK         0.0000 
      9 C9          3.4600   53.4228   22.8817 C.ar      1 UNK         0.0000 
     10 C10         3.2345   53.6967   24.2654 C.ar      1 UNK         0.0000 
     11 C11         1.9142   53.5279   24.7671 C.ar      1 UNK         0.0000 
     12 C12         0.8970   53.0546   23.9496 C.ar      1 UNK         0.0000 
     13 C13         1.1330   52.6810   22.6251 C.ar      1 UNK         0.0000 
     14 C14         2.4062   52.8967   22.0907 C.ar      1 UNK         0.0000 
     15 C15         0.0534   52.1191   21.7377 C.ar      1 UNK         0.0000 
     16 C16        -0.0205   52.0967   20.3498 C.ar      1 UNK         0.0000 
     17 C17        -1.2753   51.5885   19.9992 C.ar      1 UNK         0.0000 
     18 N18        -1.9436   51.2557   21.0787 N.2       1 UNK         0.0000 
     19 N19        -1.1505   51.5493   22.1225 N.pl3     1 UNK         0.0000 
     20 C20        -1.6313   51.2723   23.4151 C.ar      1 UNK         0.0000 
     21 C21        -0.9306   50.3922   24.2432 C.ar      1 UNK         0.0000 
     22 C22        -1.3809   50.1651   25.5402 C.ar      1 UNK         0.0000 
     23 C23        -2.5271   50.8108   26.0127 C.ar      1 UNK         0.0000 
     24 C24        -3.2310   51.6874   25.1720 C.ar      1 UNK         0.0000 
     25 C25        -2.7846   51.9134   23.8745 C.ar      1 UNK         0.0000 
     26 N26        -2.8956   50.4967   27.3322 N.am      1 UNK         0.0000 
     27 C27        -3.9746   50.8812   28.0511 C.2       1 UNK         0.0000 
     28 O28        -4.8162   51.6967   27.6817 O.2       1 UNK         0.0000 
     29 C29        -4.1575   50.2385   29.4328 C.3       1 UNK         0.0000 
     30 C30        -1.9070   51.4402   18.6266 C.3       1 UNK         0.0000 
     31 F31        -1.0042   51.5827   17.6564 F         1 UNK         0.0000 
     32 F32        -2.4769   50.2442   18.4744 F         1 UNK         0.0000 
     33 F33        -2.8481   52.3676   18.4421 F         1 UNK         0.0000 
     34 H34         7.3866   55.0370   27.3386 H         1 UNK         0.0000 
     35 H35         5.1993   54.6669   28.3632 H         1 UNK         0.0000 
     36 H36         3.2608   54.0953   27.0128 H         1 UNK         0.0000 
     37 H37         7.6732   54.8207   24.8817 H         1 UNK         0.0000 
     38 H38         6.7640   54.2535   22.6854 H         1 UNK         0.0000 
     39 H39         4.9039   53.4650   21.2782 H         1 UNK         0.0000 
     40 H40         1.6667   53.7641   25.7885 H         1 UNK         0.0000 
     41 H41        -0.0855   52.9831   24.3851 H         1 UNK         0.0000 
     42 H42         2.6092   52.6639   21.0552 H         1 UNK         0.0000 
     43 H43         0.7271   52.4680   19.6623 H         1 UNK         0.0000 
     44 H44        -0.0351   49.8969   23.8931 H         1 UNK         0.0000 
     45 H45        -0.8321   49.4808   26.1746 H         1 UNK         0.0000 
     46 H46        -4.1202   52.2057   25.4920 H         1 UNK         0.0000 
     47 H47        -3.3246   52.6007   23.2399 H         1 UNK         0.0000 
     48 H48        -2.2706   49.8231   27.7718 H         1 UNK         0.0000 
     49 H49        -5.1305   50.4611   29.8738 H         1 UNK         0.0000 
     50 H50        -3.3565   50.4996   30.1282 H         1 UNK         0.0000 
     51 H51        -4.2618   48.2950   30.1636 H         1 UNK         0.0000 
     52 H52        -3.1428   48.4886   29.0157 H         1 UNK         0.0000 
     53 N53        -4.0956   48.7580   29.2817 N.4       1 UNK         0.0000 
     54 H54        -4.7455   48.3984   28.5981 H         1 UNK         0.0000 
@<TRIPOS>BOND
     1    1    6 ar   
     2    1    2 ar   
     3    1   34 1    
     4    2    3 ar   
     5    2   35 1    
     6    3    4 ar   
     7    3   36 1    
     8    4   10 ar   
     9    4    5 ar   
    10    5    6 ar   
    11    5    7 ar   
    12    6   37 1    
    13    7    8 ar   
    14    7   38 1    
    15    8    9 ar   
    16    8   39 1    
    17    9   14 ar   
    18    9   10 ar   
    19   10   11 ar   
    20   11   12 ar   
    21   11   40 1    
    22   12   13 ar   
    23   12   41 1    
    24   13   14 ar   
    25   13   15 1    
    26   14   42 1    
    27   15   19 ar   
    28   15   16 ar   
    29   16   17 ar   
    30   16   43 1    
    31   17   18 ar   
    32   17   30 1    
    33   18   19 ar   
    34   19   20 1    
    35   20   25 ar   
    36   20   21 ar   
    37   21   22 ar   
    38   21   44 1    
    39   22   23 ar   
    40   22   45 1    
    41   23   24 ar   
    42   23   26 1    
    43   24   25 ar   
    44   24   46 1    
    45   25   47 1    
    46   26   27 am   BACKBONE|DICT|INTERRES
    47   26   48 1    
    48   27   28 2    
    49   27   29 1    
    50   29   49 1    
    51   29   50 1    
    52   29   53 1    
    53   30   31 1    
    54   30   32 1    
    55   30   33 1    
    56   51   53 1    
    57   52   53 1    
    58   53   54 1    
@<TRIPOS>SUBSTRUCTURE
     1 UNK         1 GROUP             0       ****    0 ROOT    
