@<TRIPOS>MOLECULE
ZINC21020606_1884
38   39    1
SMALL
USER_CHARGES


@<TRIPOS>ATOM
      1 C1          1.4102   54.3806   29.4414 C.3       1 UNK         0.0000 
      2 C2          2.0420   53.0755   28.9097 C.3       1 UNK         0.0000 
      3 C3          2.9128   53.3241   27.6511 C.3       1 UNK         0.0000 
      4 C4          2.0714   53.5744   26.3796 C.3       1 UNK         0.0000 
      5 C5          1.0558   52.4468   26.1083 C.3       1 UNK         0.0000 
      6 C6          0.1392   52.3117   27.3477 C.3       1 UNK         0.0000 
      7 C7          0.9690   51.9953   28.6128 C.3       1 UNK         0.0000 
      8 N8          0.2291   52.8880   24.9554 N.pl3     1 UNK         0.0000 
      9 S9         -0.8468   51.8053   24.0837 S.o2      1 UNK         0.0000 
     10 O10        -1.1540   52.4734   22.8149 O.2       1 UNK         0.0000 
     11 O11        -0.2449   50.4670   24.0945 O.2       1 UNK         0.0000 
     12 C12        -2.3842   51.7946   25.0266 C.ar      1 UNK         0.0000 
     13 C13        -3.2365   52.8945   24.8775 C.ar      1 UNK         0.0000 
     14 C14        -4.4005   52.9969   25.6355 C.ar      1 UNK         0.0000 
     15 C15        -4.7283   51.9953   26.5471 C.ar      1 UNK         0.0000 
     16 C16        -3.9008   50.8821   26.6849 C.ar      1 UNK         0.0000 
     17 C17        -2.7405   50.7678   25.9188 C.ar      1 UNK         0.0000 
     18 N18        -1.9581   49.6293   26.0814 N.pl3     1 UNK         0.0000 
     19 Cl19       -6.1522   52.1395   27.5112 Cl        1 UNK         0.0000 
     20 H20         0.7410   54.8447   28.7167 H         1 UNK         0.0000 
     21 H21         2.1761   55.1143   29.6897 H         1 UNK         0.0000 
     22 H22         0.8311   54.1993   30.3483 H         1 UNK         0.0000 
     23 H23         2.6989   52.6685   29.6809 H         1 UNK         0.0000 
     24 H24         3.5855   54.1663   27.8203 H         1 UNK         0.0000 
     25 H25         3.5657   52.4691   27.4855 H         1 UNK         0.0000 
     26 H26         2.7186   53.7276   25.5149 H         1 UNK         0.0000 
     27 H27         1.5217   54.4967   26.5252 H         1 UNK         0.0000 
     28 H28         1.5033   51.4729   25.9222 H         1 UNK         0.0000 
     29 H29        -0.5826   51.5141   27.2084 H         1 UNK         0.0000 
     30 H30        -0.4449   53.2201   27.5072 H         1 UNK         0.0000 
     31 H31         1.4535   51.0258   28.4814 H         1 UNK         0.0000 
     32 H32         0.3021   51.8827   29.4698 H         1 UNK         0.0000 
     33 H33         0.5859   53.6785   24.4142 H         1 UNK         0.0000 
     34 H34        -2.9900   53.6826   24.1805 H         1 UNK         0.0000 
     35 H35        -5.0427   53.8576   25.5193 H         1 UNK         0.0000 
     36 H36        -4.1614   50.1033   27.3875 H         1 UNK         0.0000 
     37 H37        -1.9743   49.1330   26.9824 H         1 UNK         0.0000 
     38 H38        -1.1170   49.5758   25.5179 H         1 UNK         0.0000 
@<TRIPOS>BOND
     1    1    2 1    
     2    1   20 1    
     3    1   21 1    
     4    1   22 1    
     5    2    7 1    
     6    2    3 1    
     7    2   23 1    
     8    3    4 1    
     9    3   24 1    
    10    3   25 1    
    11    4    5 1    
    12    4   26 1    
    13    4   27 1    
    14    5    6 1    
    15    5    8 1    
    16    5   28 1    
    17    6    7 1    
    18    6   29 1    
    19    6   30 1    
    20    7   31 1    
    21    7   32 1    
    22    8    9 1    
    23    8   33 1    
    24    9   10 2    
    25    9   11 2    
    26    9   12 1    
    27   12   17 ar   
    28   12   13 ar   
    29   13   14 ar   
    30   13   34 1    
    31   14   15 ar   
    32   14   35 1    
    33   15   16 ar   
    34   15   19 1    
    35   16   17 ar   
    36   16   36 1    
    37   17   18 1    
    38   18   37 1    
    39   18   38 1    
@<TRIPOS>SUBSTRUCTURE
     1 UNK         1 GROUP             0       ****    0 ROOT    
