ZINC09406857_671
                    3D
 Schrodinger Suite 2024-2.
 63 67  0  0  1  0            999 V2000
    4.8251   54.3694   20.6923 C   0  0  0  0  0  0
    4.6983   53.2469   21.7444 C   0  0  1  0  0  0
    5.5046   52.5349   21.5722 H   0  0  0  0  0  0
    4.9225   53.8326   23.1453 C   0  0  0  0  0  0
    3.8623   54.0700   24.0323 C   0  0  0  0  0  0
    4.1169   54.5360   25.3197 C   0  0  0  0  0  0
    5.4268   54.7948   25.7161 C   0  0  0  0  0  0
    6.4868   54.5816   24.8378 C   0  0  0  0  0  0
    6.2355   54.0973   23.5587 C   0  0  0  0  0  0
    3.4627   52.4490   21.6415 N   0  0  0  0  0  0
    2.8639   52.0060   20.5185 C   0  0  0  0  0  0
    3.2363   52.3134   19.3883 O   0  0  0  0  0  0
    1.6806   51.0340   20.6956 C   0  0  2  0  0  0
    1.3118   51.1612   21.7125 H   0  0  0  0  0  0
    2.2159   49.5946   20.4635 C   0  0  0  0  0  0
    1.0530   48.5768   20.4819 C   0  0  0  0  0  0
   -0.0831   48.9680   19.5174 C   0  0  0  0  0  0
   -0.5205   50.3655   19.7466 N   0  0  0  0  0  0
    0.5633   51.3770   19.6741 C   0  0  0  0  0  0
   -1.9587   50.6730   20.7398 S   0  0  0  0  0  0
   -2.2976   52.0965   20.6093 O   0  0  0  0  0  0
   -2.9516   49.6374   20.4278 O   0  0  0  0  0  0
   -1.4771   50.4157   22.4552 C   0  0  0  0  0  0
   -1.6961   49.1705   23.0617 C   0  0  0  0  0  0
   -1.4437   48.9481   24.4193 C   0  0  0  0  0  0
   -0.9596   50.0350   25.1508 C   0  0  0  0  0  0
   -0.6866   51.2882   24.5520 C   0  0  0  0  0  0
   -0.9460   51.4824   23.1883 C   0  0  0  0  0  0
   -0.1985   52.1753   25.4712 N   0  0  0  0  0  0
   -0.2346   51.5386   26.6217 C   0  0  0  0  0  0
   -0.6650   50.2321   26.4815 N   0  0  0  0  0  0
   -0.7953   49.5740   27.2521 H   0  0  0  0  0  0
    0.1359   52.1830   27.9242 C   0  0  0  0  0  0
   -0.4078   51.7269   29.1300 C   0  0  0  0  0  0
   -0.0892   52.3585   30.3300 C   0  0  0  0  0  0
    0.7634   53.4575   30.3287 C   0  0  0  0  0  0
    1.3127   53.9244   29.1368 C   0  0  0  0  0  0
    1.0004   53.2852   27.9400 C   0  0  0  0  0  0
    5.6017   55.0947   20.9416 H   0  0  0  0  0  0
    5.0730   53.9708   19.7086 H   0  0  0  0  0  0
    3.8784   54.8966   20.5974 H   0  0  0  0  0  0
    2.8401   53.8826   23.7375 H   0  0  0  0  0  0
    3.3035   54.7082   26.0069 H   0  0  0  0  0  0
    5.6200   55.1607   26.7144 H   0  0  0  0  0  0
    7.5018   54.7842   25.1436 H   0  0  0  0  0  0
    7.0646   53.9257   22.8877 H   0  0  0  0  0  0
    3.1287   52.0723   22.5141 H   0  0  0  0  0  0
    2.6686   49.4977   19.4722 H   0  0  0  0  0  0
    2.9173   49.2970   21.2454 H   0  0  0  0  0  0
    1.4265   47.5868   20.2187 H   0  0  0  0  0  0
    0.6561   48.4969   21.4963 H   0  0  0  0  0  0
    0.2605   48.8903   18.4849 H   0  0  0  0  0  0
   -0.9385   48.3011   19.6210 H   0  0  0  0  0  0
    0.1267   52.3627   19.8512 H   0  0  0  0  0  0
    0.9488   51.3228   18.6518 H   0  0  0  0  0  0
   -2.1072   48.3613   22.4750 H   0  0  0  0  0  0
   -1.6450   47.9970   24.8889 H   0  0  0  0  0  0
   -0.7729   52.4456   22.7297 H   0  0  0  0  0  0
   -1.0922   50.8906   29.1442 H   0  0  0  0  0  0
   -0.4967   51.9978   31.2651 H   0  0  0  0  0  0
    0.9991   53.9447   31.2640 H   0  0  0  0  0  0
    1.9729   54.7795   29.1380 H   0  0  0  0  0  0
    1.4237   53.6558   27.0178 H   0  0  0  0  0  0
  1  2  1  0  0  0
  1 39  1  0  0  0
  1 40  1  0  0  0
  1 41  1  0  0  0
  2  3  1  0  0  0
  2  4  1  0  0  0
  2 10  1  0  0  0
  4  9  2  0  0  0
  4  5  1  0  0  0
  5  6  2  0  0  0
  5 42  1  0  0  0
  6  7  1  0  0  0
  6 43  1  0  0  0
  7  8  2  0  0  0
  7 44  1  0  0  0
  8  9  1  0  0  0
  8 45  1  0  0  0
  9 46  1  0  0  0
 10 11  1  0  0  0
 10 47  1  0  0  0
 11 12  2  0  0  0
 11 13  1  0  0  0
 13 14  1  0  0  0
 13 19  1  0  0  0
 13 15  1  0  0  0
 15 16  1  0  0  0
 15 48  1  0  0  0
 15 49  1  0  0  0
 16 17  1  0  0  0
 16 50  1  0  0  0
 16 51  1  0  0  0
 17 18  1  0  0  0
 17 52  1  0  0  0
 17 53  1  0  0  0
 18 19  1  0  0  0
 18 20  1  0  0  0
 19 54  1  0  0  0
 19 55  1  0  0  0
 20 21  2  0  0  0
 20 22  2  0  0  0
 20 23  1  0  0  0
 23 28  2  0  0  0
 23 24  1  0  0  0
 24 25  2  0  0  0
 24 56  1  0  0  0
 25 26  1  0  0  0
 25 57  1  0  0  0
 26 31  1  0  0  0
 26 27  2  0  0  0
 27 28  1  0  0  0
 27 29  1  0  0  0
 28 58  1  0  0  0
 29 30  2  0  0  0
 30 31  1  0  0  0
 30 33  1  0  0  0
 31 32  1  0  0  0
 33 38  2  0  0  0
 33 34  1  0  0  0
 34 35  2  0  0  0
 34 59  1  0  0  0
 35 36  1  0  0  0
 35 60  1  0  0  0
 36 37  2  0  0  0
 36 61  1  0  0  0
 37 38  1  0  0  0
 37 62  1  0  0  0
 38 63  1  0  0  0
M  END
> <i_i_glide_confnum>
14

> <i_i_glide_lignum>
672

> <i_i_glide_posenum>
329

> <i_i_glide_rotatable_bonds>
7

> <i_m_Source_File_Index>
5777

> <b_m_subgroup_collapsed>
0

> <r_i_docking_score>
-5.47467

> <r_i_glide_ecoul>
-5.42115

> <r_i_glide_eff_state_penalty>
0

> <r_i_glide_einternal>
3.24008

> <r_i_glide_emodel>
-65.9067

> <r_i_glide_energy>
-50.0495

> <r_i_glide_erotb>
0.51114

> <r_i_glide_esite>
-0.185112

> <r_i_glide_evdw>
-44.6284

> <r_i_glide_gscore>
-5.47467

> <r_i_glide_hbond>
-0.16

> <r_i_glide_ligand_efficiency>
-0.156419

> <r_i_glide_ligand_efficiency_ln>
-1.20181

> <r_i_glide_ligand_efficiency_sa>
-0.511658

> <r_i_glide_lipo>
-2.45514

> <r_i_glide_metal>
0

> <r_i_glide_rewards>
-0.140971

> <s_i_glide_gridfile>
wee1_glide-grid

> <s_m_Source_File>
wee1_decoys_glide_SP.sdf

> <s_m_Source_Path>
/Users/zhangxujun/Desktop

> <s_m_entry_id>
6052

> <s_m_entry_name>
wee1_decoys_glide_SP.5777

> <s_m_subgroup_title>
wee1_decoys_glide_SP

> <s_m_subgroupid>
wee1_decoys_glide_SP


$$$$
