@<TRIPOS>MOLECULE
ZINC09254735_2278
51   53    1
SMALL
USER_CHARGES


@<TRIPOS>ATOM
      1 C1          4.3006   54.1504   29.6020 C.ar      1 UNK         0.0000 
      2 C2          5.0330   54.4958   28.4729 C.ar      1 UNK         0.0000 
      3 C3          4.6315   54.0782   27.1956 C.ar      1 UNK         0.0000 
      4 C4          3.4641   53.2968   27.0963 C.ar      1 UNK         0.0000 
      5 C5          2.7277   52.9325   28.2268 C.ar      1 UNK         0.0000 
      6 C6          3.1623   53.3588   29.4859 C.ar      1 UNK         0.0000 
      7 O7          1.6268   52.1243   28.0410 O.3       1 UNK         0.0000 
      8 C8          0.4373   52.4114   28.7767 C.3       1 UNK         0.0000 
      9 F9          0.5409   52.1004   30.0704 F         1 UNK         0.0000 
     10 F10         0.0310   53.6737   28.6188 F         1 UNK         0.0000 
     11 C11         5.4605   54.4779   25.9868 C.2       1 UNK         0.0000 
     12 O12         6.4989   55.1293   26.1371 O.2       1 UNK         0.0000 
     13 N13         4.9668   54.0971   24.7840 N.am      1 UNK         0.0000 
     14 C14         5.4427   54.3779   23.4899 C.ar      1 UNK         0.0000 
     15 C15         4.5595   54.1156   22.4387 C.ar      1 UNK         0.0000 
     16 C16         4.8940   54.4955   21.1407 C.ar      1 UNK         0.0000 
     17 C17         6.1191   55.1153   20.8833 C.ar      1 UNK         0.0000 
     18 C18         7.0375   55.2979   21.9209 C.ar      1 UNK         0.0000 
     19 C19         6.7040   54.9254   23.2170 C.ar      1 UNK         0.0000 
     20 S20         6.5032   55.6995   19.2273 S.o2      1 UNK         0.0000 
     21 O21         5.3234   56.4938   18.8718 O.2       1 UNK         0.0000 
     22 O22         7.7325   56.4769   19.4342 O.2       1 UNK         0.0000 
     23 N23         6.6035   54.0983   18.4911 N.2       1 UNK         0.0000 
     24 C24         7.5343   53.7957   17.6823 C.2       1 UNK         0.0000 
     25 C25         8.6830   54.6403   17.1133 C.3       1 UNK         0.0000 
     26 C26        10.1067   54.1075   17.3816 C.3       1 UNK         0.0000 
     27 C27        10.5886   53.0510   16.3765 C.3       1 UNK         0.0000 
     28 C28         9.7849   51.7390   16.3542 C.3       1 UNK         0.0000 
     29 C29         8.2686   51.8726   16.1163 C.3       1 UNK         0.0000 
     30 N30         7.5232   52.4952   17.2114 N.pl3     1 UNK         0.0000 
     31 H31         4.6342   54.4958   30.5661 H         1 UNK         0.0000 
     32 H32         5.9132   55.1108   28.6039 H         1 UNK         0.0000 
     33 H33         3.1113   52.9329   26.1433 H         1 UNK         0.0000 
     34 H34         2.6307   53.0733   30.3786 H         1 UNK         0.0000 
     35 H35        -0.3651   51.7796   28.3911 H         1 UNK         0.0000 
     36 H36         4.0961   53.5998   24.8133 H         1 UNK         0.0000 
     37 H37         3.5879   53.6759   22.6203 H         1 UNK         0.0000 
     38 H38         4.1875   54.3433   20.3363 H         1 UNK         0.0000 
     39 H39         8.0070   55.7486   21.7451 H         1 UNK         0.0000 
     40 H40         7.4386   55.1039   23.9896 H         1 UNK         0.0000 
     41 H41         8.5254   54.7901   16.0461 H         1 UNK         0.0000 
     42 H42         8.6459   55.6547   17.4868 H         1 UNK         0.0000 
     43 H43        10.8057   54.9456   17.3625 H         1 UNK         0.0000 
     44 H44        10.1753   53.7061   18.3960 H         1 UNK         0.0000 
     45 H45        11.6313   52.8123   16.5933 H         1 UNK         0.0000 
     46 H46        10.5905   53.4861   15.3766 H         1 UNK         0.0000 
     47 H47         9.9511   51.1910   17.2809 H         1 UNK         0.0000 
     48 H48        10.1995   51.0996   15.5751 H         1 UNK         0.0000 
     49 H49         7.8516   50.8969   15.8743 H         1 UNK         0.0000 
     50 H50         8.1026   52.4985   15.2344 H         1 UNK         0.0000 
     51 H51         6.7534   51.9282   17.5492 H         1 UNK         0.0000 
@<TRIPOS>BOND
     1    1    6 ar   
     2    1    2 ar   
     3    1   31 1    
     4    2    3 ar   
     5    2   32 1    
     6    3    4 ar   
     7    3   11 1    
     8    4    5 ar   
     9    4   33 1    
    10    5    6 ar   
    11    5    7 1    
    12    6   34 1    
    13    7    8 1    
    14    8    9 1    
    15    8   10 1    
    16    8   35 1    
    17   11   12 2    
    18   11   13 am   BACKBONE|DICT|INTERRES
    19   13   14 1    
    20   13   36 1    
    21   14   19 ar   
    22   14   15 ar   
    23   15   16 ar   
    24   15   37 1    
    25   16   17 ar   
    26   16   38 1    
    27   17   18 ar   
    28   17   20 1    
    29   18   19 ar   
    30   18   39 1    
    31   19   40 1    
    32   20   21 2    
    33   20   22 2    
    34   20   23 1    
    35   23   24 2    
    36   24   30 1    
    37   24   25 1    
    38   25   26 1    
    39   25   41 1    
    40   25   42 1    
    41   26   27 1    
    42   26   43 1    
    43   26   44 1    
    44   27   28 1    
    45   27   45 1    
    46   27   46 1    
    47   28   29 1    
    48   28   47 1    
    49   28   48 1    
    50   29   30 1    
    51   29   49 1    
    52   29   50 1    
    53   30   51 1    
@<TRIPOS>SUBSTRUCTURE
     1 UNK         1 GROUP             0       ****    0 ROOT    
