ZINC39657144_3679
                    3D
 Schrodinger Suite 2024-2.
 64 66  0  0  1  0            999 V2000
    1.1108   51.8443   26.8296 C   0  0  0  0  0  0
   -0.1731   51.3805   26.1284 C   0  0  0  0  0  0
   -0.0275   50.1540   25.1847 C   0  0  2  0  0  0
   -1.0278   49.9303   24.8097 H   0  0  0  0  0  0
    0.4391   48.8971   25.9443 C   0  0  0  0  0  0
    0.8979   50.3296   23.9531 C   0  0  0  0  0  0
    0.6061   51.4627   22.9556 C   0  0  0  0  0  0
   -0.3905   52.1748   23.0830 O   0  0  0  0  0  0
    1.5001   51.6391   21.9558 N   0  0  0  0  0  0
    2.6106   50.7241   21.6550 C   0  0  0  0  0  0
    3.3103   51.3761   20.4516 C   0  0  1  0  0  0
    3.7539   50.5946   19.8367 H   0  0  0  0  0  0
    2.1487   52.1234   19.7246 C   0  0  0  0  0  0
    1.3373   52.6649   20.9251 C   0  0  0  0  0  0
    2.5180   53.2062   18.6761 C   0  0  0  0  0  0
    3.3414   52.6018   17.5194 C   0  0  0  0  0  0
    2.4999   51.5112   16.8195 N   0  3  0  0  0  0
    1.8886   50.4586   17.7699 C   0  0  0  0  0  0
    1.1882   51.1764   18.9366 C   0  0  0  0  0  0
    4.4805   52.3172   20.8698 C   0  0  0  0  0  0
    5.4021   52.4970   20.0820 O   0  0  0  0  0  0
    4.4552   52.9086   22.0815 N   0  0  0  0  0  0
    5.5259   53.7272   22.6811 C   0  0  1  0  0  0
    6.4015   53.0762   22.7005 H   0  0  0  0  0  0
    5.8794   54.9771   21.8509 C   0  0  0  0  0  0
    5.2717   54.0967   24.1489 C   0  0  0  0  0  0
    3.9752   54.1779   24.6784 C   0  0  0  0  0  0
    3.7919   54.3853   26.0437 C   0  0  0  0  0  0
    4.8960   54.4966   26.8848 C   0  0  0  0  0  0
    6.1871   54.4484   26.3664 C   0  0  0  0  0  0
    6.3744   54.2546   24.9998 C   0  0  0  0  0  0
    4.6389   54.7080   28.7597 Br  0  0  0  0  0  0
    0.9226   52.7274   27.4393 H   0  0  0  0  0  0
    1.8863   52.1026   26.1107 H   0  0  0  0  0  0
    1.5047   51.0739   27.4919 H   0  0  0  0  0  0
   -0.9084   51.1396   26.8976 H   0  0  0  0  0  0
   -0.6017   52.2248   25.5883 H   0  0  0  0  0  0
    1.5019   48.9158   26.1880 H   0  0  0  0  0  0
   -0.0955   48.7656   26.8816 H   0  0  0  0  0  0
    0.2692   48.0089   25.3354 H   0  0  0  0  0  0
    1.9045   50.5026   24.3172 H   0  0  0  0  0  0
    0.9294   49.3893   23.4014 H   0  0  0  0  0  0
    3.2890   50.5205   22.4815 H   0  0  0  0  0  0
    2.2131   49.7574   21.3385 H   0  0  0  0  0  0
    0.3130   52.9040   20.6363 H   0  0  0  0  0  0
    1.8275   53.5718   21.2817 H   0  0  0  0  0  0
    1.6233   53.7011   18.2970 H   0  0  0  0  0  0
    3.1051   54.0009   19.1412 H   0  0  0  0  0  0
    3.6026   53.3351   16.7576 H   0  0  0  0  0  0
    4.2509   52.0975   17.8452 H   0  0  0  0  0  0
    1.7705   51.9433   16.2711 H   0  0  0  0  0  0
    1.2006   49.8661   17.1649 H   0  0  0  0  0  0
    2.7044   49.8108   18.0846 H   0  0  0  0  0  0
    0.7889   50.4067   19.5983 H   0  0  0  0  0  0
    0.3062   51.7131   18.5833 H   0  0  0  0  0  0
    3.6758   52.6941   22.6842 H   0  0  0  0  0  0
    6.6216   55.5989   22.3539 H   0  0  0  0  0  0
    6.2913   54.7239   20.8750 H   0  0  0  0  0  0
    4.9913   55.5797   21.6800 H   0  0  0  0  0  0
    3.1073   54.0695   24.0444 H   0  0  0  0  0  0
    2.7947   54.4363   26.4518 H   0  0  0  0  0  0
    7.0368   54.5393   27.0273 H   0  0  0  0  0  0
    7.3787   54.1832   24.6072 H   0  0  0  0  0  0
    3.1052   51.0057   16.1815 H   0  0  0  0  0  0
  1  2  1  0  0  0
  1 33  1  0  0  0
  1 34  1  0  0  0
  1 35  1  0  0  0
  2  3  1  0  0  0
  2 36  1  0  0  0
  2 37  1  0  0  0
  3  4  1  0  0  0
  3  5  1  0  0  0
  3  6  1  0  0  0
  5 38  1  0  0  0
  5 39  1  0  0  0
  5 40  1  0  0  0
  6  7  1  0  0  0
  6 41  1  0  0  0
  6 42  1  0  0  0
  7  8  2  0  0  0
  7  9  1  0  0  0
  9 14  1  0  0  0
  9 10  1  0  0  0
 10 11  1  0  0  0
 10 43  1  0  0  0
 10 44  1  0  0  0
 11 12  1  0  0  0
 11 13  1  0  0  0
 11 20  1  0  0  0
 13 19  1  0  0  0
 13 14  1  0  0  0
 13 15  1  0  0  0
 14 45  1  0  0  0
 14 46  1  0  0  0
 15 16  1  0  0  0
 15 47  1  0  0  0
 15 48  1  0  0  0
 16 17  1  0  0  0
 16 49  1  0  0  0
 16 50  1  0  0  0
 17 18  1  0  0  0
 17 51  1  0  0  0
 17 64  1  0  0  0
 18 19  1  0  0  0
 18 52  1  0  0  0
 18 53  1  0  0  0
 19 54  1  0  0  0
 19 55  1  0  0  0
 20 21  2  0  0  0
 20 22  1  0  0  0
 22 23  1  0  0  0
 22 56  1  0  0  0
 23 24  1  0  0  0
 23 25  1  0  0  0
 23 26  1  0  0  0
 25 57  1  0  0  0
 25 58  1  0  0  0
 25 59  1  0  0  0
 26 31  2  0  0  0
 26 27  1  0  0  0
 27 28  2  0  0  0
 27 60  1  0  0  0
 28 29  1  0  0  0
 28 61  1  0  0  0
 29 30  2  0  0  0
 29 32  1  0  0  0
 30 31  1  0  0  0
 30 62  1  0  0  0
 31 63  1  0  0  0
M  CHG  1  17   1
M  END
> <i_i_glide_confnum>
230

> <i_i_glide_lignum>
3680

> <i_i_glide_posenum>
374

> <i_i_glide_rotatable_bonds>
8

> <i_m_Source_File_Index>
2651

> <b_m_subgroup_collapsed>
0

> <r_i_docking_score>
-5.11354

> <r_i_glide_ecoul>
-4.65398

> <r_i_glide_eff_state_penalty>
0

> <r_i_glide_einternal>
8.2634

> <r_i_glide_emodel>
-46.1885

> <r_i_glide_energy>
-37.3803

> <r_i_glide_erotb>
0.558541

> <r_i_glide_esite>
-0.1

> <r_i_glide_evdw>
-32.7263

> <r_i_glide_gscore>
-5.11354

> <r_i_glide_hbond>
-0.0811627

> <r_i_glide_ligand_efficiency>
-0.176329

> <r_i_glide_ligand_efficiency_ln>
-1.17087

> <r_i_glide_ligand_efficiency_sa>
-0.541738

> <r_i_glide_lipo>
-2.60289

> <r_i_glide_metal>
0

> <r_i_glide_rewards>
-0.55361

> <s_i_glide_gridfile>
wee1_glide-grid

> <s_m_Source_File>
wee1_decoys_glide_SP.sdf

> <s_m_Source_Path>
/Users/zhangxujun/Desktop

> <s_m_entry_id>
2926

> <s_m_entry_name>
wee1_decoys_glide_SP.2651

> <s_m_subgroup_title>
wee1_decoys_glide_SP

> <s_m_subgroupid>
wee1_decoys_glide_SP


$$$$
