@<TRIPOS>MOLECULE
ZINC09298397_4315
43   45    1
SMALL
USER_CHARGES


@<TRIPOS>ATOM
      1 C1          1.6529   56.8091   29.8534 C.3       1 UNK         0.0000 
      2 O2          1.0438   55.7070   30.5311 O.3       1 UNK         0.0000 
      3 C3          0.9187   54.4342   29.9485 C.2       1 UNK         0.0000 
      4 O4          0.3134   53.5098   30.4875 O.2       1 UNK         0.0000 
      5 N5          1.5487   54.3560   28.7530 N.am      1 UNK         0.0000 
      6 C6          1.4790   53.3647   27.8372 C.2       1 UNK         0.0000 
      7 O7          0.7332   52.3827   27.8924 O.2       1 UNK         0.0000 
      8 C8          2.3083   53.6190   26.6705 C.2       1 UNK         0.0000 
      9 C9          3.6508   54.0985   26.7117 C.2       1 UNK         0.0000 
     10 C10         4.1352   54.4241   25.4332 C.2       1 UNK         0.0000 
     11 S11         3.0487   53.8698   24.2018 S.3       1 UNK         0.0000 
     12 C12         1.9051   53.2954   25.3698 C.2       1 UNK         0.0000 
     13 N13         0.7213   52.6456   25.0287 N.am      1 UNK         0.0000 
     14 C14         0.2068   52.3875   23.8096 C.2       1 UNK         0.0000 
     15 O15         0.7045   52.7217   22.7346 O.2       1 UNK         0.0000 
     16 C16        -1.0482   51.6809   23.8683 C.2       1 UNK         0.0000 
     17 C17        -1.5623   50.8778   24.8947 C.2       1 UNK         0.0000 
     18 C18        -2.8007   50.3100   24.5769 C.2       1 UNK         0.0000 
     19 C19        -3.2324   50.6414   23.3016 C.2       1 UNK         0.0000 
     20 S20        -2.0959   51.6571   22.4764 S.3       1 UNK         0.0000 
     21 Br21       -4.8382   50.0985   22.4393 Br        1 UNK         0.0000 
     22 C22         5.4364   55.1116   25.0815 C.3       1 UNK         0.0000 
     23 C23         6.6881   54.3339   25.5022 C.3       1 UNK         0.0000 
     24 C24         6.9442   54.3346   27.0196 C.3       1 UNK         0.0000 
     25 C25         5.9050   53.5966   27.8739 C.3       1 UNK         0.0000 
     26 C26         4.5138   54.2509   27.9635 C.3       1 UNK         0.0000 
     27 H27         1.5622   57.6972   30.4777 H         1 UNK         0.0000 
     28 H28         2.7138   56.6324   29.6746 H         1 UNK         0.0000 
     29 H29         1.1598   57.0189   28.9028 H         1 UNK         0.0000 
     30 H30         2.0954   55.1588   28.4911 H         1 UNK         0.0000 
     31 H31         0.1790   52.3354   25.8234 H         1 UNK         0.0000 
     32 H32        -1.0691   50.6988   25.8413 H         1 UNK         0.0000 
     33 H33        -3.3536   49.6697   25.2489 H         1 UNK         0.0000 
     34 H34         5.4866   55.2964   24.0094 H         1 UNK         0.0000 
     35 H35         5.4756   56.0957   25.5500 H         1 UNK         0.0000 
     36 H36         6.6395   53.3103   25.1271 H         1 UNK         0.0000 
     37 H37         7.5405   54.7877   25.0010 H         1 UNK         0.0000 
     38 H38         7.9043   53.8656   27.2174 H         1 UNK         0.0000 
     39 H39         7.0464   55.3613   27.3736 H         1 UNK         0.0000 
     40 H40         5.8067   52.5633   27.5347 H         1 UNK         0.0000 
     41 H41         6.3134   53.5278   28.8820 H         1 UNK         0.0000 
     42 H42         4.6186   55.2967   28.2371 H         1 UNK         0.0000 
     43 H43         4.0411   53.7776   28.8226 H         1 UNK         0.0000 
@<TRIPOS>BOND
     1    1    2 1    
     2    1   27 1    
     3    1   28 1    
     4    1   29 1    
     5    2    3 1    
     6    3    4 2    
     7    3    5 am   BACKBONE|DICT|INTERRES
     8    5    6 am   BACKBONE|DICT|INTERRES
     9    5   30 1    
    10    6    7 2    
    11    6    8 1    
    12    8   12 2    
    13    8    9 1    
    14    9   26 1    
    15    9   10 2    
    16   10   11 1    
    17   10   22 1    
    18   11   12 1    
    19   12   13 am   BACKBONE|DICT|INTERRES
    20   13   14 am   BACKBONE|DICT|INTERRES
    21   13   31 1    
    22   14   15 2    
    23   14   16 1    
    24   16   20 1    
    25   16   17 2    
    26   17   18 1    
    27   17   32 1    
    28   18   19 2    
    29   18   33 1    
    30   19   20 1    
    31   19   21 1    
    32   22   23 1    
    33   22   34 1    
    34   22   35 1    
    35   23   24 1    
    36   23   36 1    
    37   23   37 1    
    38   24   25 1    
    39   24   38 1    
    40   24   39 1    
    41   25   26 1    
    42   25   40 1    
    43   25   41 1    
    44   26   42 1    
    45   26   43 1    
@<TRIPOS>SUBSTRUCTURE
     1 UNK         1 GROUP             0       ****    0 ROOT    
