@<TRIPOS>MOLECULE
ZINC45867792_4449
43   45    1
SMALL
USER_CHARGES


@<TRIPOS>ATOM
      1 C1         -0.3941   52.3916   30.4211 C.3       1 UNK         0.0000 
      2 C2         -0.1249   52.1344   28.9491 C.ar      1 UNK         0.0000 
      3 C3         -1.0094   51.2975   28.2613 C.ar      1 UNK         0.0000 
      4 C4         -0.7977   50.9723   26.9238 C.ar      1 UNK         0.0000 
      5 C5          0.3067   51.4872   26.2595 C.ar      1 UNK         0.0000 
      6 C6          1.1825   52.3375   26.9282 C.ar      1 UNK         0.0000 
      7 C7          0.9760   52.6924   28.2674 C.ar      1 UNK         0.0000 
      8 S8          2.1015   53.8871   29.0342 S.o2      1 UNK         0.0000 
      9 O9          2.0985   53.6798   30.4817 O.2       1 UNK         0.0000 
     10 O10         1.7962   55.2114   28.4816 O.2       1 UNK         0.0000 
     11 N11         3.7510   53.4531   28.5730 N.pl3     1 UNK         0.0000 
     12 C12         4.4512   53.9395   27.4658 C.ar      1 UNK         0.0000 
     13 C13         3.8283   54.4951   26.3464 C.ar      1 UNK         0.0000 
     14 C14         4.5801   54.8553   25.2371 C.ar      1 UNK         0.0000 
     15 C15         5.9684   54.6906   25.2502 C.ar      1 UNK         0.0000 
     16 C16         6.5946   54.2224   26.4061 C.ar      1 UNK         0.0000 
     17 C17         5.8384   53.8286   27.5014 C.ar      1 UNK         0.0000 
     18 N18         6.7794   55.0003   24.1493 N.am      1 UNK         0.0000 
     19 C19         6.4734   54.8927   22.8418 C.2       1 UNK         0.0000 
     20 O20         5.3966   54.4950   22.3990 O.2       1 UNK         0.0000 
     21 N21         7.5044   55.3011   22.0816 N.am      1 UNK         0.0000 
     22 C22         7.5368   55.6947   20.6650 C.3       1 UNK         0.0000 
     23 C23         6.6443   55.0347   19.6323 C.3       1 UNK         0.0000 
     24 C24         6.3797   56.4610   20.0569 C.3       1 UNK         0.0000 
     25 Br25        0.6367   51.0256   24.4428 Br        1 UNK         0.0000 
     26 H26        -1.2946   51.8939   30.7723 H         1 UNK         0.0000 
     27 H27         0.4182   52.0042   31.0348 H         1 UNK         0.0000 
     28 H28        -0.4942   53.4575   30.6203 H         1 UNK         0.0000 
     29 H29        -1.8552   50.8593   28.7715 H         1 UNK         0.0000 
     30 H30        -1.4722   50.2937   26.4224 H         1 UNK         0.0000 
     31 H31         2.0328   52.6932   26.3785 H         1 UNK         0.0000 
     32 H32         4.2651   52.9027   29.2425 H         1 UNK         0.0000 
     33 H33         2.7626   54.6362   26.3034 H         1 UNK         0.0000 
     34 H34         4.0717   55.2566   24.3739 H         1 UNK         0.0000 
     35 H35         7.6608   54.1219   26.4713 H         1 UNK         0.0000 
     36 H36         6.3378   53.4264   28.3714 H         1 UNK         0.0000 
     37 H37         7.7496   55.1867   24.3542 H         1 UNK         0.0000 
     38 H38         8.4035   55.3314   22.5507 H         1 UNK         0.0000 
     39 H39         8.5436   55.9646   20.3397 H         1 UNK         0.0000 
     40 H40         5.9494   54.2509   19.9343 H         1 UNK         0.0000 
     41 H41         7.0592   54.8445   18.6423 H         1 UNK         0.0000 
     42 H42         6.5930   57.2650   19.3527 H         1 UNK         0.0000 
     43 H43         5.5055   56.6739   20.6724 H         1 UNK         0.0000 
@<TRIPOS>BOND
     1    1    2 1    
     2    1   26 1    
     3    1   27 1    
     4    1   28 1    
     5    2    7 ar   
     6    2    3 ar   
     7    3    4 ar   
     8    3   29 1    
     9    4    5 ar   
    10    4   30 1    
    11    5    6 ar   
    12    5   25 1    
    13    6    7 ar   
    14    6   31 1    
    15    7    8 1    
    16    8    9 2    
    17    8   10 2    
    18    8   11 1    
    19   11   12 1    
    20   11   32 1    
    21   12   17 ar   
    22   12   13 ar   
    23   13   14 ar   
    24   13   33 1    
    25   14   15 ar   
    26   14   34 1    
    27   15   16 ar   
    28   15   18 1    
    29   16   17 ar   
    30   16   35 1    
    31   17   36 1    
    32   18   19 am   BACKBONE|DICT|INTERRES
    33   18   37 1    
    34   19   20 2    
    35   19   21 am   BACKBONE|DICT|INTERRES
    36   21   22 1    
    37   21   38 1    
    38   22   24 1    
    39   22   23 1    
    40   22   39 1    
    41   23   24 1    
    42   23   40 1    
    43   23   41 1    
    44   24   42 1    
    45   24   43 1    
@<TRIPOS>SUBSTRUCTURE
     1 UNK         1 GROUP             0       ****    0 ROOT    
