@<TRIPOS>MOLECULE
ZINC10384419_5526
67   70    1
SMALL
USER_CHARGES


@<TRIPOS>ATOM
      1 C1          4.7335   54.0980   25.7070 C.ar      1 UNK         0.0000 
      2 C2          3.3797   53.7228   25.6340 C.ar      1 UNK         0.0000 
      3 C3          2.6246   53.6953   26.8114 C.ar      1 UNK         0.0000 
      4 C4          3.2019   54.0578   28.0322 C.ar      1 UNK         0.0000 
      5 C5          4.5444   54.4313   28.0895 C.ar      1 UNK         0.0000 
      6 C6          5.3100   54.4481   26.9257 C.ar      1 UNK         0.0000 
      7 Cl7         6.9764   54.8924   26.9896 Cl        1 UNK         0.0000 
      8 Cl8         2.2573   54.0378   29.4773 Cl        1 UNK         0.0000 
      9 N9          2.7578   53.3012   24.4375 N.am      1 UNK         0.0000 
     10 C10         3.1091   53.6379   23.1756 C.2       1 UNK         0.0000 
     11 O11         3.9460   54.4958   22.9075 O.2       1 UNK         0.0000 
     12 C12         2.4000   52.9172   22.0195 C.3       1 UNK         0.0000 
     13 C13         3.3153   51.9240   21.2022 C.3       1 UNK         0.0000 
     14 H14         4.2510   51.7018   21.7199 H         1 UNK         0.0000 
     15 C15         2.5778   50.5566   21.0717 C.2       1 UNK         0.0000 
     16 O16         2.3988   49.8080   22.0274 O.2       1 UNK         0.0000 
     17 N17         2.0820   50.2209   19.8613 N.am      1 UNK         0.0000 
     18 C18         2.2543   50.9481   18.5921 C.3       1 UNK         0.0000 
     19 H19         3.1044   50.4967   18.0819 H         1 UNK         0.0000 
     20 C20         1.0479   50.7659   17.6473 C.3       1 UNK         0.0000 
     21 C21         1.2571   51.5110   16.3114 C.3       1 UNK         0.0000 
     22 C22         1.6263   52.9945   16.5118 C.3       1 UNK         0.0000 
     23 C23         2.8126   53.1714   17.4799 C.3       1 UNK         0.0000 
     24 C24         2.5682   52.4489   18.8273 C.3       1 UNK         0.0000 
     25 H25         1.7093   52.9078   19.3199 H         1 UNK         0.0000 
     26 C26         4.4658   53.8834   19.9228 C.3       1 UNK         0.0000 
     27 C27         5.6080   54.0392   18.8930 C.2       1 UNK         0.0000 
     28 O28         6.2199   53.0193   18.5778 O.2       1 UNK         0.0000 
     29 N29         6.0023   55.2743   18.4717 N.am      1 UNK         0.0000 
     30 C30         7.3131   55.3917   17.7724 C.3       1 UNK         0.0000 
     31 C31         7.1389   56.2706   16.5162 C.3       1 UNK         0.0000 
     32 C32         6.5348   57.6581   16.8085 C.3       1 UNK         0.0000 
     33 C33         5.1765   57.4086   17.4922 C.3       1 UNK         0.0000 
     34 C34         5.1941   56.4924   18.7443 C.3       1 UNK         0.0000 
     35 C35         7.5000   58.4965   17.6892 C.2       1 UNK         0.0000 
     36 O36         7.2910   58.7065   18.8816 O.2       1 UNK         0.0000 
     37 N37         8.5932   58.9742   17.0961 N.am      1 UNK         0.0000 
     38 H38         5.3642   54.0926   24.8302 H         1 UNK         0.0000 
     39 H39         1.5863   53.3959   26.7882 H         1 UNK         0.0000 
     40 H40         4.9953   54.7022   29.0346 H         1 UNK         0.0000 
     41 H41         1.9548   52.7019   24.5530 H         1 UNK         0.0000 
     42 H42         1.5279   52.4117   22.4414 H         1 UNK         0.0000 
     43 H43         1.9711   53.6853   21.3839 H         1 UNK         0.0000 
     44 H44         1.6401   49.3142   19.8196 H         1 UNK         0.0000 
     45 H45         0.8850   49.7052   17.4479 H         1 UNK         0.0000 
     46 H46         0.1418   51.1392   18.1287 H         1 UNK         0.0000 
     47 H47         0.3617   51.4282   15.6935 H         1 UNK         0.0000 
     48 H48         2.0547   51.0157   15.7516 H         1 UNK         0.0000 
     49 H49         0.7615   53.5353   16.8989 H         1 UNK         0.0000 
     50 H50         1.8609   53.4514   15.5490 H         1 UNK         0.0000 
     51 H51         3.0399   54.2270   17.6276 H         1 UNK         0.0000 
     52 H52         3.7105   52.7542   17.0165 H         1 UNK         0.0000 
     53 H53         3.6907   54.6437   19.9729 H         1 UNK         0.0000 
     54 H54         4.9935   53.8396   20.8711 H         1 UNK         0.0000 
     55 H55         8.0277   55.8558   18.4556 H         1 UNK         0.0000 
     56 H56         7.7052   54.4309   17.4246 H         1 UNK         0.0000 
     57 H57         8.0624   56.3663   15.9423 H         1 UNK         0.0000 
     58 H58         6.5002   55.7519   15.7982 H         1 UNK         0.0000 
     59 H59         6.3941   58.2410   15.8949 H         1 UNK         0.0000 
     60 H60         4.5032   56.9858   16.7451 H         1 UNK         0.0000 
     61 H61         4.6776   58.3604   17.6795 H         1 UNK         0.0000 
     62 H62         4.1400   56.2676   18.8817 H         1 UNK         0.0000 
     63 H63         5.6055   57.0180   19.6061 H         1 UNK         0.0000 
     64 H64         8.7453   58.8325   16.1095 H         1 UNK         0.0000 
     65 H65         9.2408   59.5204   17.6397 H         1 UNK         0.0000 
     66 N66         3.7640   52.4956   19.8109 N.4       1 UNK         0.0000 
     67 H67         4.4593   51.8605   19.4171 H         1 UNK         0.0000 
@<TRIPOS>BOND
     1    1    6 ar   
     2    1    2 ar   
     3    1   38 1    
     4    2    3 ar   
     5    2    9 1    
     6    3    4 ar   
     7    3   39 1    
     8    4    5 ar   
     9    4    8 1    
    10    5    6 ar   
    11    5   40 1    
    12    6    7 1    
    13    9   10 am   BACKBONE|DICT|INTERRES
    14    9   41 1    
    15   10   11 2    
    16   10   12 1    
    17   12   13 1    
    18   12   42 1    
    19   12   43 1    
    20   13   14 1    
    21   13   15 1    
    22   13   66 1    
    23   15   16 2    
    24   15   17 am   BACKBONE|DICT|INTERRES
    25   17   18 1    
    26   17   44 1    
    27   18   19 1    
    28   18   24 1    
    29   18   20 1    
    30   20   21 1    
    31   20   45 1    
    32   20   46 1    
    33   21   22 1    
    34   21   47 1    
    35   21   48 1    
    36   22   23 1    
    37   22   49 1    
    38   22   50 1    
    39   23   24 1    
    40   23   51 1    
    41   23   52 1    
    42   24   25 1    
    43   24   66 1    
    44   26   27 1    
    45   26   53 1    
    46   26   54 1    
    47   26   66 1    
    48   27   28 2    
    49   27   29 am   BACKBONE|DICT|INTERRES
    50   29   34 1    
    51   29   30 1    
    52   30   31 1    
    53   30   55 1    
    54   30   56 1    
    55   31   32 1    
    56   31   57 1    
    57   31   58 1    
    58   32   33 1    
    59   32   35 1    
    60   32   59 1    
    61   33   34 1    
    62   33   60 1    
    63   33   61 1    
    64   34   62 1    
    65   34   63 1    
    66   35   36 2    
    67   35   37 am   BACKBONE|DICT|INTERRES
    68   37   64 1    
    69   37   65 1    
    70   66   67 1    
@<TRIPOS>SUBSTRUCTURE
     1 UNK         1 GROUP             0       ****    0 ROOT    
