@<TRIPOS>MOLECULE
ZINC39761515_2421
45   48    1
SMALL
USER_CHARGES


@<TRIPOS>ATOM
      1 C1         10.9489   55.4594   16.6943 C.ar      1 UNK         0.0000 
      2 C2         10.4462   54.3387   17.3519 C.ar      1 UNK         0.0000 
      3 C3          9.5044   54.5021   18.3645 C.ar      1 UNK         0.0000 
      4 C4          9.0680   55.7758   18.7205 C.ar      1 UNK         0.0000 
      5 C5          9.5662   56.8959   18.0468 C.ar      1 UNK         0.0000 
      6 C6         10.5117   56.7377   17.0361 C.ar      1 UNK         0.0000 
      7 C7          8.0286   55.9422   19.7697 C.2       1 UNK         0.0000 
      8 N8          6.9790   56.7165   19.6797 N.2       1 UNK         0.0000 
      9 N9          6.3044   56.5707   20.8762 N.2       1 UNK         0.0000 
     10 C10         6.9693   55.7026   21.5864 C.2       1 UNK         0.0000 
     11 O11         8.1155   55.2967   20.9748 O.3       1 UNK         0.0000 
     12 N12         6.7045   55.4628   22.9171 N.am      1 UNK         0.0000 
     13 C13         6.9033   54.3645   23.6649 C.2       1 UNK         0.0000 
     14 O14         7.5044   53.3636   23.2835 O.2       1 UNK         0.0000 
     15 C15         6.3101   54.4430   25.0639 C.ar      1 UNK         0.0000 
     16 C16         5.2550   55.2956   25.3464 C.ar      1 UNK         0.0000 
     17 C17         4.4483   55.0963   26.4646 C.ar      1 UNK         0.0000 
     18 C18         4.8407   54.1880   27.4473 C.ar      1 UNK         0.0000 
     19 C19         6.0243   53.4864   27.2884 C.ar      1 UNK         0.0000 
     20 C20         6.7110   53.5941   26.0865 C.ar      1 UNK         0.0000 
     21 N21         4.1593   54.0237   28.6519 N.am      1 UNK         0.0000 
     22 C22         2.8470   53.8843   28.9341 C.2       1 UNK         0.0000 
     23 O23         2.5074   54.1665   30.0817 O.2       1 UNK         0.0000 
     24 C24         1.8183   53.2700   27.9856 C.ar      1 UNK         0.0000 
     25 C25         0.5292   53.0007   28.4830 C.ar      1 UNK         0.0000 
     26 C26        -0.4451   52.4051   27.6860 C.ar      1 UNK         0.0000 
     27 C27        -0.1588   52.0959   26.3625 C.ar      1 UNK         0.0000 
     28 C28         1.1045   52.3498   25.8442 C.ar      1 UNK         0.0000 
     29 C29         2.0904   52.9089   26.6541 C.ar      1 UNK         0.0000 
     30 Br30       -1.4988   51.3207   25.2563 Br        1 UNK         0.0000 
     31 H31        11.6815   55.3351   15.9103 H         1 UNK         0.0000 
     32 H32        10.7846   53.3485   17.0829 H         1 UNK         0.0000 
     33 H33         9.1050   53.6446   18.8763 H         1 UNK         0.0000 
     34 H34         9.2233   57.8871   18.3068 H         1 UNK         0.0000 
     35 H35        10.9018   57.6013   16.5180 H         1 UNK         0.0000 
     36 H36         6.1536   56.1812   23.3509 H         1 UNK         0.0000 
     37 H37         5.0999   56.0967   24.6650 H         1 UNK         0.0000 
     38 H38         3.5550   55.6866   26.5871 H         1 UNK         0.0000 
     39 H39         6.3632   52.7866   28.0389 H         1 UNK         0.0000 
     40 H40         7.5044   52.8968   25.9166 H         1 UNK         0.0000 
     41 H41         4.7489   54.1175   29.4643 H         1 UNK         0.0000 
     42 H42         0.2700   53.2297   29.5077 H         1 UNK         0.0000 
     43 H43        -1.4186   52.1761   28.0930 H         1 UNK         0.0000 
     44 H44         1.3305   52.0870   24.8212 H         1 UNK         0.0000 
     45 H45         3.0604   53.0129   26.2031 H         1 UNK         0.0000 
@<TRIPOS>BOND
     1    1    6 ar   
     2    1    2 ar   
     3    1   31 1    
     4    2    3 ar   
     5    2   32 1    
     6    3    4 ar   
     7    3   33 1    
     8    4    5 ar   
     9    4    7 1    
    10    5    6 ar   
    11    5   34 1    
    12    6   35 1    
    13    7   11 1    
    14    7    8 2    
    15    8    9 1    
    16    9   10 2    
    17   10   11 1    
    18   10   12 am   BACKBONE|DICT|INTERRES
    19   12   13 am   BACKBONE|DICT|INTERRES
    20   12   36 1    
    21   13   14 2    
    22   13   15 1    
    23   15   20 ar   
    24   15   16 ar   
    25   16   17 ar   
    26   16   37 1    
    27   17   18 ar   
    28   17   38 1    
    29   18   19 ar   
    30   18   21 1    
    31   19   20 ar   
    32   19   39 1    
    33   20   40 1    
    34   21   22 am   BACKBONE|DICT|INTERRES
    35   21   41 1    
    36   22   23 2    
    37   22   24 1    
    38   24   29 ar   
    39   24   25 ar   
    40   25   26 ar   
    41   25   42 1    
    42   26   27 ar   
    43   26   43 1    
    44   27   28 ar   
    45   27   30 1    
    46   28   29 ar   
    47   28   44 1    
    48   29   45 1    
@<TRIPOS>SUBSTRUCTURE
     1 UNK         1 GROUP             0       ****    0 ROOT    
