@<TRIPOS>MOLECULE
ZINC40973220_348
60   63    1
SMALL
USER_CHARGES


@<TRIPOS>ATOM
      1 C1         -2.6116   46.1087   26.3423 C.3       1 UNK         0.0000 
      2 C2         -2.4587   47.2068   25.2785 C.3       1 UNK         0.0000 
      3 N3         -1.2788   48.1111   25.6817 N.4       1 UNK         0.0000 
      4 C4         -1.2334   49.5601   25.1294 C.3       1 UNK         0.0000 
      5 C5          0.1128   50.1429   25.6116 C.3       1 UNK         0.0000 
      6 C6          0.5243   51.4344   24.8853 C.3       1 UNK         0.0000 
      7 N7          0.5943   51.2865   23.4155 N.pl3     1 UNK         0.0000 
      8 C8         -0.6922   50.8035   22.8803 C.3       1 UNK         0.0000 
      9 C9         -1.2412   49.5268   23.5744 C.3       1 UNK         0.0000 
     10 C10         1.5031   52.0265   22.6482 C.ar      1 UNK         0.0000 
     11 C11         1.6369   51.9014   21.2626 C.ar      1 UNK         0.0000 
     12 N12         2.6513   52.4956   20.5855 N.ar      1 UNK         0.0000 
     13 C13         3.6051   53.1905   21.2755 C.ar      1 UNK         0.0000 
     14 C14         3.5054   53.2965   22.6860 C.ar      1 UNK         0.0000 
     15 N15         2.4283   52.7558   23.3212 N.ar      1 UNK         0.0000 
     16 C16         4.5411   53.8176   23.6458 C.ar      1 UNK         0.0000 
     17 C17         5.9152   53.7010   23.3869 C.ar      1 UNK         0.0000 
     18 C18         6.8405   54.0982   24.3497 C.ar      1 UNK         0.0000 
     19 N19         6.4858   54.5187   25.5863 N.ar      1 UNK         0.0000 
     20 C20         5.1628   54.5723   25.8731 C.ar      1 UNK         0.0000 
     21 C21         4.1784   54.2859   24.9246 C.ar      1 UNK         0.0000 
     22 Cl22        4.6869   54.8962   27.4972 Cl        1 UNK         0.0000 
     23 C23         4.7077   53.7396   20.4139 C.ar      1 UNK         0.0000 
     24 C24         5.1462   53.0427   19.2809 C.ar      1 UNK         0.0000 
     25 C25         6.1763   53.5290   18.4805 C.ar      1 UNK         0.0000 
     26 C26         6.8006   54.7367   18.7993 C.ar      1 UNK         0.0000 
     27 C27         6.3628   55.4550   19.9141 C.ar      1 UNK         0.0000 
     28 C28         5.3278   54.9596   20.7009 C.ar      1 UNK         0.0000 
     29 C29         7.9634   55.2417   17.9458 C.3       1 UNK         0.0000 
     30 F30         8.8212   54.2516   17.7011 F         1 UNK         0.0000 
     31 F31         7.4931   55.6960   16.7855 F         1 UNK         0.0000 
     32 F32         8.6327   56.2275   18.5447 F         1 UNK         0.0000 
     33 C33        -2.3899   50.4382   25.7121 C.2       1 UNK         0.0000 
     34 O34        -2.7957   51.4347   25.1189 O.2       1 UNK         0.0000 
     35 N35        -2.9305   50.0974   26.8820 N.am      1 UNK         0.0000 
     36 H36        -3.4172   45.4207   26.0905 H         1 UNK         0.0000 
     37 H37        -2.8600   46.5326   27.3171 H         1 UNK         0.0000 
     38 H38        -1.6960   45.5341   26.4762 H         1 UNK         0.0000 
     39 H39        -2.2181   46.8280   24.2844 H         1 UNK         0.0000 
     40 H40        -3.3479   47.8380   25.2268 H         1 UNK         0.0000 
     41 H41        -1.2951   48.1855   26.7025 H         1 UNK         0.0000 
     42 H42         0.0682   50.3638   26.6814 H         1 UNK         0.0000 
     43 H43         0.9246   49.4159   25.5327 H         1 UNK         0.0000 
     44 H44        -0.1442   52.2616   25.1292 H         1 UNK         0.0000 
     45 H45         1.4985   51.6988   25.2946 H         1 UNK         0.0000 
     46 H46        -1.4193   51.6160   22.9099 H         1 UNK         0.0000 
     47 H47        -0.5751   50.5447   21.8300 H         1 UNK         0.0000 
     48 H48        -0.7238   48.6463   23.1910 H         1 UNK         0.0000 
     49 H49        -2.2619   49.3708   23.2199 H         1 UNK         0.0000 
     50 H50         0.9734   51.3020   20.6608 H         1 UNK         0.0000 
     51 H51         6.2809   53.2727   22.4698 H         1 UNK         0.0000 
     52 H52         7.8993   54.0180   24.1514 H         1 UNK         0.0000 
     53 H53         3.1406   54.3478   25.2168 H         1 UNK         0.0000 
     54 H54         4.6939   52.0974   19.0174 H         1 UNK         0.0000 
     55 H55         6.4934   52.9500   17.6233 H         1 UNK         0.0000 
     56 H56         6.8208   56.3959   20.1797 H         1 UNK         0.0000 
     57 H57         5.0110   55.5347   21.5549 H         1 UNK         0.0000 
     58 H58        -2.4781   49.4135   27.4945 H         1 UNK         0.0000 
     59 H59        -3.6881   50.6513   27.2498 H         1 UNK         0.0000 
     60 H60        -0.4062   47.6431   25.4766 H         1 UNK         0.0000 
@<TRIPOS>BOND
     1    1    2 1    
     2    1   36 1    
     3    1   37 1    
     4    1   38 1    
     5    2    3 1    
     6    2   39 1    
     7    2   40 1    
     8    3    4 1    
     9    3   41 1    
    10    3   60 1    
    11    4    9 1    
    12    4    5 1    
    13    4   33 1    
    14    5    6 1    
    15    5   42 1    
    16    5   43 1    
    17    6    7 1    
    18    6   44 1    
    19    6   45 1    
    20    7    8 1    
    21    7   10 1    
    22    8    9 1    
    23    8   46 1    
    24    8   47 1    
    25    9   48 1    
    26    9   49 1    
    27   10   15 ar   
    28   10   11 ar   
    29   11   12 ar   
    30   11   50 1    
    31   12   13 ar   
    32   13   14 ar   
    33   13   23 1    
    34   14   15 ar   
    35   14   16 1    
    36   16   21 ar   
    37   16   17 ar   
    38   17   18 ar   
    39   17   51 1    
    40   18   19 ar   
    41   18   52 1    
    42   19   20 ar   
    43   20   21 ar   
    44   20   22 1    
    45   21   53 1    
    46   23   28 ar   
    47   23   24 ar   
    48   24   25 ar   
    49   24   54 1    
    50   25   26 ar   
    51   25   55 1    
    52   26   27 ar   
    53   26   29 1    
    54   27   28 ar   
    55   27   56 1    
    56   28   57 1    
    57   29   30 1    
    58   29   31 1    
    59   29   32 1    
    60   33   34 2    
    61   33   35 am   BACKBONE|DICT|INTERRES
    62   35   58 1    
    63   35   59 1    
@<TRIPOS>SUBSTRUCTURE
     1 UNK         1 GROUP             0       ****    0 ROOT    
