@<TRIPOS>MOLECULE
ZINC63376156_4095
60   65    1
SMALL
USER_CHARGES


@<TRIPOS>ATOM
      1 C1         -5.0794   52.1896   24.7367 C.3       1 UNK         0.0000 
      2 C2         -4.0763   51.0543   24.9821 C.3       1 UNK         0.0000 
      3 C3         -2.7480   51.2670   24.2442 C.3       1 UNK         0.0000 
      4 C4         -1.7319   50.1435   24.5315 C.3       1 UNK         0.0000 
      5 N5         -0.4348   50.3542   23.8739 N.am      1 UNK         0.0000 
      6 C6          0.5136   51.1636   24.3963 C.2       1 UNK         0.0000 
      7 O7          0.4510   51.8124   25.4424 O.2       1 UNK         0.0000 
      8 C8          1.7351   51.0898   23.4891 C.3       1 UNK         0.0000 
      9 H9          2.5183   50.6272   24.0814 H         1 UNK         0.0000 
     10 C10         2.1801   52.4280   22.8526 C.3       1 UNK         0.0000 
     11 H11         3.2144   52.2918   22.5382 H         1 UNK         0.0000 
     12 N12         1.4093   52.5020   21.6262 N.3       1 UNK         0.0000 
     13 C13         1.3617   51.1535   21.0519 C.3       1 UNK         0.0000 
     14 C14         1.3052   50.2236   22.3240 C.3       1 UNK         0.0000 
     15 H15         1.9503   49.3437   22.2560 H         1 UNK         0.0000 
     16 C16        -0.0883   49.7363   22.7195 C.2       1 UNK         0.0000 
     17 O17        -0.7454   48.9088   22.0862 O.2       1 UNK         0.0000 
     18 C18         0.3262   51.0246   19.9633 C.ar      1 UNK         0.0000 
     19 C19        -1.0450   51.2981   19.9595 C.ar      1 UNK         0.0000 
     20 C20        -1.7845   51.1172   18.7913 C.ar      1 UNK         0.0000 
     21 C21        -1.1569   50.6520   17.6309 C.ar      1 UNK         0.0000 
     22 C22         0.2167   50.3879   17.6298 C.ar      1 UNK         0.0000 
     23 C23         0.9411   50.5924   18.8021 C.ar      1 UNK         0.0000 
     24 N24         2.3042   50.4800   19.0144 N.am      1 UNK         0.0000 
     25 C25         2.6709   50.8447   20.2556 C.2       1 UNK         0.0000 
     26 O26         3.8218   50.8970   20.6908 O.2       1 UNK         0.0000 
     27 Cl27       -3.4700   51.4897   18.7852 Cl        1 UNK         0.0000 
     28 C28         2.2086   53.7375   23.6842 C.3       1 UNK         0.0000 
     29 C29         3.4371   53.8833   24.5709 C.2       1 UNK         0.0000 
     30 C30         3.5760   53.9450   25.9104 C.2       1 UNK         0.0000 
     31 C31         2.5796   53.8650   26.9889 C.2       1 UNK         0.0000 
     32 C32         2.9531   53.9526   28.2811 C.2       1 UNK         0.0000 
     33 C33         4.3703   54.1260   28.5747 C.2       1 UNK         0.0000 
     34 C34         5.3065   54.1943   27.5934 C.2       1 UNK         0.0000 
     35 C35         4.9258   54.1066   26.2477 C.2       1 UNK         0.0000 
     36 N36         5.6683   54.1598   25.1685 N.pl3     1 UNK         0.0000 
     37 C37         4.8252   54.0138   23.9717 C.3       1 UNK         0.0000 
     38 H38        -5.9983   52.0235   25.2995 H         1 UNK         0.0000 
     39 H39        -4.6713   53.1536   25.0467 H         1 UNK         0.0000 
     40 H40        -5.3457   52.2607   23.6808 H         1 UNK         0.0000 
     41 H41        -4.5235   50.1060   24.6778 H         1 UNK         0.0000 
     42 H42        -3.8905   50.9695   26.0535 H         1 UNK         0.0000 
     43 H43        -2.3227   52.2267   24.5454 H         1 UNK         0.0000 
     44 H44        -2.9375   51.3248   23.1700 H         1 UNK         0.0000 
     45 H45        -2.1642   49.1857   24.2314 H         1 UNK         0.0000 
     46 H46        -1.5837   50.0515   25.6099 H         1 UNK         0.0000 
     47 H47         1.7817   53.1760   20.9643 H         1 UNK         0.0000 
     48 H48        -1.5330   51.6569   20.8536 H         1 UNK         0.0000 
     49 H49        -1.7300   50.5081   16.7270 H         1 UNK         0.0000 
     50 H50         0.7020   50.0555   16.7231 H         1 UNK         0.0000 
     51 H51         2.9862   50.2194   18.3080 H         1 UNK         0.0000 
     52 H52         2.2289   54.5864   22.9997 H         1 UNK         0.0000 
     53 H53         1.2951   53.8725   24.2606 H         1 UNK         0.0000 
     54 H54         1.5304   53.7216   26.7793 H         1 UNK         0.0000 
     55 H55         2.2220   53.8875   29.0746 H         1 UNK         0.0000 
     56 H56         4.6849   54.2092   29.6040 H         1 UNK         0.0000 
     57 H57         6.3423   54.3260   27.8736 H         1 UNK         0.0000 
     58 H58         5.1655   53.1325   23.4279 H         1 UNK         0.0000 
     59 H59         4.9573   54.8941   23.3476 H         1 UNK         0.0000 
     60 H60         6.6786   54.2668   25.1478 H         1 UNK         0.0000 
@<TRIPOS>BOND
     1    1    2 1    
     2    1   38 1    
     3    1   39 1    
     4    1   40 1    
     5    2    3 1    
     6    2   41 1    
     7    2   42 1    
     8    3    4 1    
     9    3   43 1    
    10    3   44 1    
    11    4    5 1    
    12    4   45 1    
    13    4   46 1    
    14    5   16 am   BACKBONE|DICT|INTERRES
    15    5    6 am   BACKBONE|DICT|INTERRES
    16    6    7 2    
    17    6    8 1    
    18    8    9 1    
    19    8   14 1    
    20    8   10 1    
    21   10   11 1    
    22   10   12 1    
    23   10   28 1    
    24   12   13 1    
    25   12   47 1    
    26   13   25 1    
    27   13   14 1    
    28   13   18 1    
    29   14   15 1    
    30   14   16 1    
    31   16   17 2    
    32   18   23 ar   
    33   18   19 ar   
    34   19   20 ar   
    35   19   48 1    
    36   20   21 ar   
    37   20   27 1    
    38   21   22 ar   
    39   21   49 1    
    40   22   23 ar   
    41   22   50 1    
    42   23   24 1    
    43   24   25 am   BACKBONE|DICT|INTERRES
    44   24   51 1    
    45   25   26 2    
    46   28   29 1    
    47   28   52 1    
    48   28   53 1    
    49   29   37 1    
    50   29   30 2    
    51   30   35 1    
    52   30   31 1    
    53   31   32 2    
    54   31   54 1    
    55   32   33 1    
    56   32   55 1    
    57   33   34 2    
    58   33   56 1    
    59   34   35 1    
    60   34   57 1    
    61   35   36 2    
    62   36   37 1    
    63   36   60 1    
    64   37   58 1    
    65   37   59 1    
@<TRIPOS>SUBSTRUCTURE
     1 UNK         1 GROUP             0       ****    0 ROOT    
