@<TRIPOS>MOLECULE
ZINC13124513_4055
51   54    1
SMALL
USER_CHARGES


@<TRIPOS>ATOM
      1 C1          0.9524   55.5360   30.7640 C.3       1 UNK         0.0000 
      2 C2          0.8141   54.3326   29.8549 C.ar      1 UNK         0.0000 
      3 C3          1.5241   54.0288   28.6736 C.ar      1 UNK         0.0000 
      4 C4          0.9801   52.8237   28.2614 C.ar      1 UNK         0.0000 
      5 N5          0.0280   52.4941   29.1841 N.pl3     1 UNK         0.0000 
      6 N6         -0.0819   53.4120   30.1467 N.2       1 UNK         0.0000 
      7 C7         -0.8558   51.3446   29.1856 C.3       1 UNK         0.0000 
      8 C8          2.5645   54.8660   27.9552 C.3       1 UNK         0.0000 
      9 N9          3.9593   54.4331   28.1882 N.am      1 UNK         0.0000 
     10 C10         4.3338   54.4290   29.6021 C.3       1 UNK         0.0000 
     11 C11         4.9125   54.1470   27.2503 C.2       1 UNK         0.0000 
     12 O12         6.0874   53.9166   27.5550 O.2       1 UNK         0.0000 
     13 C13         4.5515   54.0975   25.8479 C.ar      1 UNK         0.0000 
     14 C14         5.3948   54.4965   24.7889 C.ar      1 UNK         0.0000 
     15 C15         4.7343   54.1150   23.6374 C.ar      1 UNK         0.0000 
     16 N16         3.5049   53.6298   24.0378 N.pl3     1 UNK         0.0000 
     17 N17         3.4303   53.5965   25.3717 N.2       1 UNK         0.0000 
     18 C18         2.5184   52.9555   23.1757 C.3       1 UNK         0.0000 
     19 H19         2.7201   51.8860   23.1967 H         1 UNK         0.0000 
     20 C20         2.7898   53.4650   21.7457 C.3       1 UNK         0.0000 
     21 C21         4.2849   53.4007   21.3596 C.3       1 UNK         0.0000 
     22 H22         4.6267   52.3705   21.4755 H         1 UNK         0.0000 
     23 N23         5.0471   54.2288   22.2980 N.pl3     1 UNK         0.0000 
     24 C24         4.5158   53.8187   19.9151 C.2       1 UNK         0.0000 
     25 C25         5.2436   54.8916   19.3873 C.2       1 UNK         0.0000 
     26 C26         5.2246   54.9789   17.9938 C.2       1 UNK         0.0000 
     27 C27         4.4667   53.9784   17.4159 C.2       1 UNK         0.0000 
     28 S28         3.7739   52.9341   18.6070 S.3       1 UNK         0.0000 
     29 C29         1.0486   53.0942   23.6241 C.3       1 UNK         0.0000 
     30 F30         0.2209   52.4971   22.7650 F         1 UNK         0.0000 
     31 F31         0.8245   52.5549   24.8231 F         1 UNK         0.0000 
     32 F32         0.7063   54.3742   23.6832 F         1 UNK         0.0000 
     33 Br33        7.0963   55.3472   24.8806 Br        1 UNK         0.0000 
     34 H34         0.7047   55.2972   31.7990 H         1 UNK         0.0000 
     35 H35         1.9597   55.9417   30.7616 H         1 UNK         0.0000 
     36 H36         0.3101   56.3591   30.4671 H         1 UNK         0.0000 
     37 H37         1.1731   52.1920   27.4068 H         1 UNK         0.0000 
     38 H38        -0.4950   50.5984   28.4742 H         1 UNK         0.0000 
     39 H39        -1.8590   51.6564   28.8933 H         1 UNK         0.0000 
     40 H40        -0.8956   50.9002   30.1834 H         1 UNK         0.0000 
     41 H41         2.3036   54.8964   26.9042 H         1 UNK         0.0000 
     42 H42         2.4853   55.9024   28.2871 H         1 UNK         0.0000 
     43 H43         5.4122   54.4972   29.7428 H         1 UNK         0.0000 
     44 H44         3.9008   55.2967   30.0816 H         1 UNK         0.0000 
     45 H45         3.9589   53.5346   30.1015 H         1 UNK         0.0000 
     46 H46         2.1742   52.9156   21.0339 H         1 UNK         0.0000 
     47 H47         2.4527   54.4962   21.6825 H         1 UNK         0.0000 
     48 H48         6.0072   54.3693   22.0186 H         1 UNK         0.0000 
     49 H49         5.7791   55.5983   20.0054 H         1 UNK         0.0000 
     50 H50         5.7415   55.7443   17.4334 H         1 UNK         0.0000 
     51 H51         4.2840   53.7994   16.3672 H         1 UNK         0.0000 
@<TRIPOS>BOND
     1    1    2 1    
     2    1   34 1    
     3    1   35 1    
     4    1   36 1    
     5    2    6 ar   
     6    2    3 ar   
     7    3    4 ar   
     8    3    8 1    
     9    4    5 ar   
    10    4   37 1    
    11    5    6 ar   
    12    5    7 1    
    13    7   38 1    
    14    7   39 1    
    15    7   40 1    
    16    8    9 1    
    17    8   41 1    
    18    8   42 1    
    19    9   10 1    
    20    9   11 am   BACKBONE|DICT|INTERRES
    21   10   43 1    
    22   10   44 1    
    23   10   45 1    
    24   11   12 2    
    25   11   13 1    
    26   13   17 ar   
    27   13   14 ar   
    28   14   15 ar   
    29   14   33 1    
    30   15   23 1    
    31   15   16 ar   
    32   16   17 ar   
    33   16   18 1    
    34   18   19 1    
    35   18   20 1    
    36   18   29 1    
    37   20   21 1    
    38   20   46 1    
    39   20   47 1    
    40   21   22 1    
    41   21   23 1    
    42   21   24 1    
    43   23   48 1    
    44   24   28 1    
    45   24   25 2    
    46   25   26 1    
    47   25   49 1    
    48   26   27 2    
    49   26   50 1    
    50   27   28 1    
    51   27   51 1    
    52   29   30 1    
    53   29   31 1    
    54   29   32 1    
@<TRIPOS>SUBSTRUCTURE
     1 UNK         1 GROUP             0       ****    0 ROOT    
