@<TRIPOS>MOLECULE
ZINC13131792_4016
58   62    1
SMALL
USER_CHARGES


@<TRIPOS>ATOM
      1 C1          1.1045   52.8874   30.7519 C.3       1 UNK         0.0000 
      2 C2          1.9176   53.1977   29.5171 C.2       1 UNK         0.0000 
      3 N3          3.1549   53.6117   29.5949 N.2       1 UNK         0.0000 
      4 C4          3.6999   53.8248   28.3650 C.ar      1 UNK         0.0000 
      5 C5          5.0098   54.2650   28.1333 C.ar      1 UNK         0.0000 
      6 C6          5.4320   54.4330   26.8129 C.ar      1 UNK         0.0000 
      7 C7          4.5905   54.1768   25.7229 C.ar      1 UNK         0.0000 
      8 C8          3.2668   53.7540   25.9431 C.ar      1 UNK         0.0000 
      9 C9          2.8374   53.5751   27.2678 C.ar      1 UNK         0.0000 
     10 S10         1.2826   53.0405   27.8891 S.3       1 UNK         0.0000 
     11 N11         5.1613   54.3780   24.4444 N.am      1 UNK         0.0000 
     12 C12         4.6703   54.0967   23.2121 C.2       1 UNK         0.0000 
     13 O13         3.5896   53.5421   23.0132 O.2       1 UNK         0.0000 
     14 C14         5.5284   54.5161   22.0311 C.ar      1 UNK         0.0000 
     15 C15         6.7499   55.1994   22.1982 C.ar      1 UNK         0.0000 
     16 C16         7.5024   55.6072   21.0959 C.ar      1 UNK         0.0000 
     17 C17         7.0491   55.3488   19.8049 C.ar      1 UNK         0.0000 
     18 C18         5.8476   54.6652   19.6140 C.ar      1 UNK         0.0000 
     19 C19         5.0926   54.2569   20.7185 C.ar      1 UNK         0.0000 
     20 S20         5.2855   54.2992   17.9492 S.o2      1 UNK         0.0000 
     21 O21         6.4722   54.3238   17.0837 O.2       1 UNK         0.0000 
     22 O22         4.4279   53.1135   18.0317 O.2       1 UNK         0.0000 
     23 N23         4.2604   55.6634   17.4843 N.pl3     1 UNK         0.0000 
     24 C24         2.8121   55.5417   17.2810 C.3       1 UNK         0.0000 
     25 C25         2.4671   56.0423   15.8626 C.3       1 UNK         0.0000 
     26 N26         2.9548   57.4242   15.6203 N.pl3     1 UNK         0.0000 
     27 C27         4.4063   57.5564   15.9151 C.3       1 UNK         0.0000 
     28 C28         4.7668   57.0316   17.3214 C.3       1 UNK         0.0000 
     29 C29         2.1413   58.4838   15.2117 C.ar      1 UNK         0.0000 
     30 C30         2.6864   59.6147   14.5819 C.ar      1 UNK         0.0000 
     31 C31         1.8773   60.6838   14.1993 C.ar      1 UNK         0.0000 
     32 C32         0.5081   60.6326   14.4365 C.ar      1 UNK         0.0000 
     33 C33        -0.0576   59.5182   15.0446 C.ar      1 UNK         0.0000 
     34 C34         0.7538   58.4522   15.4268 C.ar      1 UNK         0.0000 
     35 F35        -0.2786   61.6733   14.0778 F         1 UNK         0.0000 
     36 H36         0.9691   53.7714   31.3745 H         1 UNK         0.0000 
     37 H37         1.5769   52.1236   31.3709 H         1 UNK         0.0000 
     38 H38         0.1063   52.5200   30.5096 H         1 UNK         0.0000 
     39 H39         5.6789   54.4700   28.9566 H         1 UNK         0.0000 
     40 H40         6.4455   54.7646   26.6455 H         1 UNK         0.0000 
     41 H41         2.5815   53.5577   25.1333 H         1 UNK         0.0000 
     42 H42         6.0882   54.7731   24.4588 H         1 UNK         0.0000 
     43 H43         7.1476   55.4246   23.1770 H         1 UNK         0.0000 
     44 H44         8.4541   56.0980   21.2448 H         1 UNK         0.0000 
     45 H45         7.6449   55.6590   18.9576 H         1 UNK         0.0000 
     46 H46         4.1598   53.7345   20.5442 H         1 UNK         0.0000 
     47 H47         2.5321   54.4929   17.3745 H         1 UNK         0.0000 
     48 H48         2.2843   56.0958   18.0524 H         1 UNK         0.0000 
     49 H49         3.0118   55.4569   15.1200 H         1 UNK         0.0000 
     50 H50         1.4105   55.8957   15.6459 H         1 UNK         0.0000 
     51 H51         4.7737   58.5761   15.8114 H         1 UNK         0.0000 
     52 H52         4.8831   56.9406   15.1487 H         1 UNK         0.0000 
     53 H53         4.3248   57.6676   18.0816 H         1 UNK         0.0000 
     54 H54         5.8463   57.0261   17.4683 H         1 UNK         0.0000 
     55 H55         3.7446   59.6867   14.3852 H         1 UNK         0.0000 
     56 H56         2.3129   61.5535   13.7301 H         1 UNK         0.0000 
     57 H57        -1.1199   59.4883   15.2341 H         1 UNK         0.0000 
     58 H58         0.2871   57.6193   15.9275 H         1 UNK         0.0000 
@<TRIPOS>BOND
     1    1    2 1    
     2    1   36 1    
     3    1   37 1    
     4    1   38 1    
     5    2   10 1    
     6    2    3 2    
     7    3    4 1    
     8    4    9 ar   
     9    4    5 ar   
    10    5    6 ar   
    11    5   39 1    
    12    6    7 ar   
    13    6   40 1    
    14    7    8 ar   
    15    7   11 1    
    16    8    9 ar   
    17    8   41 1    
    18    9   10 1    
    19   11   12 am   BACKBONE|DICT|INTERRES
    20   11   42 1    
    21   12   13 2    
    22   12   14 1    
    23   14   19 ar   
    24   14   15 ar   
    25   15   16 ar   
    26   15   43 1    
    27   16   17 ar   
    28   16   44 1    
    29   17   18 ar   
    30   17   45 1    
    31   18   19 ar   
    32   18   20 1    
    33   19   46 1    
    34   20   21 2    
    35   20   22 2    
    36   20   23 1    
    37   23   28 1    
    38   23   24 1    
    39   24   25 1    
    40   24   47 1    
    41   24   48 1    
    42   25   26 1    
    43   25   49 1    
    44   25   50 1    
    45   26   27 1    
    46   26   29 1    
    47   27   28 1    
    48   27   51 1    
    49   27   52 1    
    50   28   53 1    
    51   28   54 1    
    52   29   34 ar   
    53   29   30 ar   
    54   30   31 ar   
    55   30   55 1    
    56   31   32 ar   
    57   31   56 1    
    58   32   33 ar   
    59   32   35 1    
    60   33   34 ar   
    61   33   57 1    
    62   34   58 1    
@<TRIPOS>SUBSTRUCTURE
     1 UNK         1 GROUP             0       ****    0 ROOT    
