@<TRIPOS>MOLECULE
ZINC49008032_40
57   60    1
SMALL
USER_CHARGES


@<TRIPOS>ATOM
      1 C1         -7.7487   51.5874   25.4518 C.3       1 UNK         0.0000 
      2 C2         -6.2860   51.3838   25.8007 C.ar      1 UNK         0.0000 
      3 C3         -5.9350   50.6572   26.9386 C.ar      1 UNK         0.0000 
      4 C4         -4.5930   50.4617   27.2588 C.ar      1 UNK         0.0000 
      5 C5         -3.5853   50.9983   26.4526 C.ar      1 UNK         0.0000 
      6 C6         -3.9316   51.7059   25.2780 C.ar      1 UNK         0.0000 
      7 C7         -5.2842   51.8958   24.9734 C.ar      1 UNK         0.0000 
      8 C8         -2.9004   52.2249   24.2816 C.3       1 UNK         0.0000 
      9 N9         -2.2700   50.7582   26.8819 N.am      1 UNK         0.0000 
     10 C10        -1.3310   51.6993   27.0927 C.2       1 UNK         0.0000 
     11 O11        -1.5004   52.8967   26.8814 O.2       1 UNK         0.0000 
     12 C12        -0.0065   51.1788   27.6614 C.3       1 UNK         0.0000 
     13 N13         0.9065   52.2379   28.1631 N.pl3     1 UNK         0.0000 
     14 C14         1.7791   52.9219   27.2535 C.ar      1 UNK         0.0000 
     15 C15         1.6643   52.8828   25.8618 C.ar      1 UNK         0.0000 
     16 C16         2.6500   53.4579   25.0633 C.ar      1 UNK         0.0000 
     17 C17         3.7933   54.0576   25.6290 C.ar      1 UNK         0.0000 
     18 C18         3.8628   54.1666   27.0279 C.ar      1 UNK         0.0000 
     19 C19         2.8647   53.6153   27.8356 C.ar      1 UNK         0.0000 
     20 N20         2.9937   53.7329   29.2392 N.2       1 UNK         0.0000 
     21 C21         2.0692   53.2193   29.9676 C.ar      1 UNK         0.0000 
     22 C22         0.8862   52.4849   29.5156 C.ar      1 UNK         0.0000 
     23 O23         0.0162   52.0988   30.2953 O.2       1 UNK         0.0000 
     24 C24         4.9717   54.4904   24.7763 C.2       1 UNK         0.0000 
     25 O25         5.9693   55.0049   25.2857 O.2       1 UNK         0.0000 
     26 N26         4.8716   54.1956   23.4643 N.am      1 UNK         0.0000 
     27 C27         5.9020   54.1922   22.4217 C.3       1 UNK         0.0000 
     28 C28         5.2309   54.1756   21.0323 C.3       1 UNK         0.0000 
     29 C29         6.1334   54.9893   20.1055 C.3       1 UNK         0.0000 
     30 C30         6.6818   56.0818   21.0176 C.3       1 UNK         0.0000 
     31 C31         6.8670   55.4030   22.3812 C.3       1 UNK         0.0000 
     32 H32        -8.2978   50.6523   25.5683 H         1 UNK         0.0000 
     33 H33        -7.8792   51.9099   24.4178 H         1 UNK         0.0000 
     34 H34        -8.1992   52.3247   26.1164 H         1 UNK         0.0000 
     35 H35        -6.7004   50.2435   27.5790 H         1 UNK         0.0000 
     36 H36        -4.3386   49.9009   28.1481 H         1 UNK         0.0000 
     37 H37        -5.5608   52.4385   24.0812 H         1 UNK         0.0000 
     38 H38        -1.9970   51.6153   24.2852 H         1 UNK         0.0000 
     39 H39        -3.2885   52.1796   23.2641 H         1 UNK         0.0000 
     40 H40        -2.6371   53.2595   24.5015 H         1 UNK         0.0000 
     41 H41        -2.0957   49.8488   27.3041 H         1 UNK         0.0000 
     42 H42        -0.2468   50.4956   28.4719 H         1 UNK         0.0000 
     43 H43         0.5018   50.5703   26.9136 H         1 UNK         0.0000 
     44 H44         0.8360   52.3813   25.3845 H         1 UNK         0.0000 
     45 H45         2.5260   53.3665   23.9944 H         1 UNK         0.0000 
     46 H46         4.7151   54.6392   27.4976 H         1 UNK         0.0000 
     47 H47         2.1814   53.2980   31.0424 H         1 UNK         0.0000 
     48 H48         4.0262   53.7208   23.1938 H         1 UNK         0.0000 
     49 H49         6.5176   53.2958   22.4953 H         1 UNK         0.0000 
     50 H50         5.0379   53.1640   20.6717 H         1 UNK         0.0000 
     51 H51         4.2571   54.6701   21.0702 H         1 UNK         0.0000 
     52 H52         6.9433   54.3757   19.7078 H         1 UNK         0.0000 
     53 H53         5.5890   55.3981   19.2529 H         1 UNK         0.0000 
     54 H54         7.6143   56.4968   20.6339 H         1 UNK         0.0000 
     55 H55         5.9581   56.8956   21.0964 H         1 UNK         0.0000 
     56 H56         6.7138   56.1096   23.1913 H         1 UNK         0.0000 
     57 H57         7.8983   55.0515   22.4533 H         1 UNK         0.0000 
@<TRIPOS>BOND
     1    1    2 1    
     2    1   32 1    
     3    1   33 1    
     4    1   34 1    
     5    2    7 ar   
     6    2    3 ar   
     7    3    4 ar   
     8    3   35 1    
     9    4    5 ar   
    10    4   36 1    
    11    5    6 ar   
    12    5    9 1    
    13    6    7 ar   
    14    6    8 1    
    15    7   37 1    
    16    8   38 1    
    17    8   39 1    
    18    8   40 1    
    19    9   10 am   BACKBONE|DICT|INTERRES
    20    9   41 1    
    21   10   11 2    
    22   10   12 1    
    23   12   13 1    
    24   12   42 1    
    25   12   43 1    
    26   13   22 ar   
    27   13   14 ar   
    28   14   19 ar   
    29   14   15 ar   
    30   15   16 ar   
    31   15   44 1    
    32   16   17 ar   
    33   16   45 1    
    34   17   18 ar   
    35   17   24 1    
    36   18   19 ar   
    37   18   46 1    
    38   19   20 ar   
    39   20   21 ar   
    40   21   22 ar   
    41   21   47 1    
    42   22   23 2    
    43   24   25 2    
    44   24   26 am   BACKBONE|DICT|INTERRES
    45   26   27 1    
    46   26   48 1    
    47   27   31 1    
    48   27   28 1    
    49   27   49 1    
    50   28   29 1    
    51   28   50 1    
    52   28   51 1    
    53   29   30 1    
    54   29   52 1    
    55   29   53 1    
    56   30   31 1    
    57   30   54 1    
    58   30   55 1    
    59   31   56 1    
    60   31   57 1    
@<TRIPOS>SUBSTRUCTURE
     1 UNK         1 GROUP             0       ****    0 ROOT    
