ZINC63514848_356
                    3D
 Schrodinger Suite 2024-2.
 63 67  0  0  1  0            999 V2000
    5.3850   58.4973   16.6072 C   0  0  0  0  0  0
    6.5734   58.4433   17.5869 C   0  0  1  0  0  0
    6.5187   59.2674   18.3014 H   0  0  0  0  0  0
    6.7607   57.1087   18.3007 C   0  0  0  0  0  0
    8.0170   56.6872   18.0377 C   0  0  0  0  0  0
    8.7822   55.5177   18.5153 C   0  0  0  0  0  0
   10.0353   55.2857   18.0809 C   0  0  0  0  0  0
   10.6222   56.2300   17.1443 C   0  0  0  0  0  0
    9.9506   57.3315   16.7199 C   0  0  0  0  0  0
    8.6454   57.5825   17.1635 C   0  0  0  0  0  0
    7.8539   58.5869   16.8785 N   0  3  0  0  0  0
    5.6502   56.5270   19.1633 C   0  0  0  0  0  0
    5.4454   54.9952   19.1303 C   0  0  0  0  0  0
    4.6979   54.4963   20.2861 N   0  0  0  0  0  0
    5.1491   54.4845   21.5614 C   0  0  0  0  0  0
    6.2768   54.9166   21.8038 O   0  0  0  0  0  0
    4.2075   54.0214   22.6023 C   0  0  0  0  0  0
    3.0907   53.3177   22.2486 C   0  0  0  0  0  0
    1.9492   52.8361   23.0761 C   0  0  0  0  0  0
    2.0267   52.5549   24.4581 C   0  0  0  0  0  0
    0.8929   52.2140   25.2084 C   0  0  0  0  0  0
   -0.3194   52.1404   24.5376 C   0  0  0  0  0  0
   -0.4085   52.3657   23.1966 C   0  0  0  0  0  0
    0.7046   52.7044   22.4347 C   0  0  0  0  0  0
   -1.7098   52.2809   22.8103 O   0  0  0  0  0  0
   -2.4077   51.7984   23.9300 C   0  0  0  0  0  0
   -1.5575   51.8989   25.0399 O   0  0  0  0  0  0
    4.3928   54.3676   23.9259 N   0  0  0  0  0  0
    5.4852   54.2197   24.7197 C   0  0  0  0  0  0
    6.6251   53.9927   24.3128 O   0  0  0  0  0  0
    5.2372   54.2915   26.2144 C   0  0  0  0  0  0
    6.3103   54.0942   27.0971 C   0  0  0  0  0  0
    6.1123   54.0966   28.4744 C   0  0  0  0  0  0
    4.8390   54.3055   28.9957 C   0  0  0  0  0  0
    3.7437   54.4932   28.1483 C   0  0  0  0  0  0
    3.9572   54.4969   26.7599 C   0  0  0  0  0  0
    2.3849   54.6560   28.7127 N   0  3  0  0  0  0
    2.2780   54.9094   29.9087 O   0  0  0  0  0  0
    1.4232   54.5107   27.9650 O   0  5  0  0  0  0
    4.4268   58.4547   17.1254 H   0  0  0  0  0  0
    5.3873   59.4363   16.0479 H   0  0  0  0  0  0
    5.4126   57.6796   15.8855 H   0  0  0  0  0  0
    8.4073   54.8348   19.2613 H   0  0  0  0  0  0
   10.6101   54.4521   18.4623 H   0  0  0  0  0  0
   11.6264   56.0489   16.7894 H   0  0  0  0  0  0
   10.4424   58.0016   16.0288 H   0  0  0  0  0  0
    4.7051   56.9904   18.8820 H   0  0  0  0  0  0
    5.8632   56.8740   20.1749 H   0  0  0  0  0  0
    6.3848   54.4498   19.1126 H   0  0  0  0  0  0
    4.9427   54.7045   18.2104 H   0  0  0  0  0  0
    3.7582   54.1780   20.1026 H   0  0  0  0  0  0
    2.9613   53.0391   21.2110 H   0  0  0  0  0  0
    2.9717   52.5750   24.9739 H   0  0  0  0  0  0
    0.9672   52.0200   26.2671 H   0  0  0  0  0  0
    0.6017   52.9111   21.3786 H   0  0  0  0  0  0
   -2.6637   50.7479   23.7751 H   0  0  0  0  0  0
   -3.3137   52.3849   24.0975 H   0  0  0  0  0  0
    3.5286   54.4052   24.4381 H   0  0  0  0  0  0
    7.3096   53.9220   26.7264 H   0  0  0  0  0  0
    6.9544   53.9532   29.1372 H   0  0  0  0  0  0
    4.7046   54.3094   30.0682 H   0  0  0  0  0  0
    3.1019   54.6537   26.1233 H   0  0  0  0  0  0
    8.0758   59.3677   16.2647 H   0  0  0  0  0  0
  1  2  1  0  0  0
  1 40  1  0  0  0
  1 41  1  0  0  0
  1 42  1  0  0  0
  2  3  1  0  0  0
  2 11  1  0  0  0
  2  4  1  0  0  0
  4  5  2  0  0  0
  4 12  1  0  0  0
  5 10  1  0  0  0
  5  6  1  0  0  0
  6  7  2  0  0  0
  6 43  1  0  0  0
  7  8  1  0  0  0
  7 44  1  0  0  0
  8  9  2  0  0  0
  8 45  1  0  0  0
  9 10  1  0  0  0
  9 46  1  0  0  0
 10 11  2  0  0  0
 11 63  1  0  0  0
 12 13  1  0  0  0
 12 47  1  0  0  0
 12 48  1  0  0  0
 13 14  1  0  0  0
 13 49  1  0  0  0
 13 50  1  0  0  0
 14 15  1  0  0  0
 14 51  1  0  0  0
 15 16  2  0  0  0
 15 17  1  0  0  0
 17 18  2  0  0  0
 17 28  1  0  0  0
 18 19  1  0  0  0
 18 52  1  0  0  0
 19 24  2  0  0  0
 19 20  1  0  0  0
 20 21  2  0  0  0
 20 53  1  0  0  0
 21 22  1  0  0  0
 21 54  1  0  0  0
 22 27  1  0  0  0
 22 23  2  0  0  0
 23 24  1  0  0  0
 23 25  1  0  0  0
 24 55  1  0  0  0
 25 26  1  0  0  0
 26 27  1  0  0  0
 26 56  1  0  0  0
 26 57  1  0  0  0
 28 29  1  0  0  0
 28 58  1  0  0  0
 29 30  2  0  0  0
 29 31  1  0  0  0
 31 36  2  0  0  0
 31 32  1  0  0  0
 32 33  2  0  0  0
 32 59  1  0  0  0
 33 34  1  0  0  0
 33 60  1  0  0  0
 34 35  2  0  0  0
 34 61  1  0  0  0
 35 36  1  0  0  0
 35 37  1  0  0  0
 36 62  1  0  0  0
 37 38  2  0  0  0
 37 39  1  0  0  0
M  CHG  3  11   1  37   1  39  -1
M  END
> <i_i_glide_confnum>
177

> <i_i_glide_lignum>
357

> <i_i_glide_posenum>
334

> <i_i_glide_rotatable_bonds>
10

> <i_m_Source_File_Index>
1089

> <b_m_subgroup_collapsed>
0

> <r_i_docking_score>
-5.86938

> <r_i_glide_ecoul>
-5.40831

> <r_i_glide_eff_state_penalty>
0

> <r_i_glide_einternal>
11.8318

> <r_i_glide_emodel>
-66.2861

> <r_i_glide_energy>
-50.3822

> <r_i_glide_erotb>
0.622111

> <r_i_glide_esite>
-0.0369711

> <r_i_glide_evdw>
-44.9739

> <r_i_glide_gscore>
-5.86938

> <r_i_glide_hbond>
0

> <r_i_glide_ligand_efficiency>
-0.154457

> <r_i_glide_ligand_efficiency_ln>
-1.26561

> <r_i_glide_ligand_efficiency_sa>
-0.519282

> <r_i_glide_lipo>
-2.47451

> <r_i_glide_metal>
0

> <r_i_glide_rewards>
-0.920066

> <s_i_glide_gridfile>
wee1_glide-grid

> <s_m_Source_File>
wee1_decoys_glide_SP.sdf

> <s_m_Source_Path>
/Users/zhangxujun/Desktop

> <s_m_entry_id>
1364

> <s_m_entry_name>
wee1_decoys_glide_SP.1089

> <s_m_subgroup_title>
wee1_decoys_glide_SP

> <s_m_subgroupid>
wee1_decoys_glide_SP


$$$$
