@<TRIPOS>MOLECULE
ZINC00985863_4506
68   72    1
SMALL
USER_CHARGES


@<TRIPOS>ATOM
      1 C1          5.8481   54.7422   17.4516 C.3       1 UNK         0.0000 
      2 C2          4.7582   54.2441   18.4169 C.3       1 UNK         0.0000 
      3 C3          3.7058   53.4078   17.6631 C.3       1 UNK         0.0000 
      4 C4          5.3833   53.4787   19.6074 C.3       1 UNK         0.0000 
      5 C5          4.3727   53.0708   20.6729 C.ar      1 UNK         0.0000 
      6 C6          3.9025   54.0155   21.5861 C.ar      1 UNK         0.0000 
      7 C7          2.9400   53.6561   22.5256 C.ar      1 UNK         0.0000 
      8 C8          2.4564   52.3395   22.5874 C.ar      1 UNK         0.0000 
      9 C9          2.9629   51.3971   21.6861 C.ar      1 UNK         0.0000 
     10 C10         3.9069   51.7577   20.7319 C.ar      1 UNK         0.0000 
     11 C11         1.5066   51.9074   23.6738 C.ar      1 UNK         0.0000 
     12 C12         0.6813   50.7471   23.7542 C.ar      1 UNK         0.0000 
     13 C13         0.1548   50.8365   25.0276 C.ar      1 UNK         0.0000 
     14 N14         0.5890   51.9878   25.5945 N.pl3     1 UNK         0.0000 
     15 H15         0.3474   52.3123   26.5186 H         1 UNK         0.0000 
     16 N16         1.3911   52.6555   24.7655 N.2       1 UNK         0.0000 
     17 O17        -0.6754   49.9664   25.6775 O.3       1 UNK         0.0000 
     18 C18        -1.0656   48.9133   24.9107 C.2       1 UNK         0.0000 
     19 C19        -0.7091   48.6676   23.6238 C.2       1 UNK         0.0000 
     20 C20         0.2698   49.5750   22.8413 C.3       1 UNK         0.0000 
     21 H21         1.1532   48.9609   22.6639 H         1 UNK         0.0000 
     22 C22        -0.2541   50.0010   21.4599 C.ar      1 UNK         0.0000 
     23 C23         0.4864   49.6768   20.3176 C.ar      1 UNK         0.0000 
     24 C24         0.0407   50.0430   19.0533 C.ar      1 UNK         0.0000 
     25 C25        -1.1746   50.7029   18.9092 C.ar      1 UNK         0.0000 
     26 C26        -1.9629   51.0091   20.0308 C.ar      1 UNK         0.0000 
     27 C27        -1.4828   50.6766   21.3120 C.ar      1 UNK         0.0000 
     28 O28        -2.2665   50.9026   22.4201 O.3       1 UNK         0.0000 
     29 C29        -2.3401   52.2483   22.8812 C.3       1 UNK         0.0000 
     30 C30        -3.2986   52.3749   24.0634 C.ar      1 UNK         0.0000 
     31 C31        -3.7915   51.2456   24.7299 C.ar      1 UNK         0.0000 
     32 C32        -4.6714   51.3923   25.7993 C.ar      1 UNK         0.0000 
     33 C33        -5.0598   52.6661   26.2046 C.ar      1 UNK         0.0000 
     34 C34        -4.5700   53.7946   25.5538 C.ar      1 UNK         0.0000 
     35 C35        -3.6960   53.6475   24.4805 C.ar      1 UNK         0.0000 
     36 F36        -5.9237   52.8072   27.2357 F         1 UNK         0.0000 
     37 O37        -3.2101   51.6037   19.9379 O.3       1 UNK         0.0000 
     38 C38        -3.8246   51.7322   18.6616 C.3       1 UNK         0.0000 
     39 C39        -1.2961   47.5572   22.9449 C.1       1 UNK         0.0000 
     40 N40        -1.8165   46.6671   22.4183 N.1       1 UNK         0.0000 
     41 N41        -1.8928   48.1475   25.6817 N.pl3     1 UNK         0.0000 
     42 H42         6.3959   53.9093   17.0053 H         1 UNK         0.0000 
     43 H43         6.5734   55.3784   17.9619 H         1 UNK         0.0000 
     44 H44         5.4183   55.3284   16.6382 H         1 UNK         0.0000 
     45 H45         4.2508   55.1265   18.8145 H         1 UNK         0.0000 
     46 H46         4.1372   52.4843   17.2717 H         1 UNK         0.0000 
     47 H47         2.8709   53.1339   18.3101 H         1 UNK         0.0000 
     48 H48         3.2887   53.9624   16.8226 H         1 UNK         0.0000 
     49 H49         5.9109   52.5923   19.2482 H         1 UNK         0.0000 
     50 H50         6.1451   54.0970   20.0838 H         1 UNK         0.0000 
     51 H51         4.2686   55.0298   21.5579 H         1 UNK         0.0000 
     52 H52         2.5866   54.4062   23.2189 H         1 UNK         0.0000 
     53 H53         2.6708   50.3636   21.7487 H         1 UNK         0.0000 
     54 H54         4.2788   51.0097   20.0472 H         1 UNK         0.0000 
     55 H55         1.4187   49.1367   20.3960 H         1 UNK         0.0000 
     56 H56         0.6331   49.7992   18.1823 H         1 UNK         0.0000 
     57 H57        -1.4948   50.9559   17.9103 H         1 UNK         0.0000 
     58 H58        -1.3563   52.6077   23.1810 H         1 UNK         0.0000 
     59 H59        -2.6868   52.8970   22.0815 H         1 UNK         0.0000 
     60 H60        -3.5018   50.2516   24.4221 H         1 UNK         0.0000 
     61 H61        -5.0519   50.5217   26.3120 H         1 UNK         0.0000 
     62 H62        -4.8712   54.7773   25.8802 H         1 UNK         0.0000 
     63 H63        -3.3281   54.5244   23.9703 H         1 UNK         0.0000 
     64 H64        -4.8442   52.0924   18.7899 H         1 UNK         0.0000 
     65 H65        -3.2943   52.4465   18.0311 H         1 UNK         0.0000 
     66 H66        -3.8857   50.7729   18.1454 H         1 UNK         0.0000 
     67 H67        -2.3409   47.3290   25.3003 H         1 UNK         0.0000 
     68 H68        -1.7642   48.1649   26.6960 H         1 UNK         0.0000 
@<TRIPOS>BOND
     1    1    2 1    
     2    1   42 1    
     3    1   43 1    
     4    1   44 1    
     5    2    3 1    
     6    2    4 1    
     7    2   45 1    
     8    3   46 1    
     9    3   47 1    
    10    3   48 1    
    11    4    5 1    
    12    4   49 1    
    13    4   50 1    
    14    5   10 ar   
    15    5    6 ar   
    16    6    7 ar   
    17    6   51 1    
    18    7    8 ar   
    19    7   52 1    
    20    8    9 ar   
    21    8   11 1    
    22    9   10 ar   
    23    9   53 1    
    24   10   54 1    
    25   11   16 ar   
    26   11   12 ar   
    27   12   20 1    
    28   12   13 ar   
    29   13   14 ar   
    30   13   17 1    
    31   14   15 1    
    32   14   16 ar   
    33   17   18 1    
    34   18   19 2    
    35   18   41 1    
    36   19   20 1    
    37   19   39 1    
    38   20   21 1    
    39   20   22 1    
    40   22   27 ar   
    41   22   23 ar   
    42   23   24 ar   
    43   23   55 1    
    44   24   25 ar   
    45   24   56 1    
    46   25   26 ar   
    47   25   57 1    
    48   26   27 ar   
    49   26   37 1    
    50   27   28 1    
    51   28   29 1    
    52   29   30 1    
    53   29   58 1    
    54   29   59 1    
    55   30   35 ar   
    56   30   31 ar   
    57   31   32 ar   
    58   31   60 1    
    59   32   33 ar   
    60   32   61 1    
    61   33   34 ar   
    62   33   36 1    
    63   34   35 ar   
    64   34   62 1    
    65   35   63 1    
    66   37   38 1    
    67   38   64 1    
    68   38   65 1    
    69   38   66 1    
    70   39   40 3    
    71   41   67 1    
    72   41   68 1    
@<TRIPOS>SUBSTRUCTURE
     1 UNK         1 GROUP             0       ****    0 ROOT    
