@<TRIPOS>MOLECULE
ZINC00919797_1549
45   48    1
SMALL
USER_CHARGES


@<TRIPOS>ATOM
      1 C1          4.4605   54.1018   19.6406 C.3       1 UNK         0.0000 
      2 C2          5.7412   54.7252   20.1513 C.ar      1 UNK         0.0000 
      3 C3          6.1816   54.8967   21.4789 C.ar      1 UNK         0.0000 
      4 C4          7.4000   55.5514   21.3596 C.ar      1 UNK         0.0000 
      5 N5          7.6274   55.6672   20.0167 N.pl3     1 UNK         0.0000 
      6 N6          6.6227   55.1785   19.2845 N.2       1 UNK         0.0000 
      7 C7          8.7889   56.2192   19.3465 C.3       1 UNK         0.0000 
      8 N8          5.4866   54.4967   22.6068 N.am      1 UNK         0.0000 
      9 C9          5.9239   54.4967   23.8879 C.2       1 UNK         0.0000 
     10 O10         7.0748   54.7500   24.2539 O.2       1 UNK         0.0000 
     11 C11         4.8894   54.1762   24.8513 C.ar      1 UNK         0.0000 
     12 C12         5.0872   54.0313   26.2369 C.ar      1 UNK         0.0000 
     13 C13         3.8530   53.7344   26.7816 C.ar      1 UNK         0.0000 
     14 N14         2.9704   53.7712   25.7153 N.pl3     1 UNK         0.0000 
     15 N15         3.6065   54.0342   24.5660 N.2       1 UNK         0.0000 
     16 C16         1.5071   53.6273   25.7656 C.3       1 UNK         0.0000 
     17 H17         1.1088   54.4958   25.2421 H         1 UNK         0.0000 
     18 C18         1.1044   53.6966   27.2631 C.3       1 UNK         0.0000 
     19 C19         2.0744   52.9536   28.2033 C.3       1 UNK         0.0000 
     20 H20         2.1536   51.9122   27.8853 H         1 UNK         0.0000 
     21 N21         3.4074   53.5520   28.0785 N.pl3     1 UNK         0.0000 
     22 C22         1.5771   52.9743   29.6325 C.2       1 UNK         0.0000 
     23 C23         0.6088   53.7113   30.3040 C.2       1 UNK         0.0000 
     24 C24         0.5592   53.2331   31.6075 C.2       1 UNK         0.0000 
     25 C25         1.5047   52.2279   31.6817 C.2       1 UNK         0.0000 
     26 O26         2.1506   52.0967   30.4953 O.3       1 UNK         0.0000 
     27 C27         0.9049   52.4066   25.0171 C.3       1 UNK         0.0000 
     28 F28        -0.3760   52.6359   24.7254 F         1 UNK         0.0000 
     29 F29         1.5235   52.1429   23.8658 F         1 UNK         0.0000 
     30 F30         0.9262   51.2966   25.7498 F         1 UNK         0.0000 
     31 H31         3.7667   53.8579   20.4434 H         1 UNK         0.0000 
     32 H32         3.9291   54.7691   18.9621 H         1 UNK         0.0000 
     33 H33         4.6546   53.1773   19.0959 H         1 UNK         0.0000 
     34 H34         8.1142   55.9100   22.0817 H         1 UNK         0.0000 
     35 H35         9.5044   56.5841   20.0823 H         1 UNK         0.0000 
     36 H36         8.4830   57.0426   18.6999 H         1 UNK         0.0000 
     37 H37         9.2667   55.4413   18.7492 H         1 UNK         0.0000 
     38 H38         4.5426   54.1754   22.4519 H         1 UNK         0.0000 
     39 H39         6.0212   54.1262   26.7716 H         1 UNK         0.0000 
     40 H40         1.0467   54.7416   27.5756 H         1 UNK         0.0000 
     41 H41         0.0948   53.2973   27.3888 H         1 UNK         0.0000 
     42 H42         4.0481   53.1622   28.7547 H         1 UNK         0.0000 
     43 H43        -0.0081   54.4919   29.8885 H         1 UNK         0.0000 
     44 H44        -0.0948   53.5676   32.4004 H         1 UNK         0.0000 
     45 H45         1.8174   51.5710   32.4802 H         1 UNK         0.0000 
@<TRIPOS>BOND
     1    1    2 1    
     2    1   31 1    
     3    1   32 1    
     4    1   33 1    
     5    2    6 ar   
     6    2    3 ar   
     7    3    4 ar   
     8    3    8 1    
     9    4    5 ar   
    10    4   34 1    
    11    5    6 ar   
    12    5    7 1    
    13    7   35 1    
    14    7   36 1    
    15    7   37 1    
    16    8    9 am   BACKBONE|DICT|INTERRES
    17    8   38 1    
    18    9   10 2    
    19    9   11 1    
    20   11   15 ar   
    21   11   12 ar   
    22   12   13 ar   
    23   12   39 1    
    24   13   21 1    
    25   13   14 ar   
    26   14   15 ar   
    27   14   16 1    
    28   16   17 1    
    29   16   18 1    
    30   16   27 1    
    31   18   19 1    
    32   18   40 1    
    33   18   41 1    
    34   19   20 1    
    35   19   21 1    
    36   19   22 1    
    37   21   42 1    
    38   22   26 1    
    39   22   23 2    
    40   23   24 1    
    41   23   43 1    
    42   24   25 2    
    43   24   44 1    
    44   25   26 1    
    45   25   45 1    
    46   27   28 1    
    47   27   29 1    
    48   27   30 1    
@<TRIPOS>SUBSTRUCTURE
     1 UNK         1 GROUP             0       ****    0 ROOT    
