@<TRIPOS>MOLECULE
ZINC02229602_1268
59   63    1
SMALL
USER_CHARGES


@<TRIPOS>ATOM
      1 C1          0.4473   45.7157   18.2786 C.3       1 UNK         0.0000 
      2 C2          0.7401   47.1052   18.8296 C.ar      1 UNK         0.0000 
      3 C3          1.9855   47.6878   18.5655 C.ar      1 UNK         0.0000 
      4 C4          2.3042   48.9483   19.0574 C.ar      1 UNK         0.0000 
      5 C5          1.3423   49.6774   19.7517 C.ar      1 UNK         0.0000 
      6 C6          0.1154   49.1008   20.0284 C.ar      1 UNK         0.0000 
      7 C7         -0.2130   47.8106   19.5904 C.ar      1 UNK         0.0000 
      8 C8         -1.5666   47.1793   19.9063 C.3       1 UNK         0.0000 
      9 N9         -0.6625   50.0134   20.7234 N.am      1 UNK         0.0000 
     10 C10        -0.0710   51.2094   20.8692 C.2       1 UNK         0.0000 
     11 O11        -0.6044   52.2335   21.2868 O.2       1 UNK         0.0000 
     12 C12         1.3842   51.0537   20.3577 C.3       1 UNK         0.0000 
     13 C13         2.5742   51.3127   21.3506 C.3       1 UNK         0.0000 
     14 H14         2.9780   50.3681   21.7243 H         1 UNK         0.0000 
     15 C15         3.6400   52.0663   20.5690 C.3       1 UNK         0.0000 
     16 H16         4.5693   51.4941   20.5242 H         1 UNK         0.0000 
     17 C17         3.0825   52.3188   19.1330 C.3       1 UNK         0.0000 
     18 H18         3.2957   51.4418   18.5229 H         1 UNK         0.0000 
     19 C19         3.5877   53.5326   18.2996 C.3       1 UNK         0.0000 
     20 C20         5.0791   53.3748   17.9336 C.3       1 UNK         0.0000 
     21 C21         2.7548   53.7516   17.0203 C.3       1 UNK         0.0000 
     22 C22         3.9020   53.3242   21.3947 C.2       1 UNK         0.0000 
     23 O23         4.7315   54.1886   21.1124 O.2       1 UNK         0.0000 
     24 N24         3.1024   53.2867   22.4874 N.am      1 UNK         0.0000 
     25 C25         2.3045   52.1980   22.5735 C.2       1 UNK         0.0000 
     26 O26         1.5303   51.9151   23.4886 O.2       1 UNK         0.0000 
     27 C27         3.0961   54.3500   23.5059 C.3       1 UNK         0.0000 
     28 C28         4.1622   54.2387   24.5914 C.ar      1 UNK         0.0000 
     29 C29         3.7861   53.9499   25.9060 C.ar      1 UNK         0.0000 
     30 C30         4.7538   53.8776   26.9057 C.ar      1 UNK         0.0000 
     31 C31         6.0915   54.1053   26.5934 C.ar      1 UNK         0.0000 
     32 C32         6.4676   54.4248   25.2921 C.ar      1 UNK         0.0000 
     33 C33         5.5029   54.4966   24.2939 C.ar      1 UNK         0.0000 
     34 F34         7.0320   54.0260   27.5598 F         1 UNK         0.0000 
     35 H35         0.2429   45.0169   19.0921 H         1 UNK         0.0000 
     36 H36        -0.4332   45.7445   17.6340 H         1 UNK         0.0000 
     37 H37         1.2772   45.3254   17.6849 H         1 UNK         0.0000 
     38 H38         2.7354   47.1600   17.9909 H         1 UNK         0.0000 
     39 H39         3.2954   49.3361   18.8814 H         1 UNK         0.0000 
     40 H40        -2.1993   47.8217   20.5176 H         1 UNK         0.0000 
     41 H41        -2.1033   46.9548   18.9836 H         1 UNK         0.0000 
     42 H42        -1.4303   46.2395   20.4433 H         1 UNK         0.0000 
     43 H43        -1.6198   49.8492   20.9934 H         1 UNK         0.0000 
     44 H44         3.4777   54.4432   18.8894 H         1 UNK         0.0000 
     45 H45         5.2385   52.5135   17.2824 H         1 UNK         0.0000 
     46 H46         5.4601   54.2563   17.4137 H         1 UNK         0.0000 
     47 H47         5.6997   53.2249   18.8178 H         1 UNK         0.0000 
     48 H48         2.7682   52.8703   16.3773 H         1 UNK         0.0000 
     49 H49         1.7150   53.9852   17.2492 H         1 UNK         0.0000 
     50 H50         3.1433   54.5885   16.4374 H         1 UNK         0.0000 
     51 H51         3.2352   55.2969   22.9941 H         1 UNK         0.0000 
     52 H52         2.1114   54.4125   23.9737 H         1 UNK         0.0000 
     53 H53         2.7511   53.7653   26.1526 H         1 UNK         0.0000 
     54 H54         4.4735   53.6337   27.9187 H         1 UNK         0.0000 
     55 H55         7.5032   54.6083   25.0524 H         1 UNK         0.0000 
     56 H56         5.8112   54.7567   23.2924 H         1 UNK         0.0000 
     57 N57         1.5674   52.1888   19.3333 N.4       1 UNK         0.0000 
     58 H58         1.0869   51.9927   18.4670 H         1 UNK         0.0000 
     59 H59         1.2058   53.0621   19.6996 H         1 UNK         0.0000 
@<TRIPOS>BOND
     1    1    2 1    
     2    1   35 1    
     3    1   36 1    
     4    1   37 1    
     5    2    7 ar   
     6    2    3 ar   
     7    3    4 ar   
     8    3   38 1    
     9    4    5 ar   
    10    4   39 1    
    11    5   12 1    
    12    5    6 ar   
    13    6    7 ar   
    14    6    9 1    
    15    7    8 1    
    16    8   40 1    
    17    8   41 1    
    18    8   42 1    
    19    9   10 am   BACKBONE|DICT|INTERRES
    20    9   43 1    
    21   10   11 2    
    22   10   12 1    
    23   12   13 1    
    24   12   57 1    
    25   13   14 1    
    26   13   25 1    
    27   13   15 1    
    28   15   16 1    
    29   15   17 1    
    30   15   22 1    
    31   17   18 1    
    32   17   19 1    
    33   17   57 1    
    34   19   20 1    
    35   19   21 1    
    36   19   44 1    
    37   20   45 1    
    38   20   46 1    
    39   20   47 1    
    40   21   48 1    
    41   21   49 1    
    42   21   50 1    
    43   22   23 2    
    44   22   24 am   BACKBONE|DICT|INTERRES
    45   24   25 am   BACKBONE|DICT|INTERRES
    46   24   27 1    
    47   25   26 2    
    48   27   28 1    
    49   27   51 1    
    50   27   52 1    
    51   28   33 ar   
    52   28   29 ar   
    53   29   30 ar   
    54   29   53 1    
    55   30   31 ar   
    56   30   54 1    
    57   31   32 ar   
    58   31   34 1    
    59   32   33 ar   
    60   32   55 1    
    61   33   56 1    
    62   57   58 1    
    63   57   59 1    
@<TRIPOS>SUBSTRUCTURE
     1 UNK         1 GROUP             0       ****    0 ROOT    
