ZINC39636040_781
                    3D
 Schrodinger Suite 2024-2.
 75 79  0  0  1  0            999 V2000
    7.3305   58.8425   15.9104 C   0  0  0  0  0  0
    6.7363   57.8005   16.8404 C   0  0  0  0  0  0
    7.5579   56.8265   17.4113 C   0  0  0  0  0  0
    7.0187   55.8943   18.2961 C   0  0  0  0  0  0
    5.6612   55.9529   18.6302 C   0  0  0  0  0  0
    4.8386   56.8966   18.0202 C   0  0  0  0  0  0
    5.3736   57.8308   17.1381 C   0  0  0  0  0  0
    5.0854   55.0808   19.5332 O   0  0  0  0  0  0
    5.5575   54.8964   20.8268 C   0  0  0  0  0  0
    4.9829   53.9204   21.6678 C   0  0  0  0  0  0
    5.5900   53.6967   22.9119 C   0  0  0  0  0  0
    6.6562   54.4786   23.3319 C   0  0  0  0  0  0
    7.1039   55.4754   22.4788 C   0  0  0  0  0  0
    6.5851   55.6879   21.2505 N   0  0  0  0  0  0
    3.7748   53.1237   21.2331 C   0  0  0  0  0  0
    3.7630   52.6269   20.1075 O   0  0  0  0  0  0
    2.7169   53.0082   22.0819 N   0  0  0  0  0  0
    2.6195   53.5092   23.4558 C   0  0  0  0  0  0
    1.1707   53.1753   23.8843 C   0  0  1  0  0  0
    0.5656   54.0630   23.7010 H   0  0  0  0  0  0
    0.7507   51.9831   22.9721 C   0  0  0  0  0  0
    1.4818   52.3521   21.6608 C   0  0  0  0  0  0
   -0.7806   51.8295   22.8121 C   0  0  0  0  0  0
   -1.1281   50.7741   21.7386 C   0  0  0  0  0  0
   -0.5223   49.4170   22.1733 N   0  3  0  0  0  0
    0.9892   49.4568   22.5008 C   0  0  0  0  0  0
    1.2343   50.5960   23.5032 C   0  0  0  0  0  0
    1.0881   52.8964   25.4143 C   0  0  0  0  0  0
    0.0462   52.4177   25.8565 O   0  0  0  0  0  0
    2.1060   53.2350   26.2287 N   0  0  0  0  0  0
    2.1881   52.9546   27.6702 C   0  0  1  0  0  0
    2.0316   51.8757   27.7533 H   0  0  0  0  0  0
    3.6188   53.2033   28.2119 C   0  0  0  0  0  0
    3.9418   54.6999   28.3738 C   0  0  0  0  0  0
    2.9065   55.3916   29.2780 C   0  0  0  0  0  0
    1.4659   55.1596   28.7891 C   0  0  0  0  0  0
    1.1152   53.6694   28.5606 C   0  0  2  0  0  0
    0.1622   53.6611   28.0311 H   0  0  0  0  0  0
    0.8817   52.9185   29.8910 C   0  0  0  0  0  0
    8.3100   59.1648   16.2715 H   0  0  0  0  0  0
    7.4516   58.4355   14.9050 H   0  0  0  0  0  0
    6.7083   59.7389   15.8619 H   0  0  0  0  0  0
    8.6111   56.7937   17.1744 H   0  0  0  0  0  0
    7.6564   55.1450   18.7400 H   0  0  0  0  0  0
    3.7862   56.9175   18.2555 H   0  0  0  0  0  0
    4.7331   58.5855   16.7024 H   0  0  0  0  0  0
    5.2663   52.9096   23.5679 H   0  0  0  0  0  0
    7.1233   54.3205   24.2926 H   0  0  0  0  0  0
    7.9049   56.1174   22.7806 H   0  0  0  0  0  0
    2.8313   54.5775   23.5342 H   0  0  0  0  0  0
    3.3010   52.8976   24.0417 H   0  0  0  0  0  0
    1.6000   51.5317   20.9559 H   0  0  0  0  0  0
    0.8885   53.1059   21.1404 H   0  0  0  0  0  0
   -1.2672   51.6079   23.7634 H   0  0  0  0  0  0
   -1.2073   52.7794   22.4878 H   0  0  0  0  0  0
   -2.2032   50.6145   21.6481 H   0  0  0  0  0  0
   -0.7209   51.0032   20.7528 H   0  0  0  0  0  0
   -1.0103   49.1110   23.0059 H   0  0  0  0  0  0
    1.2462   48.4967   22.9418 H   0  0  0  0  0  0
    1.5332   49.5549   21.5607 H   0  0  0  0  0  0
    2.3052   50.6313   23.6829 H   0  0  0  0  0  0
    0.7909   50.3443   24.4685 H   0  0  0  0  0  0
    2.8288   53.8352   25.8614 H   0  0  0  0  0  0
    4.3550   52.7374   27.5537 H   0  0  0  0  0  0
    3.7406   52.7012   29.1726 H   0  0  0  0  0  0
    3.9602   55.1799   27.3941 H   0  0  0  0  0  0
    4.9420   54.8233   28.7915 H   0  0  0  0  0  0
    3.1044   56.4636   29.3275 H   0  0  0  0  0  0
    3.0066   55.0104   30.2926 H   0  0  0  0  0  0
    0.7628   55.6104   29.4912 H   0  0  0  0  0  0
    1.3253   55.6967   27.8530 H   0  0  0  0  0  0
    1.7777   52.8852   30.5110 H   0  0  0  0  0  0
    0.0955   53.3933   30.4779 H   0  0  0  0  0  0
    0.5648   51.8895   29.7128 H   0  0  0  0  0  0
   -0.6984   48.7204   21.4613 H   0  0  0  0  0  0
  1  2  1  0  0  0
  1 40  1  0  0  0
  1 41  1  0  0  0
  1 42  1  0  0  0
  2  7  2  0  0  0
  2  3  1  0  0  0
  3  4  2  0  0  0
  3 43  1  0  0  0
  4  5  1  0  0  0
  4 44  1  0  0  0
  5  6  2  0  0  0
  5  8  1  0  0  0
  6  7  1  0  0  0
  6 45  1  0  0  0
  7 46  1  0  0  0
  8  9  1  0  0  0
  9 14  2  0  0  0
  9 10  1  0  0  0
 10 11  2  0  0  0
 10 15  1  0  0  0
 11 12  1  0  0  0
 11 47  1  0  0  0
 12 13  2  0  0  0
 12 48  1  0  0  0
 13 14  1  0  0  0
 13 49  1  0  0  0
 15 16  2  0  0  0
 15 17  1  0  0  0
 17 22  1  0  0  0
 17 18  1  0  0  0
 18 19  1  0  0  0
 18 50  1  0  0  0
 18 51  1  0  0  0
 19 20  1  0  0  0
 19 21  1  0  0  0
 19 28  1  0  0  0
 21 27  1  0  0  0
 21 22  1  0  0  0
 21 23  1  0  0  0
 22 52  1  0  0  0
 22 53  1  0  0  0
 23 24  1  0  0  0
 23 54  1  0  0  0
 23 55  1  0  0  0
 24 25  1  0  0  0
 24 56  1  0  0  0
 24 57  1  0  0  0
 25 26  1  0  0  0
 25 58  1  0  0  0
 25 75  1  0  0  0
 26 27  1  0  0  0
 26 59  1  0  0  0
 26 60  1  0  0  0
 27 61  1  0  0  0
 27 62  1  0  0  0
 28 29  2  0  0  0
 28 30  1  0  0  0
 30 31  1  0  0  0
 30 63  1  0  0  0
 31 32  1  0  0  0
 31 37  1  0  0  0
 31 33  1  0  0  0
 33 34  1  0  0  0
 33 64  1  0  0  0
 33 65  1  0  0  0
 34 35  1  0  0  0
 34 66  1  0  0  0
 34 67  1  0  0  0
 35 36  1  0  0  0
 35 68  1  0  0  0
 35 69  1  0  0  0
 36 37  1  0  0  0
 36 70  1  0  0  0
 36 71  1  0  0  0
 37 38  1  0  0  0
 37 39  1  0  0  0
 39 72  1  0  0  0
 39 73  1  0  0  0
 39 74  1  0  0  0
M  CHG  1  25   1
M  END
> <i_i_glide_confnum>
398

> <i_i_glide_lignum>
782

> <i_i_glide_posenum>
161

> <i_i_glide_rotatable_bonds>
7

> <i_m_Source_File_Index>
1174

> <b_m_subgroup_collapsed>
0

> <r_i_docking_score>
-5.1484

> <r_i_glide_ecoul>
0.800096

> <r_i_glide_eff_state_penalty>
0

> <r_i_glide_einternal>
4.33545

> <r_i_glide_emodel>
-55.5473

> <r_i_glide_energy>
-40.9977

> <r_i_glide_erotb>
0.589592

> <r_i_glide_esite>
0

> <r_i_glide_evdw>
-41.7978

> <r_i_glide_gscore>
-5.1484

> <r_i_glide_hbond>
0

> <r_i_glide_ligand_efficiency>
-0.143011

> <r_i_glide_ligand_efficiency_ln>
-1.12324

> <r_i_glide_ligand_efficiency_sa>
-0.472212

> <r_i_glide_lipo>
-3.33108

> <r_i_glide_metal>
0

> <r_i_glide_rewards>
-0.437042

> <s_i_glide_gridfile>
wee1_glide-grid

> <s_m_Source_File>
wee1_decoys_glide_SP.sdf

> <s_m_Source_Path>
/Users/zhangxujun/Desktop

> <s_m_entry_id>
1449

> <s_m_entry_name>
wee1_decoys_glide_SP.1174

> <s_m_subgroup_title>
wee1_decoys_glide_SP

> <s_m_subgroupid>
wee1_decoys_glide_SP


$$$$
