@<TRIPOS>MOLECULE
ZINC02905545_4468
49   51    1
SMALL
USER_CHARGES


@<TRIPOS>ATOM
      1 C1          0.0826   55.0804   17.0008 C.3       1 UNK         0.0000 
      2 C2         -1.3155   54.6051   16.6154 C.ar      1 UNK         0.0000 
      3 C3         -1.9478   55.2771   15.5629 C.ar      1 UNK         0.0000 
      4 C4         -3.2399   54.9360   15.1711 C.ar      1 UNK         0.0000 
      5 C5         -3.9192   53.9188   15.8316 C.ar      1 UNK         0.0000 
      6 C6         -3.3032   53.2413   16.8813 C.ar      1 UNK         0.0000 
      7 C7         -2.0023   53.5650   17.2909 C.ar      1 UNK         0.0000 
      8 C8         -1.4127   52.7798   18.4401 C.2       1 UNK         0.0000 
      9 O9         -2.0970   52.4938   19.4232 O.2       1 UNK         0.0000 
     10 N10        -0.1431   52.3774   18.2863 N.am      1 UNK         0.0000 
     11 C11         0.6681   51.6005   19.2297 C.3       1 UNK         0.0000 
     12 H12         0.0105   50.8506   19.6794 H         1 UNK         0.0000 
     13 C13         1.7682   50.8299   18.4311 C.3       1 UNK         0.0000 
     14 Cl14        2.8813   51.9928   17.6477 Cl        1 UNK         0.0000 
     15 Cl15        2.7051   49.7393   19.4860 Cl        1 UNK         0.0000 
     16 Cl16        1.0125   49.8178   17.1622 Cl        1 UNK         0.0000 
     17 N17         1.2131   52.4967   20.2732 N.pl3     1 UNK         0.0000 
     18 H18         1.5069   53.4080   19.9411 H         1 UNK         0.0000 
     19 C19         1.4239   52.2396   21.6006 C.2       1 UNK         0.0000 
     20 S20         0.9538   50.8274   22.3848 S.2       1 UNK         0.0000 
     21 N21         2.0895   53.2966   22.1674 N.pl3     1 UNK         0.0000 
     22 C22         2.5246   53.4622   23.4846 C.2       1 UNK         0.0000 
     23 C23         3.8001   53.8706   23.8975 C.2       1 UNK         0.0000 
     24 C24         3.8970   54.0215   25.3019 C.2       1 UNK         0.0000 
     25 C25         2.6990   53.6912   25.9511 C.2       1 UNK         0.0000 
     26 S26         1.4379   53.2972   24.8328 S.3       1 UNK         0.0000 
     27 C27         2.5136   53.5755   27.4583 C.3       1 UNK         0.0000 
     28 C28         3.6980   54.2502   28.1801 C.3       1 UNK         0.0000 
     29 C29         5.0544   53.8952   27.5477 C.3       1 UNK         0.0000 
     30 C30         5.1623   54.3866   26.0860 C.3       1 UNK         0.0000 
     31 C31         4.9178   54.0966   22.9882 C.1       1 UNK         0.0000 
     32 N32         5.8048   54.2795   22.2688 N.1       1 UNK         0.0000 
     33 H33         0.3193   56.0591   16.5765 H         1 UNK         0.0000 
     34 H34         0.1628   55.1876   18.0814 H         1 UNK         0.0000 
     35 H35         0.8436   54.3709   16.6671 H         1 UNK         0.0000 
     36 H36        -1.4405   56.0771   15.0432 H         1 UNK         0.0000 
     37 H37        -3.7144   55.4635   14.3564 H         1 UNK         0.0000 
     38 H38        -4.9226   53.6530   15.5322 H         1 UNK         0.0000 
     39 H39        -3.8525   52.4483   17.3717 H         1 UNK         0.0000 
     40 H40         0.3384   52.6848   17.4538 H         1 UNK         0.0000 
     41 H41         2.4904   53.9519   21.5120 H         1 UNK         0.0000 
     42 H42         2.4805   52.5221   27.7384 H         1 UNK         0.0000 
     43 H43         1.5702   54.0168   27.7813 H         1 UNK         0.0000 
     44 H44         3.6927   53.9672   29.2333 H         1 UNK         0.0000 
     45 H45         3.5604   55.3291   28.1644 H         1 UNK         0.0000 
     46 H46         5.1991   52.8139   27.5810 H         1 UNK         0.0000 
     47 H47         5.8648   54.3254   28.1372 H         1 UNK         0.0000 
     48 H48         5.3042   55.4672   26.0633 H         1 UNK         0.0000 
     49 H49         6.0534   53.9573   25.6250 H         1 UNK         0.0000 
@<TRIPOS>BOND
     1    1    2 1    
     2    1   33 1    
     3    1   34 1    
     4    1   35 1    
     5    2    7 ar   
     6    2    3 ar   
     7    3    4 ar   
     8    3   36 1    
     9    4    5 ar   
    10    4   37 1    
    11    5    6 ar   
    12    5   38 1    
    13    6    7 ar   
    14    6   39 1    
    15    7    8 1    
    16    8    9 2    
    17    8   10 am   BACKBONE|DICT|INTERRES
    18   10   11 1    
    19   10   40 1    
    20   11   12 1    
    21   11   13 1    
    22   11   17 1    
    23   13   14 1    
    24   13   15 1    
    25   13   16 1    
    26   17   18 1    
    27   17   19 1    
    28   19   20 2    
    29   19   21 1    
    30   21   22 1    
    31   21   41 1    
    32   22   26 1    
    33   22   23 2    
    34   23   24 1    
    35   23   31 1    
    36   24   30 1    
    37   24   25 2    
    38   25   26 1    
    39   25   27 1    
    40   27   28 1    
    41   27   42 1    
    42   27   43 1    
    43   28   29 1    
    44   28   44 1    
    45   28   45 1    
    46   29   30 1    
    47   29   46 1    
    48   29   47 1    
    49   30   48 1    
    50   30   49 1    
    51   31   32 3    
@<TRIPOS>SUBSTRUCTURE
     1 UNK         1 GROUP             0       ****    0 ROOT    
