@<TRIPOS>MOLECULE
ZINC30978802_729
59   62    1
SMALL
USER_CHARGES


@<TRIPOS>ATOM
      1 C1         -2.0686   50.8474   27.1124 C.3       1 UNK         0.0000 
      2 C2         -1.0839   51.6956   27.8914 C.ar      1 UNK         0.0000 
      3 C3         -0.1687   52.4869   27.2031 C.ar      1 UNK         0.0000 
      4 C4          0.7016   53.3061   27.9105 C.ar      1 UNK         0.0000 
      5 C5          0.6606   53.3486   29.3095 C.ar      1 UNK         0.0000 
      6 C6         -0.2239   52.5118   29.9945 C.ar      1 UNK         0.0000 
      7 C7         -1.0997   51.6963   29.2863 C.ar      1 UNK         0.0000 
      8 C8          1.5914   54.2619   30.1157 C.3       1 UNK         0.0000 
      9 H9          1.8723   53.6940   31.0041 H         1 UNK         0.0000 
     10 C10         0.8666   55.5355   30.5645 C.3       1 UNK         0.0000 
     11 N11         2.8125   54.6551   29.4185 N.am      1 UNK         0.0000 
     12 C12         3.8126   53.8235   29.0896 C.2       1 UNK         0.0000 
     13 O13         3.9062   52.6850   29.5521 O.2       1 UNK         0.0000 
     14 C14         4.7953   54.3597   28.0246 C.3       1 UNK         0.0000 
     15 C15         4.0106   54.5644   26.7012 C.3       1 UNK         0.0000 
     16 C16         4.9305   55.1078   25.5984 C.3       1 UNK         0.0000 
     17 N17         6.0866   54.0998   25.3968 N.4       1 UNK         0.0000 
     18 C18         6.8866   53.8196   26.6918 C.3       1 UNK         0.0000 
     19 C19         5.9518   53.3691   27.8191 C.3       1 UNK         0.0000 
     20 C20         7.0113   54.5389   24.2310 C.3       1 UNK         0.0000 
     21 C21         6.2873   54.3858   22.9074 C.2       1 UNK         0.0000 
     22 N22         5.4094   53.4776   22.5833 N.2       1 UNK         0.0000 
     23 C23         5.1039   53.8013   21.3415 C.2       1 UNK         0.0000 
     24 N24         5.7038   54.8807   20.8733 N.2       1 UNK         0.0000 
     25 O25         6.5249   55.2864   21.9254 O.3       1 UNK         0.0000 
     26 C26         4.1613   52.9630   20.5217 C.ar      1 UNK         0.0000 
     27 C27         3.8555   53.2974   19.1947 C.ar      1 UNK         0.0000 
     28 C28         3.0004   52.4967   18.4354 C.ar      1 UNK         0.0000 
     29 C29         2.4373   51.3476   18.9886 C.ar      1 UNK         0.0000 
     30 C30         2.7298   51.0007   20.3067 C.ar      1 UNK         0.0000 
     31 C31         3.5802   51.8042   21.0656 C.ar      1 UNK         0.0000 
     32 Br32        1.9904   49.4184   21.0669 Br        1 UNK         0.0000 
     33 H33        -2.5983   51.4561   26.3781 H         1 UNK         0.0000 
     34 H34        -1.5415   50.0622   26.5694 H         1 UNK         0.0000 
     35 H35        -2.8162   50.3870   27.7609 H         1 UNK         0.0000 
     36 H36        -0.1440   52.4822   26.1237 H         1 UNK         0.0000 
     37 H37         1.3799   53.9326   27.3574 H         1 UNK         0.0000 
     38 H38        -0.2587   52.4999   31.0763 H         1 UNK         0.0000 
     39 H39        -1.7848   51.0590   29.8270 H         1 UNK         0.0000 
     40 H40        -0.0947   55.2988   31.0254 H         1 UNK         0.0000 
     41 H41         1.4578   56.0956   31.2871 H         1 UNK         0.0000 
     42 H42         0.7048   56.2067   29.7200 H         1 UNK         0.0000 
     43 H43         2.8168   55.5884   29.0346 H         1 UNK         0.0000 
     44 H44         5.1730   55.2967   28.4278 H         1 UNK         0.0000 
     45 H45         3.6194   53.6171   26.3208 H         1 UNK         0.0000 
     46 H46         3.2121   55.2965   26.8078 H         1 UNK         0.0000 
     47 H47         5.3522   56.0958   25.8018 H         1 UNK         0.0000 
     48 H48         4.3710   55.1381   24.6600 H         1 UNK         0.0000 
     49 H49         7.4822   54.6975   26.9498 H         1 UNK         0.0000 
     50 H50         7.5043   52.9593   26.4519 H         1 UNK         0.0000 
     51 H51         6.5654   53.2912   28.7184 H         1 UNK         0.0000 
     52 H52         5.5627   52.4057   27.5004 H         1 UNK         0.0000 
     53 H53         7.3199   55.5630   24.4494 H         1 UNK         0.0000 
     54 H54         7.8847   53.8868   24.2648 H         1 UNK         0.0000 
     55 H55         4.2848   54.1758   18.7344 H         1 UNK         0.0000 
     56 H56         2.7887   52.7576   17.4086 H         1 UNK         0.0000 
     57 H57         1.7985   50.7164   18.3873 H         1 UNK         0.0000 
     58 H58         3.7930   51.5054   22.0815 H         1 UNK         0.0000 
     59 H59         5.6566   53.2176   25.1388 H         1 UNK         0.0000 
@<TRIPOS>BOND
     1    1    2 1    
     2    1   33 1    
     3    1   34 1    
     4    1   35 1    
     5    2    7 ar   
     6    2    3 ar   
     7    3    4 ar   
     8    3   36 1    
     9    4    5 ar   
    10    4   37 1    
    11    5    6 ar   
    12    5    8 1    
    13    6    7 ar   
    14    6   38 1    
    15    7   39 1    
    16    8    9 1    
    17    8   10 1    
    18    8   11 1    
    19   10   40 1    
    20   10   41 1    
    21   10   42 1    
    22   11   12 am   BACKBONE|DICT|INTERRES
    23   11   43 1    
    24   12   13 2    
    25   12   14 1    
    26   14   19 1    
    27   14   15 1    
    28   14   44 1    
    29   15   16 1    
    30   15   45 1    
    31   15   46 1    
    32   16   17 1    
    33   16   47 1    
    34   16   48 1    
    35   17   18 1    
    36   17   20 1    
    37   17   59 1    
    38   18   19 1    
    39   18   49 1    
    40   18   50 1    
    41   19   51 1    
    42   19   52 1    
    43   20   21 1    
    44   20   53 1    
    45   20   54 1    
    46   21   25 1    
    47   21   22 2    
    48   22   23 1    
    49   23   24 2    
    50   23   26 1    
    51   24   25 1    
    52   26   31 ar   
    53   26   27 ar   
    54   27   28 ar   
    55   27   55 1    
    56   28   29 ar   
    57   28   56 1    
    58   29   30 ar   
    59   29   57 1    
    60   30   31 ar   
    61   30   32 1    
    62   31   58 1    
@<TRIPOS>SUBSTRUCTURE
     1 UNK         1 GROUP             0       ****    0 ROOT    
