ZINC50892606_4747
                    3D
 Schrodinger Suite 2024-2.
 40 42  0  0  1  0            999 V2000
    4.8322   54.5295   26.7241 C   0  0  0  0  0  0
    5.9975   54.9716   26.0950 C   0  0  0  0  0  0
    6.0419   54.9554   24.7061 C   0  0  0  0  0  0
    4.9977   54.4953   23.9385 C   0  0  0  0  0  0
    3.8283   54.0792   24.5610 C   0  0  0  0  0  0
    3.7262   54.0987   25.9647 C   0  0  0  0  0  0
    2.4494   53.6169   26.6058 C   0  0  0  0  0  0
    1.5030   53.2983   25.8881 O   0  0  0  0  0  0
    2.4318   53.4957   27.9526 N   0  0  0  0  0  0
    1.4562   52.7511   28.7918 C   0  0  0  0  0  0
    0.0046   53.3054   28.5653 C   0  0  0  0  0  0
   -0.8954   52.0961   28.2906 C   0  0  0  0  0  0
    0.0120   51.1242   27.5603 C   0  0  0  0  0  0
    1.3469   51.2963   28.2822 C   0  0  0  0  0  0
    1.9643   52.7364   30.2940 C   0  0  0  0  0  0
    3.1710   52.5231   30.6771 N   0  0  0  0  0  0
    4.1033   52.1697   29.6843 O   0  0  0  0  0  0
    0.9681   52.8964   31.2323 N   0  0  0  0  0  0
    5.4237   54.4952   22.5073 C   0  0  0  0  0  0
    6.7789   55.2091   22.5801 C   0  0  0  0  0  0
    7.1017   55.3774   23.9621 O   0  0  0  0  0  0
    4.8048   54.5487   27.8028 H   0  0  0  0  0  0
    6.8280   55.3215   26.6880 H   0  0  0  0  0  0
    3.0102   53.7181   23.9551 H   0  0  0  0  0  0
    3.2747   53.7464   28.4458 H   0  0  0  0  0  0
   -0.0439   53.9398   27.6823 H   0  0  0  0  0  0
   -0.3798   53.9336   29.3683 H   0  0  0  0  0  0
   -1.7634   52.3486   27.6820 H   0  0  0  0  0  0
   -1.2520   51.6524   29.2229 H   0  0  0  0  0  0
    0.0905   51.3795   26.5053 H   0  0  0  0  0  0
   -0.3515   50.0974   27.6030 H   0  0  0  0  0  0
    1.3455   50.6011   29.1199 H   0  0  0  0  0  0
    2.1960   50.9802   27.6815 H   0  0  0  0  0  0
    4.9213   52.0966   30.1835 H   0  0  0  0  0  0
    1.2017   52.8199   32.2118 H   0  0  0  0  0  0
    0.0053   52.7284   30.9776 H   0  0  0  0  0  0
    5.5565   53.4816   22.1282 H   0  0  0  0  0  0
    4.7381   55.0136   21.8368 H   0  0  0  0  0  0
    6.7013   56.1892   22.1105 H   0  0  0  0  0  0
    7.5623   54.6446   22.0744 H   0  0  0  0  0  0
  1  6  2  0  0  0
  1  2  1  0  0  0
  1 22  1  0  0  0
  2  3  2  0  0  0
  2 23  1  0  0  0
  3 21  1  0  0  0
  3  4  1  0  0  0
  4  5  2  0  0  0
  4 19  1  0  0  0
  5  6  1  0  0  0
  5 24  1  0  0  0
  6  7  1  0  0  0
  7  8  2  0  0  0
  7  9  1  0  0  0
  9 10  1  0  0  0
  9 25  1  0  0  0
 10 14  1  0  0  0
 10 11  1  0  0  0
 10 15  1  0  0  0
 11 12  1  0  0  0
 11 26  1  0  0  0
 11 27  1  0  0  0
 12 13  1  0  0  0
 12 28  1  0  0  0
 12 29  1  0  0  0
 13 14  1  0  0  0
 13 30  1  0  0  0
 13 31  1  0  0  0
 14 32  1  0  0  0
 14 33  1  0  0  0
 15 16  2  0  0  0
 15 18  1  0  0  0
 16 17  1  0  0  0
 17 34  1  0  0  0
 18 35  1  0  0  0
 18 36  1  0  0  0
 19 20  1  0  0  0
 19 37  1  0  0  0
 19 38  1  0  0  0
 20 21  1  0  0  0
 20 39  1  0  0  0
 20 40  1  0  0  0
M  END
> <i_i_glide_confnum>
214

> <i_i_glide_lignum>
4748

> <i_i_glide_posenum>
42

> <i_i_glide_rotatable_bonds>
5

> <i_m_Source_File_Index>
1514

> <b_m_subgroup_collapsed>
0

> <r_i_docking_score>
-4.8743

> <r_i_glide_ecoul>
-1.64396

> <r_i_glide_eff_state_penalty>
0

> <r_i_glide_einternal>
6.04447

> <r_i_glide_emodel>
-44.0079

> <r_i_glide_energy>
-35.414

> <r_i_glide_erotb>
1.08749

> <r_i_glide_esite>
-0.0714333

> <r_i_glide_evdw>
-33.7701

> <r_i_glide_gscore>
-4.8743

> <r_i_glide_hbond>
0

> <r_i_glide_ligand_efficiency>
-0.23211

> <r_i_glide_ligand_efficiency_ln>
-1.20516

> <r_i_glide_ligand_efficiency_sa>
-0.640373

> <r_i_glide_lipo>
-2.21942

> <r_i_glide_metal>
0

> <r_i_glide_rewards>
-1.73585

> <s_i_glide_gridfile>
wee1_glide-grid

> <s_m_Source_File>
wee1_decoys_glide_SP.sdf

> <s_m_Source_Path>
/Users/zhangxujun/Desktop

> <s_m_entry_id>
1789

> <s_m_entry_name>
wee1_decoys_glide_SP.1514

> <s_m_subgroup_title>
wee1_decoys_glide_SP

> <s_m_subgroupid>
wee1_decoys_glide_SP


$$$$
