ZINC09346028_5677
                    3D
 Schrodinger Suite 2024-2.
 69 71  0  0  1  0            999 V2000
    6.0987   54.1113   22.5225 C   0  0  0  0  0  0
    5.0484   53.9108   21.4135 C   0  0  0  0  0  0
    4.0142   53.0188   21.8191 O   0  0  0  0  0  0
    3.0273   53.4195   22.6617 C   0  0  0  0  0  0
    2.9105   54.5519   23.1193 O   0  0  0  0  0  0
    2.1464   52.3136   23.0395 C   0  0  0  0  0  0
    1.6023   52.0997   24.3519 C   0  0  0  0  0  0
    0.7706   50.9723   24.3638 C   0  0  0  0  0  0
    0.7324   50.0897   22.8880 S   0  0  0  0  0  0
    1.7034   51.3161   22.1417 C   0  0  0  0  0  0
    2.0142   51.1974   20.7834 N   0  0  0  0  0  0
    1.1549   51.4212   19.7346 C   0  0  0  0  0  0
   -0.5066   51.6948   19.9124 S   0  0  0  0  0  0
    1.8380   51.4130   18.5370 N   0  0  0  0  0  0
    1.5170   51.8994   17.3058 C   0  0  0  0  0  0
    0.4976   52.5390   17.0391 O   0  0  0  0  0  0
    2.5019   51.6615   16.1504 C   0  0  0  0  0  0
    4.1886   53.6190   16.4787 C   0  0  0  0  0  0
    3.7123   54.2735   17.7986 C   0  0  0  0  0  0
    4.0852   55.7536   18.0168 C   0  0  0  0  0  0
    5.5799   56.0032   18.2805 C   0  0  0  0  0  0
    6.4684   56.1323   17.0291 C   0  0  0  0  0  0
    6.1142   55.2454   15.8181 C   0  0  0  0  0  0
    5.6876   53.7946   16.1309 C   0  0  0  0  0  0
    1.8631   52.8788   25.6353 C   0  0  0  0  0  0
    0.8905   52.8966   26.6434 C   0  0  0  0  0  0
    1.1047   53.5727   27.8439 C   0  0  0  0  0  0
    2.3203   54.2279   28.0871 C   0  0  0  0  0  0
    3.3386   54.1526   27.1284 C   0  0  0  0  0  0
    3.0922   53.4941   25.9106 C   0  0  0  0  0  0
    4.5460   54.7485   27.4481 O   0  0  0  0  0  0
    5.6156   54.7333   26.5124 C   0  0  0  0  0  0
    2.5806   54.9456   29.2406 O   0  0  0  0  0  0
    1.5065   55.2754   30.1130 C   0  0  0  0  0  0
    6.9447   54.6999   22.1611 H   0  0  0  0  0  0
    5.6743   54.6417   23.3760 H   0  0  0  0  0  0
    6.4857   53.1539   22.8819 H   0  0  0  0  0  0
    5.5319   53.4757   20.5391 H   0  0  0  0  0  0
    4.6349   54.8725   21.0958 H   0  0  0  0  0  0
    0.2437   50.5599   25.2112 H   0  0  0  0  0  0
    2.9966   51.2960   20.5755 H   0  0  0  0  0  0
    2.7153   50.9149   18.5619 H   0  0  0  0  0  0
    2.2151   52.1760   15.2338 H   0  0  0  0  0  0
    2.5765   50.5936   15.9407 H   0  0  0  0  0  0
    3.5951   54.0081   15.6468 H   0  0  0  0  0  0
    4.0734   53.6914   18.6465 H   0  0  0  0  0  0
    2.6280   54.2279   17.8614 H   0  0  0  0  0  0
    3.5213   56.0984   18.8816 H   0  0  0  0  0  0
    3.7324   56.3657   17.1857 H   0  0  0  0  0  0
    5.9714   55.2091   18.9158 H   0  0  0  0  0  0
    5.6869   56.9150   18.8691 H   0  0  0  0  0  0
    7.5015   55.9390   17.3201 H   0  0  0  0  0  0
    6.4577   57.1722   16.6965 H   0  0  0  0  0  0
    6.9812   55.2212   15.1556 H   0  0  0  0  0  0
    5.3312   55.7295   15.2325 H   0  0  0  0  0  0
    5.9193   53.1846   15.2567 H   0  0  0  0  0  0
    6.3136   53.3879   16.9271 H   0  0  0  0  0  0
   -0.0666   52.4198   26.4953 H   0  0  0  0  0  0
    0.3089   53.5829   28.5706 H   0  0  0  0  0  0
    3.8857   53.4150   25.1882 H   0  0  0  0  0  0
    6.4801   55.2317   26.9526 H   0  0  0  0  0  0
    5.9155   53.7162   26.2573 H   0  0  0  0  0  0
    5.3487   55.2716   25.6030 H   0  0  0  0  0  0
    1.8692   55.9575   30.8815 H   0  0  0  0  0  0
    0.7048   55.7870   29.5831 H   0  0  0  0  0  0
    1.1068   54.3906   30.6099 H   0  0  0  0  0  0
    3.8995   52.0971   16.4838 N   0  3  0  0  0  0
    4.4903   51.7181   15.7589 H   0  0  0  0  0  0
    4.2607   51.6453   17.3233 H   0  0  0  0  0  0
  1  2  1  0  0  0
  1 35  1  0  0  0
  1 36  1  0  0  0
  1 37  1  0  0  0
  2  3  1  0  0  0
  2 38  1  0  0  0
  2 39  1  0  0  0
  3  4  1  0  0  0
  4  5  2  0  0  0
  4  6  1  0  0  0
  6 10  2  0  0  0
  6  7  1  0  0  0
  7  8  2  0  0  0
  7 25  1  0  0  0
  8  9  1  0  0  0
  8 40  1  0  0  0
  9 10  1  0  0  0
 10 11  1  0  0  0
 11 12  1  0  0  0
 11 41  1  0  0  0
 12 13  2  0  0  0
 12 14  1  0  0  0
 14 15  1  0  0  0
 14 42  1  0  0  0
 15 16  2  0  0  0
 15 17  1  0  0  0
 17 43  1  0  0  0
 17 44  1  0  0  0
 17 67  1  0  0  0
 18 24  1  0  0  0
 18 19  1  0  0  0
 18 45  1  0  0  0
 18 67  1  0  0  0
 19 20  1  0  0  0
 19 46  1  0  0  0
 19 47  1  0  0  0
 20 21  1  0  0  0
 20 48  1  0  0  0
 20 49  1  0  0  0
 21 22  1  0  0  0
 21 50  1  0  0  0
 21 51  1  0  0  0
 22 23  1  0  0  0
 22 52  1  0  0  0
 22 53  1  0  0  0
 23 24  1  0  0  0
 23 54  1  0  0  0
 23 55  1  0  0  0
 24 56  1  0  0  0
 24 57  1  0  0  0
 25 30  2  0  0  0
 25 26  1  0  0  0
 26 27  2  0  0  0
 26 58  1  0  0  0
 27 28  1  0  0  0
 27 59  1  0  0  0
 28 29  2  0  0  0
 28 33  1  0  0  0
 29 30  1  0  0  0
 29 31  1  0  0  0
 30 60  1  0  0  0
 31 32  1  0  0  0
 32 61  1  0  0  0
 32 62  1  0  0  0
 32 63  1  0  0  0
 33 34  1  0  0  0
 34 64  1  0  0  0
 34 65  1  0  0  0
 34 66  1  0  0  0
 67 68  1  0  0  0
 67 69  1  0  0  0
M  CHG  1  67   1
M  END
> <i_i_glide_confnum>
554

> <i_i_glide_lignum>
5678

> <i_i_glide_posenum>
243

> <i_i_glide_rotatable_bonds>
13

> <i_m_Source_File_Index>
1746

> <b_m_subgroup_collapsed>
0

> <r_i_docking_score>
-5.3188

> <r_i_glide_ecoul>
-6.72482

> <r_i_glide_eff_state_penalty>
0

> <r_i_glide_einternal>
8.02359

> <r_i_glide_emodel>
-56.8577

> <r_i_glide_energy>
-42.8478

> <r_i_glide_erotb>
0.682276

> <r_i_glide_esite>
-0.1955

> <r_i_glide_evdw>
-36.123

> <r_i_glide_gscore>
-5.3188

> <r_i_glide_hbond>
-0.195175

> <r_i_glide_ligand_efficiency>
-0.151966

> <r_i_glide_ligand_efficiency_ln>
-1.16759

> <r_i_glide_ligand_efficiency_sa>
-0.49709

> <r_i_glide_lipo>
-2.64365

> <r_i_glide_metal>
0

> <r_i_glide_rewards>
-0.151874

> <s_i_glide_gridfile>
wee1_glide-grid

> <s_m_Source_File>
wee1_decoys_glide_SP.sdf

> <s_m_Source_Path>
/Users/zhangxujun/Desktop

> <s_m_entry_id>
2021

> <s_m_entry_name>
wee1_decoys_glide_SP.1746

> <s_m_subgroup_title>
wee1_decoys_glide_SP

> <s_m_subgroupid>
wee1_decoys_glide_SP


$$$$
