@<TRIPOS>MOLECULE
ZINC35729422_4949
62   66    1
SMALL
USER_CHARGES


@<TRIPOS>ATOM
      1 C1          2.5767   51.4987   19.4149 C.3       1 UNK         0.0000 
      2 C2          2.2029   52.2577   18.1421 C.ar      1 UNK         0.0000 
      3 C3          0.9297   52.0737   17.5961 C.ar      1 UNK         0.0000 
      4 C4          0.5439   52.7668   16.4528 C.ar      1 UNK         0.0000 
      5 C5          1.4333   53.6392   15.8318 C.ar      1 UNK         0.0000 
      6 C6          2.7169   53.8381   16.3493 C.ar      1 UNK         0.0000 
      7 C7          3.1016   53.1524   17.5228 C.ar      1 UNK         0.0000 
      8 N8          4.3765   53.2965   18.0971 N.am      1 UNK         0.0000 
      9 C9          4.8571   54.4362   18.6202 C.2       1 UNK         0.0000 
     10 O10         4.2995   55.5307   18.5475 O.2       1 UNK         0.0000 
     11 N11         6.0039   54.2141   19.2821 N.am      1 UNK         0.0000 
     12 C12         6.5295   54.9405   20.4566 C.3       1 UNK         0.0000 
     13 H13         7.5510   54.5847   20.5858 H         1 UNK         0.0000 
     14 C14         6.6398   56.4680   20.2169 C.3       1 UNK         0.0000 
     15 C15         7.4352   56.9080   18.9984 C.ar      1 UNK         0.0000 
     16 C16         6.8631   57.7936   18.0598 C.ar      1 UNK         0.0000 
     17 C17         7.6090   58.2281   16.9729 C.ar      1 UNK         0.0000 
     18 C18         8.9202   57.7963   16.8064 C.ar      1 UNK         0.0000 
     19 C19         9.4991   56.9318   17.7288 C.ar      1 UNK         0.0000 
     20 C20         8.7724   56.4877   18.8249 C.ar      1 UNK         0.0000 
     21 C21         5.7410   54.6669   21.7631 C.2       1 UNK         0.0000 
     22 O22         4.5234   54.4901   21.7113 O.2       1 UNK         0.0000 
     23 N23         6.4712   54.7099   22.9024 N.am      1 UNK         0.0000 
     24 C24         6.0086   54.5552   24.2053 C.2       1 UNK         0.0000 
     25 N25         6.8095   54.7211   25.2261 N.2       1 UNK         0.0000 
     26 N26         6.1943   54.4701   26.4468 N.2       1 UNK         0.0000 
     27 C27         4.9334   54.1173   26.3302 C.2       1 UNK         0.0000 
     28 S28         4.3814   54.0969   24.6735 S.3       1 UNK         0.0000 
     29 C29         4.0566   53.6964   27.4733 C.ar      1 UNK         0.0000 
     30 C30         4.6487   53.2814   28.6853 C.ar      1 UNK         0.0000 
     31 C31         3.8702   52.8237   29.7573 C.ar      1 UNK         0.0000 
     32 C32         2.4929   52.8003   29.5895 C.ar      1 UNK         0.0000 
     33 C33         1.9018   53.2219   28.4333 C.ar      1 UNK         0.0000 
     34 C34         2.6522   53.6830   27.3542 C.ar      1 UNK         0.0000 
     35 O35         0.5506   53.1232   28.5625 O.3       1 UNK         0.0000 
     36 C36         0.3442   52.3740   29.7326 C.3       1 UNK         0.0000 
     37 O37         1.5355   52.4158   30.4730 O.3       1 UNK         0.0000 
     38 C38         3.6681   54.7499   15.5785 C.3       1 UNK         0.0000 
     39 H39         3.5028   50.9358   19.2805 H         1 UNK         0.0000 
     40 H40         2.7456   52.1990   20.2350 H         1 UNK         0.0000 
     41 H41         1.7996   50.7947   19.7192 H         1 UNK         0.0000 
     42 H42         0.2319   51.3923   18.0599 H         1 UNK         0.0000 
     43 H43        -0.4425   52.6228   16.0385 H         1 UNK         0.0000 
     44 H44         1.1256   54.1568   14.9352 H         1 UNK         0.0000 
     45 H45         4.8531   52.4261   18.3015 H         1 UNK         0.0000 
     46 H46         6.5313   53.3958   19.0210 H         1 UNK         0.0000 
     47 H47         5.6432   56.9075   20.1545 H         1 UNK         0.0000 
     48 H48         7.1036   56.9273   21.0874 H         1 UNK         0.0000 
     49 H49         5.8463   58.1420   18.1763 H         1 UNK         0.0000 
     50 H50         7.1672   58.9113   16.2609 H         1 UNK         0.0000 
     51 H51         9.4939   58.1335   15.9558 H         1 UNK         0.0000 
     52 H52        10.5220   56.6076   17.5989 H         1 UNK         0.0000 
     53 H53         9.2413   55.8304   19.5432 H         1 UNK         0.0000 
     54 H54         7.4603   54.9077   22.8222 H         1 UNK         0.0000 
     55 H55         5.7248   53.2911   28.7945 H         1 UNK         0.0000 
     56 H56         4.3273   52.4940   30.6765 H         1 UNK         0.0000 
     57 H57         2.1643   54.0129   26.4488 H         1 UNK         0.0000 
     58 H58         0.1207   51.3386   29.4598 H         1 UNK         0.0000 
     59 H59        -0.4902   52.7606   30.3182 H         1 UNK         0.0000 
     60 H60         4.6947   54.3883   15.6374 H         1 UNK         0.0000 
     61 H61         3.4208   54.7772   14.5168 H         1 UNK         0.0000 
     62 H62         3.6302   55.7649   15.9740 H         1 UNK         0.0000 
@<TRIPOS>BOND
     1    1    2 1    
     2    1   39 1    
     3    1   40 1    
     4    1   41 1    
     5    2    7 ar   
     6    2    3 ar   
     7    3    4 ar   
     8    3   42 1    
     9    4    5 ar   
    10    4   43 1    
    11    5    6 ar   
    12    5   44 1    
    13    6    7 ar   
    14    6   38 1    
    15    7    8 1    
    16    8    9 am   BACKBONE|DICT|INTERRES
    17    8   45 1    
    18    9   10 2    
    19    9   11 am   BACKBONE|DICT|INTERRES
    20   11   12 1    
    21   11   46 1    
    22   12   13 1    
    23   12   14 1    
    24   12   21 1    
    25   14   15 1    
    26   14   47 1    
    27   14   48 1    
    28   15   20 ar   
    29   15   16 ar   
    30   16   17 ar   
    31   16   49 1    
    32   17   18 ar   
    33   17   50 1    
    34   18   19 ar   
    35   18   51 1    
    36   19   20 ar   
    37   19   52 1    
    38   20   53 1    
    39   21   22 2    
    40   21   23 am   BACKBONE|DICT|INTERRES
    41   23   24 am   BACKBONE|DICT|INTERRES
    42   23   54 1    
    43   24   28 1    
    44   24   25 2    
    45   25   26 1    
    46   26   27 2    
    47   27   28 1    
    48   27   29 1    
    49   29   34 ar   
    50   29   30 ar   
    51   30   31 ar   
    52   30   55 1    
    53   31   32 ar   
    54   31   56 1    
    55   32   37 1    
    56   32   33 ar   
    57   33   34 ar   
    58   33   35 1    
    59   34   57 1    
    60   35   36 1    
    61   36   37 1    
    62   36   58 1    
    63   36   59 1    
    64   38   60 1    
    65   38   61 1    
    66   38   62 1    
@<TRIPOS>SUBSTRUCTURE
     1 UNK         1 GROUP             0       ****    0 ROOT    
