@<TRIPOS>MOLECULE
ZINC44854004_5255
69   72    1
SMALL
USER_CHARGES


@<TRIPOS>ATOM
      1 C1         -0.0400   52.8087   31.0460 C.3       1 UNK         0.0000 
      2 C2          0.5050   53.3413   29.7130 C.3       1 UNK         0.0000 
      3 C3          1.7526   54.2130   29.8989 C.3       1 UNK         0.0000 
      4 C4          2.2674   54.7523   28.5481 C.3       1 UNK         0.0000 
      5 N5          2.5489   53.6807   27.5670 N.pl3     1 UNK         0.0000 
      6 C6          1.3960   52.7677   27.4162 C.3       1 UNK         0.0000 
      7 C7          0.8942   52.2041   28.7602 C.3       1 UNK         0.0000 
      8 C8          3.3669   53.9811   26.4819 C.ar      1 UNK         0.0000 
      9 C9          4.6697   54.4374   26.7063 C.ar      1 UNK         0.0000 
     10 C10         5.5259   54.6927   25.6389 C.ar      1 UNK         0.0000 
     11 C11         5.0956   54.4979   24.3212 C.ar      1 UNK         0.0000 
     12 C12         3.7772   54.0861   24.0912 C.ar      1 UNK         0.0000 
     13 C13         2.9315   53.8130   25.1603 C.ar      1 UNK         0.0000 
     14 C14         6.0792   54.7674   23.1697 C.3       1 UNK         0.0000 
     15 H15         6.3847   55.8073   23.3054 H         1 UNK         0.0000 
     16 C16         7.3398   53.9007   23.2826 C.3       1 UNK         0.0000 
     17 N17         5.4983   54.6340   21.8263 N.am      1 UNK         0.0000 
     18 C18         5.9100   55.2957   20.7319 C.2       1 UNK         0.0000 
     19 O19         6.8200   56.1305   20.7651 O.2       1 UNK         0.0000 
     20 C20         5.1848   54.9637   19.4079 C.3       1 UNK         0.0000 
     21 C21         5.8011   53.6780   18.8005 C.3       1 UNK         0.0000 
     22 C22         5.0889   53.3247   17.4789 C.3       1 UNK         0.0000 
     23 N23         5.2163   54.5279   16.5097 N.4       1 UNK         0.0000 
     24 C24         4.5597   55.8014   17.1006 C.3       1 UNK         0.0000 
     25 C25         5.2720   56.1548   18.4175 C.3       1 UNK         0.0000 
     26 C26         4.5969   54.2195   15.1233 C.3       1 UNK         0.0000 
     27 C27         5.1618   52.9829   14.4293 C.ar      1 UNK         0.0000 
     28 C28         6.4405   53.0486   13.8580 C.ar      1 UNK         0.0000 
     29 C29         6.9927   51.9333   13.2273 C.ar      1 UNK         0.0000 
     30 C30         6.2677   50.7458   13.1458 C.ar      1 UNK         0.0000 
     31 C31         4.9860   50.6762   13.6941 C.ar      1 UNK         0.0000 
     32 C32         4.4339   51.7818   14.3413 C.ar      1 UNK         0.0000 
     33 Cl33        2.8498   51.6259   15.0217 Cl        1 UNK         0.0000 
     34 Cl34        6.9520   49.3608   12.3735 Cl        1 UNK         0.0000 
     35 H35         0.7057   52.2245   31.5889 H         1 UNK         0.0000 
     36 H36        -0.3627   53.6174   31.7024 H         1 UNK         0.0000 
     37 H37        -0.8958   52.1555   30.8813 H         1 UNK         0.0000 
     38 H38        -0.2686   53.9421   29.2291 H         1 UNK         0.0000 
     39 H39         2.5449   53.6631   30.4097 H         1 UNK         0.0000 
     40 H40         1.5183   55.0435   30.5676 H         1 UNK         0.0000 
     41 H41         3.1711   55.3277   28.7459 H         1 UNK         0.0000 
     42 H42         1.5463   55.4459   28.1103 H         1 UNK         0.0000 
     43 H43         0.5908   53.2869   26.8933 H         1 UNK         0.0000 
     44 H44         1.6940   51.9223   26.7954 H         1 UNK         0.0000 
     45 H45         0.0336   51.5551   28.5932 H         1 UNK         0.0000 
     46 H46         1.6409   51.5407   29.2014 H         1 UNK         0.0000 
     47 H47         5.0363   54.5703   27.7139 H         1 UNK         0.0000 
     48 H48         6.5299   55.0328   25.8453 H         1 UNK         0.0000 
     49 H49         3.3962   53.9444   23.0923 H         1 UNK         0.0000 
     50 H50         1.9284   53.4765   24.9500 H         1 UNK         0.0000 
     51 H51         7.8701   54.0316   24.2264 H         1 UNK         0.0000 
     52 H52         7.0657   52.8623   23.1944 H         1 UNK         0.0000 
     53 H53         8.0454   54.1096   22.4815 H         1 UNK         0.0000 
     54 H54         4.7825   53.9314   21.7222 H         1 UNK         0.0000 
     55 H55         4.1417   54.7882   19.6831 H         1 UNK         0.0000 
     56 H56         5.6576   52.8119   19.4517 H         1 UNK         0.0000 
     57 H57         6.8573   53.8145   18.5523 H         1 UNK         0.0000 
     58 H58         4.0294   53.0865   17.6044 H         1 UNK         0.0000 
     59 H59         5.6017   52.4834   17.0087 H         1 UNK         0.0000 
     60 H60         4.7006   56.6037   16.3732 H         1 UNK         0.0000 
     61 H61         3.4928   55.6051   17.2362 H         1 UNK         0.0000 
     62 H62         6.3070   56.3812   18.1481 H         1 UNK         0.0000 
     63 H63         4.7681   57.0354   18.8194 H         1 UNK         0.0000 
     64 H64         4.8009   55.1110   14.5258 H         1 UNK         0.0000 
     65 H65         3.5177   54.1685   15.2773 H         1 UNK         0.0000 
     66 H66         7.0191   53.9611   13.9171 H         1 UNK         0.0000 
     67 H67         7.9875   51.9901   12.8046 H         1 UNK         0.0000 
     68 H68         4.4249   49.7547   13.6414 H         1 UNK         0.0000 
     69 H69         6.2033   54.7087   16.3707 H         1 UNK         0.0000 
@<TRIPOS>BOND
     1    1    2 1    
     2    1   35 1    
     3    1   36 1    
     4    1   37 1    
     5    2    7 1    
     6    2    3 1    
     7    2   38 1    
     8    3    4 1    
     9    3   39 1    
    10    3   40 1    
    11    4    5 1    
    12    4   41 1    
    13    4   42 1    
    14    5    6 1    
    15    5    8 1    
    16    6    7 1    
    17    6   43 1    
    18    6   44 1    
    19    7   45 1    
    20    7   46 1    
    21    8   13 ar   
    22    8    9 ar   
    23    9   10 ar   
    24    9   47 1    
    25   10   11 ar   
    26   10   48 1    
    27   11   12 ar   
    28   11   14 1    
    29   12   13 ar   
    30   12   49 1    
    31   13   50 1    
    32   14   15 1    
    33   14   16 1    
    34   14   17 1    
    35   16   51 1    
    36   16   52 1    
    37   16   53 1    
    38   17   18 am   BACKBONE|DICT|INTERRES
    39   17   54 1    
    40   18   19 2    
    41   18   20 1    
    42   20   25 1    
    43   20   21 1    
    44   20   55 1    
    45   21   22 1    
    46   21   56 1    
    47   21   57 1    
    48   22   23 1    
    49   22   58 1    
    50   22   59 1    
    51   23   24 1    
    52   23   26 1    
    53   23   69 1    
    54   24   25 1    
    55   24   60 1    
    56   24   61 1    
    57   25   62 1    
    58   25   63 1    
    59   26   27 1    
    60   26   64 1    
    61   26   65 1    
    62   27   32 ar   
    63   27   28 ar   
    64   28   29 ar   
    65   28   66 1    
    66   29   30 ar   
    67   29   67 1    
    68   30   31 ar   
    69   30   34 1    
    70   31   32 ar   
    71   31   68 1    
    72   32   33 1    
@<TRIPOS>SUBSTRUCTURE
     1 UNK         1 GROUP             0       ****    0 ROOT    
