@<TRIPOS>MOLECULE
ZINC24832981_5042
62   66    1
SMALL
USER_CHARGES


@<TRIPOS>ATOM
      1 C1          2.5213   51.8877   17.5525 C.3       1 UNK         0.0000 
      2 C2          2.1284   51.8032   19.0150 C.ar      1 UNK         0.0000 
      3 C3          3.1023   51.5454   19.9809 C.ar      1 UNK         0.0000 
      4 C4          2.7569   51.4919   21.3289 C.ar      1 UNK         0.0000 
      5 C5          1.4352   51.7177   21.7202 C.ar      1 UNK         0.0000 
      6 C6          0.4366   51.9331   20.7545 C.ar      1 UNK         0.0000 
      7 C7          0.7991   51.9897   19.4045 C.ar      1 UNK         0.0000 
      8 C8         -1.0292   52.0958   21.1382 C.3       1 UNK         0.0000 
      9 N9          1.1256   51.6985   23.0910 N.pl3     1 UNK         0.0000 
     10 C10         1.2738   52.7102   24.0189 C.ar      1 UNK         0.0000 
     11 N11         0.8286   52.3283   25.1898 N.2       1 UNK         0.0000 
     12 N12         0.3926   51.0156   25.0553 N.2       1 UNK         0.0000 
     13 C13         0.5921   50.6520   23.8100 C.ar      1 UNK         0.0000 
     14 S14         0.2675   49.0548   23.1159 S.3       1 UNK         0.0000 
     15 C15        -0.0798   48.0426   24.5895 C.3       1 UNK         0.0000 
     16 C16        -1.4140   47.2968   24.5262 C.2       1 UNK         0.0000 
     17 O17        -1.7682   46.7499   23.4778 O.2       1 UNK         0.0000 
     18 N18        -2.0941   47.2670   25.6876 N.am      1 UNK         0.0000 
     19 C19        -3.1579   46.5080   26.0124 C.2       1 UNK         0.0000 
     20 O20        -3.7254   45.6967   25.2758 O.2       1 UNK         0.0000 
     21 N21        -3.5186   46.7437   27.2815 N.am      1 UNK         0.0000 
     22 C22        -4.5258   45.9904   28.0173 C.3       1 UNK         0.0000 
     23 C23        -5.4931   46.7617   28.8850 C.3       1 UNK         0.0000 
     24 C24        -5.9804   46.0977   27.6158 C.3       1 UNK         0.0000 
     25 C25         1.8773   54.0783   23.7365 C.3       1 UNK         0.0000 
     26 C26         3.4095   54.0962   23.7723 C.ar      1 UNK         0.0000 
     27 C27         4.1110   54.0988   22.5655 C.ar      1 UNK         0.0000 
     28 C28         5.4985   54.1223   22.5363 C.ar      1 UNK         0.0000 
     29 C29         6.2295   54.1675   23.7171 C.ar      1 UNK         0.0000 
     30 C30         5.5676   54.1757   24.9691 C.ar      1 UNK         0.0000 
     31 C31         4.1346   54.1297   25.0119 C.ar      1 UNK         0.0000 
     32 C32         3.5077   54.1236   26.2918 C.ar      1 UNK         0.0000 
     33 C33         4.2626   54.1608   27.4611 C.ar      1 UNK         0.0000 
     34 C34         5.6496   54.2126   27.4067 C.ar      1 UNK         0.0000 
     35 C35         6.3038   54.2205   26.1801 C.ar      1 UNK         0.0000 
     36 H36         2.7038   50.8926   17.1508 H         1 UNK         0.0000 
     37 H37         1.7574   52.3808   16.9512 H         1 UNK         0.0000 
     38 H38         3.4441   52.4581   17.4407 H         1 UNK         0.0000 
     39 H39         4.1289   51.3878   19.6825 H         1 UNK         0.0000 
     40 H40         3.5214   51.2945   22.0666 H         1 UNK         0.0000 
     41 H41         0.0464   52.1722   18.6516 H         1 UNK         0.0000 
     42 H42        -1.6244   52.4938   20.3165 H         1 UNK         0.0000 
     43 H43        -1.4449   51.1340   21.4380 H         1 UNK         0.0000 
     44 H44        -1.1381   52.7756   21.9824 H         1 UNK         0.0000 
     45 H45         0.0027   48.6101   25.5148 H         1 UNK         0.0000 
     46 H46         0.7043   47.2952   24.6521 H         1 UNK         0.0000 
     47 H47        -1.7003   47.8083   26.4481 H         1 UNK         0.0000 
     48 H48        -2.8550   47.2672   27.8515 H         1 UNK         0.0000 
     49 H49        -4.1629   45.0215   28.3602 H         1 UNK         0.0000 
     50 H50        -5.4069   47.8487   28.9158 H         1 UNK         0.0000 
     51 H51        -5.7886   46.3541   29.8510 H         1 UNK         0.0000 
     52 H52        -6.5986   45.2021   27.6792 H         1 UNK         0.0000 
     53 H53        -6.2395   46.7163   26.7554 H         1 UNK         0.0000 
     54 H54         1.5311   54.4511   22.7702 H         1 UNK         0.0000 
     55 H55         1.5114   54.8169   24.4491 H         1 UNK         0.0000 
     56 H56         3.5717   54.0924   21.6280 H         1 UNK         0.0000 
     57 H57         6.0091   54.1251   21.5852 H         1 UNK         0.0000 
     58 H58         7.3096   54.1980   23.6821 H         1 UNK         0.0000 
     59 H59         2.4325   54.0886   26.3706 H         1 UNK         0.0000 
     60 H60         3.7657   54.1536   28.4199 H         1 UNK         0.0000 
     61 H61         6.2231   54.2466   28.3223 H         1 UNK         0.0000 
     62 H62         7.3823   54.2487   26.1485 H         1 UNK         0.0000 
@<TRIPOS>BOND
     1    1    2 1    
     2    1   36 1    
     3    1   37 1    
     4    1   38 1    
     5    2    7 ar   
     6    2    3 ar   
     7    3    4 ar   
     8    3   39 1    
     9    4    5 ar   
    10    4   40 1    
    11    5    6 ar   
    12    5    9 1    
    13    6    7 ar   
    14    6    8 1    
    15    7   41 1    
    16    8   42 1    
    17    8   43 1    
    18    8   44 1    
    19    9   13 ar   
    20    9   10 ar   
    21   10   11 ar   
    22   10   25 1    
    23   11   12 ar   
    24   12   13 ar   
    25   13   14 1    
    26   14   15 1    
    27   15   16 1    
    28   15   45 1    
    29   15   46 1    
    30   16   17 2    
    31   16   18 am   BACKBONE|DICT|INTERRES
    32   18   19 am   BACKBONE|DICT|INTERRES
    33   18   47 1    
    34   19   20 2    
    35   19   21 am   BACKBONE|DICT|INTERRES
    36   21   22 1    
    37   21   48 1    
    38   22   24 1    
    39   22   23 1    
    40   22   49 1    
    41   23   24 1    
    42   23   50 1    
    43   23   51 1    
    44   24   52 1    
    45   24   53 1    
    46   25   26 1    
    47   25   54 1    
    48   25   55 1    
    49   26   31 ar   
    50   26   27 ar   
    51   27   28 ar   
    52   27   56 1    
    53   28   29 ar   
    54   28   57 1    
    55   29   30 ar   
    56   29   58 1    
    57   30   35 ar   
    58   30   31 ar   
    59   31   32 ar   
    60   32   33 ar   
    61   32   59 1    
    62   33   34 ar   
    63   33   60 1    
    64   34   35 ar   
    65   34   61 1    
    66   35   62 1    
@<TRIPOS>SUBSTRUCTURE
     1 UNK         1 GROUP             0       ****    0 ROOT    
