ZINC31211417_1535
                    3D
 Schrodinger Suite 2024-2.
 50 53  0  0  1  0            999 V2000
   -0.8082   51.6967   28.4653 C   0  0  0  0  0  0
    0.3088   52.6982   28.6222 C   0  0  0  0  0  0
    0.7060   53.5556   29.6370 C   0  0  0  0  0  0
    1.8454   54.2193   29.1779 C   0  0  0  0  0  0
    2.1064   53.7401   27.9022 C   0  0  0  0  0  0
    1.1509   52.8331   27.5645 O   0  0  0  0  0  0
    3.1616   53.9819   26.9403 C   0  0  0  0  0  0
    4.3514   54.4028   27.2855 N   0  0  0  0  0  0
    5.1819   54.4947   26.2622 C   0  0  0  0  0  0
    4.6320   54.1919   25.0073 C   0  0  0  0  0  0
    2.9671   53.6969   25.2410 S   0  0  0  0  0  0
    5.2988   54.0967   23.7282 C   0  0  0  0  0  0
    6.5269   54.0034   23.6611 O   0  0  0  0  0  0
    4.4776   54.1371   22.6546 N   0  0  0  0  0  0
    4.9834   53.8839   21.3744 N   0  0  0  0  0  0
    5.5044   54.8448   20.5756 C   0  0  0  0  0  0
    5.9050   55.9715   20.8813 O   0  0  0  0  0  0
    5.4358   54.2577   19.1734 C   0  0  2  0  0  0
    6.7923   54.4170   18.4323 C   0  0  0  0  0  0
    6.7146   53.8016   17.0168 C   0  0  0  0  0  0
    5.6102   54.4933   16.1792 C   0  0  2  0  0  0
    4.2510   54.4071   16.9163 C   0  0  0  0  0  0
    4.3570   55.0047   18.3372 C   0  0  0  0  0  0
    5.5242   53.9136   14.7571 C   0  0  0  0  0  0
    5.0876   52.8968   19.4836 N   0  0  0  0  0  0
    4.7459   52.6977   20.7593 C   0  0  0  0  0  0
    4.4602   51.6227   21.2820 O   0  0  0  0  0  0
    6.6021   54.8964   26.6024 C   0  0  0  0  0  0
   -1.3328   51.5194   29.4042 H   0  0  0  0  0  0
   -0.4366   50.7299   28.1244 H   0  0  0  0  0  0
   -1.5461   52.0273   27.7349 H   0  0  0  0  0  0
    0.2295   53.6719   30.5997 H   0  0  0  0  0  0
    2.4258   54.9581   29.7104 H   0  0  0  0  0  0
    3.4711   54.1932   22.6887 H   0  0  0  0  0  0
    7.1420   55.4510   18.4299 H   0  0  0  0  0  0
    7.5683   53.8683   18.9661 H   0  0  0  0  0  0
    6.5214   52.7277   17.0777 H   0  0  0  0  0  0
    7.6769   53.8834   16.5111 H   0  0  0  0  0  0
    5.8723   55.5512   16.1098 H   0  0  0  0  0  0
    3.9234   53.3673   16.9637 H   0  0  0  0  0  0
    3.4761   54.9196   16.3429 H   0  0  0  0  0  0
    3.3813   54.8693   18.8065 H   0  0  0  0  0  0
    4.5112   56.0858   18.3349 H   0  0  0  0  0  0
    5.2649   52.8541   14.7738 H   0  0  0  0  0  0
    4.7680   54.4293   14.1646 H   0  0  0  0  0  0
    6.4750   54.0135   14.2319 H   0  0  0  0  0  0
    4.8194   52.2489   18.7488 H   0  0  0  0  0  0
    7.2639   54.0290   26.5803 H   0  0  0  0  0  0
    6.9906   55.6168   25.8812 H   0  0  0  0  0  0
    6.7026   55.3489   27.5921 H   0  0  0  0  0  0
  1  2  1  0  0  0
  1 29  1  0  0  0
  1 30  1  0  0  0
  1 31  1  0  0  0
  2  6  1  0  0  0
  2  3  2  0  0  0
  3  4  1  0  0  0
  3 32  1  0  0  0
  4  5  2  0  0  0
  4 33  1  0  0  0
  5  6  1  0  0  0
  5  7  1  0  0  0
  7 11  1  0  0  0
  7  8  2  0  0  0
  8  9  1  0  0  0
  9 10  2  0  0  0
  9 28  1  0  0  0
 10 11  1  0  0  0
 10 12  1  0  0  0
 12 13  2  0  0  0
 12 14  1  0  0  0
 14 15  1  0  0  0
 14 34  1  0  0  0
 15 26  1  0  0  0
 15 16  1  0  0  0
 16 17  2  0  0  0
 16 18  1  0  0  0
 18 23  1  0  0  0
 18 19  1  0  0  0
 18 25  1  0  0  0
 19 20  1  0  0  0
 19 35  1  0  0  0
 19 36  1  0  0  0
 20 21  1  0  0  0
 20 37  1  0  0  0
 20 38  1  0  0  0
 21 22  1  0  0  0
 21 24  1  0  0  0
 21 39  1  0  0  0
 22 23  1  0  0  0
 22 40  1  0  0  0
 22 41  1  0  0  0
 23 42  1  0  0  0
 23 43  1  0  0  0
 24 44  1  0  0  0
 24 45  1  0  0  0
 24 46  1  0  0  0
 25 26  1  0  0  0
 25 47  1  0  0  0
 26 27  2  0  0  0
 28 48  1  0  0  0
 28 49  1  0  0  0
 28 50  1  0  0  0
M  END
> <i_i_glide_confnum>
1

> <i_i_glide_lignum>
1536

> <i_i_glide_posenum>
327

> <i_i_glide_rotatable_bonds>
4

> <i_m_Source_File_Index>
730

> <b_m_subgroup_collapsed>
0

> <r_i_docking_score>
-6.22648

> <r_i_glide_ecoul>
-4.70411

> <r_i_glide_eff_state_penalty>
0

> <r_i_glide_einternal>
1.59416

> <r_i_glide_emodel>
-68.3143

> <r_i_glide_energy>
-50.5993

> <r_i_glide_erotb>
0.484602

> <r_i_glide_esite>
-0.0790677

> <r_i_glide_evdw>
-45.8952

> <r_i_glide_gscore>
-6.22648

> <r_i_glide_hbond>
-0.107676

> <r_i_glide_ligand_efficiency>
-0.222374

> <r_i_glide_ligand_efficiency_ln>
-1.43726

> <r_i_glide_ligand_efficiency_sa>
-0.67526

> <r_i_glide_lipo>
-2.01944

> <r_i_glide_metal>
0

> <r_i_glide_rewards>
-1.50453

> <s_i_glide_gridfile>
wee1_glide-grid

> <s_m_Source_File>
wee1_decoys_glide_SP.sdf

> <s_m_Source_Path>
/Users/zhangxujun/Desktop

> <s_m_entry_id>
1005

> <s_m_entry_name>
wee1_decoys_glide_SP.730

> <s_m_subgroup_title>
wee1_decoys_glide_SP

> <s_m_subgroupid>
wee1_decoys_glide_SP


$$$$
