ZINC20459042_3970
                    3D
 Schrodinger Suite 2024-2.
 55 58  0  0  1  0            999 V2000
    4.3025   54.1184   20.4778 C   0  0  0  0  0  0
    4.5280   52.7417   21.1153 C   0  0  0  0  0  0
    3.5325   52.4111   22.0816 O   0  0  0  0  0  0
    2.3035   51.9541   21.7350 C   0  0  0  0  0  0
    1.9173   51.8803   20.5660 O   0  0  0  0  0  0
    1.4869   51.4483   22.8754 C   0  0  0  0  0  0
    1.4622   52.0717   24.0891 C   0  0  0  0  0  0
    0.6397   51.6981   25.1168 N   0  0  0  0  0  0
    0.6896   52.3606   26.2977 C   0  0  0  0  0  0
   -0.0996   52.1501   27.2203 O   0  0  0  0  0  0
    1.7685   53.3245   26.2926 C   0  0  0  0  0  0
    2.1919   54.0369   27.3698 C   0  0  0  0  0  0
    1.7163   54.0308   28.7792 C   0  0  0  0  0  0
    1.4047   52.8494   29.4716 C   0  0  0  0  0  0
    0.7454   52.8933   30.7007 C   0  0  0  0  0  0
    0.4384   54.1193   31.2815 C   0  0  0  0  0  0
    0.8540   55.2967   30.6597 C   0  0  0  0  0  0
    1.4892   55.2561   29.4211 C   0  0  0  0  0  0
    1.8597   56.4233   28.8477 F   0  0  0  0  0  0
    2.3736   53.4946   24.6438 S   0  0  0  0  0  0
   -0.4261   50.6657   24.9255 C   0  0  2  0  0  0
   -0.4372   50.0593   25.8356 H   0  0  0  0  0  0
   -0.0885   49.7743   23.7048 C   0  0  0  0  0  0
    0.7190   50.1964   22.6860 C   0  0  0  0  0  0
    0.9614   49.3881   21.5914 N   0  0  0  0  0  0
   -0.8481   48.4978   23.6584 C   0  0  0  0  0  0
   -1.2947   48.0015   22.6201 O   0  0  0  0  0  0
   -0.9886   47.9357   24.8806 O   0  0  0  0  0  0
   -1.7234   46.7374   25.0639 C   0  0  0  0  0  0
   -1.8534   51.2623   24.8815 C   0  0  0  0  0  0
   -2.8856   50.5664   25.5276 C   0  0  0  0  0  0
   -4.1871   51.0672   25.5414 C   0  0  0  0  0  0
   -4.4741   52.2796   24.9182 C   0  0  0  0  0  0
   -3.4549   52.9936   24.2916 C   0  0  0  0  0  0
   -2.1531   52.4945   24.2754 C   0  0  0  0  0  0
   -1.1923   53.2338   23.6818 F   0  0  0  0  0  0
    5.1535   54.4009   19.8587 H   0  0  0  0  0  0
    3.4258   54.1016   19.8334 H   0  0  0  0  0  0
    4.1617   54.8930   21.2326 H   0  0  0  0  0  0
    5.4894   52.7434   21.6291 H   0  0  0  0  0  0
    4.5914   51.9690   20.3467 H   0  0  0  0  0  0
    2.9996   54.7317   27.1862 H   0  0  0  0  0  0
    1.6068   51.8851   29.0283 H   0  0  0  0  0  0
    0.4511   51.9806   31.1985 H   0  0  0  0  0  0
   -0.0704   54.1499   32.2348 H   0  0  0  0  0  0
    0.7035   56.2524   31.1380 H   0  0  0  0  0  0
    1.5285   49.7226   20.8234 H   0  0  0  0  0  0
    0.3959   48.5638   21.4417 H   0  0  0  0  0  0
   -1.7027   46.4534   26.1166 H   0  0  0  0  0  0
   -2.7645   46.8719   24.7675 H   0  0  0  0  0  0
   -1.2959   45.9230   24.4790 H   0  0  0  0  0  0
   -2.6806   49.6328   26.0343 H   0  0  0  0  0  0
   -4.9706   50.5163   26.0417 H   0  0  0  0  0  0
   -5.4818   52.6689   24.9283 H   0  0  0  0  0  0
   -3.6699   53.9415   23.8213 H   0  0  0  0  0  0
  1  2  1  0  0  0
  1 37  1  0  0  0
  1 38  1  0  0  0
  1 39  1  0  0  0
  2  3  1  0  0  0
  2 40  1  0  0  0
  2 41  1  0  0  0
  3  4  1  0  0  0
  4  5  2  0  0  0
  4  6  1  0  0  0
  6 24  1  0  0  0
  6  7  2  0  0  0
  7 20  1  0  0  0
  7  8  1  0  0  0
  8  9  1  0  0  0
  8 21  1  0  0  0
  9 10  2  0  0  0
  9 11  1  0  0  0
 11 12  2  0  0  0
 11 20  1  0  0  0
 12 13  1  0  0  0
 12 42  1  0  0  0
 13 18  2  0  0  0
 13 14  1  0  0  0
 14 15  2  0  0  0
 14 43  1  0  0  0
 15 16  1  0  0  0
 15 44  1  0  0  0
 16 17  2  0  0  0
 16 45  1  0  0  0
 17 18  1  0  0  0
 17 46  1  0  0  0
 18 19  1  0  0  0
 21 22  1  0  0  0
 21 23  1  0  0  0
 21 30  1  0  0  0
 23 24  2  0  0  0
 23 26  1  0  0  0
 24 25  1  0  0  0
 25 47  1  0  0  0
 25 48  1  0  0  0
 26 27  2  0  0  0
 26 28  1  0  0  0
 28 29  1  0  0  0
 29 49  1  0  0  0
 29 50  1  0  0  0
 29 51  1  0  0  0
 30 35  2  0  0  0
 30 31  1  0  0  0
 31 32  2  0  0  0
 31 52  1  0  0  0
 32 33  1  0  0  0
 32 53  1  0  0  0
 33 34  2  0  0  0
 33 54  1  0  0  0
 34 35  1  0  0  0
 34 55  1  0  0  0
 35 36  1  0  0  0
M  END
> <i_i_glide_confnum>
23

> <i_i_glide_lignum>
3971

> <i_i_glide_posenum>
329

> <i_i_glide_rotatable_bonds>
7

> <i_m_Source_File_Index>
568

> <b_m_subgroup_collapsed>
0

> <r_i_docking_score>
-4.93711

> <r_i_glide_ecoul>
-0.530362

> <r_i_glide_eff_state_penalty>
0

> <r_i_glide_einternal>
2.88008

> <r_i_glide_emodel>
-54.319

> <r_i_glide_energy>
-42.7364

> <r_i_glide_erotb>
0.328471

> <r_i_glide_esite>
-0.0146539

> <r_i_glide_evdw>
-42.2061

> <r_i_glide_gscore>
-4.93711

> <r_i_glide_hbond>
0

> <r_i_glide_ligand_efficiency>
-0.14106

> <r_i_glide_ligand_efficiency_ln>
-1.0838

> <r_i_glide_ligand_efficiency_sa>
-0.461417

> <r_i_glide_lipo>
-2.36149

> <r_i_glide_metal>
0

> <r_i_glide_rewards>
-0.69958

> <s_i_glide_gridfile>
wee1_glide-grid

> <s_m_Source_File>
wee1_decoys_glide_SP.sdf

> <s_m_Source_Path>
/Users/zhangxujun/Desktop

> <s_m_entry_id>
843

> <s_m_entry_name>
wee1_decoys_glide_SP.568

> <s_m_subgroup_title>
wee1_decoys_glide_SP

> <s_m_subgroupid>
wee1_decoys_glide_SP


$$$$
