ZINC21237098_831
                    3D
 Schrodinger Suite 2024-2.
 54 57  0  0  1  0            999 V2000
   -1.1647   48.8936   18.5845 C   0  0  0  0  0  0
   -0.3457   50.0595   17.9856 C   0  0  0  0  0  0
    0.5903   50.8601   18.9504 C   0  0  1  0  0  0
   -0.1867   51.3555   20.1697 C   0  0  0  0  0  0
   -1.1756   52.0964   20.1538 O   0  0  0  0  0  0
    0.3898   50.7722   21.2451 N   0  0  0  0  0  0
    1.4492   49.9774   20.9484 C   0  0  0  0  0  0
    2.3116   49.5632   21.7191 O   0  0  0  0  0  0
    1.5101   49.9648   19.6143 N   0  0  0  0  0  0
   -0.0587   51.0138   22.6348 C   0  0  0  0  0  0
    0.4837   52.3412   23.2091 C   0  0  0  0  0  0
   -0.1146   52.8615   24.1502 O   0  0  0  0  0  0
    1.5852   52.8933   22.6594 N   0  0  0  0  0  0
    2.1591   54.1814   23.0367 C   0  0  0  0  0  0
    3.0637   54.0961   24.2493 C   0  0  0  0  0  0
    4.4077   54.3473   24.4774 C   0  0  0  0  0  0
    4.6399   54.0995   25.8320 C   0  0  0  0  0  0
    3.4300   53.7042   26.3867 C   0  0  0  0  0  0
    2.4805   53.7059   25.4118 O   0  0  0  0  0  0
    3.0043   53.2965   27.7555 C   0  0  0  0  0  0
    3.9505   53.2222   28.7829 C   0  0  0  0  0  0
    3.5625   52.8322   30.0633 C   0  0  0  0  0  0
    2.2255   52.5264   30.3140 C   0  0  0  0  0  0
    1.2798   52.5856   29.2940 C   0  0  0  0  0  0
    1.6687   52.9697   28.0141 C   0  0  0  0  0  0
    1.7310   52.0906   31.9056 Cl  0  0  0  0  0  0
    1.3032   52.0252   18.2149 C   0  0  0  0  0  0
    2.7042   52.0975   18.1216 C   0  0  0  0  0  0
    3.3188   53.1592   17.4637 C   0  0  0  0  0  0
    2.5444   54.1613   16.8898 C   0  0  0  0  0  0
    1.1564   54.1056   16.9639 C   0  0  0  0  0  0
    0.5414   53.0454   17.6257 C   0  0  0  0  0  0
    3.1414   55.1943   16.2570 F   0  0  0  0  0  0
   -1.7416   48.3889   17.8058 H   0  0  0  0  0  0
   -0.5230   48.1437   19.0492 H   0  0  0  0  0  0
   -1.8766   49.2393   19.3371 H   0  0  0  0  0  0
   -1.0391   50.7408   17.4903 H   0  0  0  0  0  0
    0.2673   49.6456   17.1828 H   0  0  0  0  0  0
    1.9810   49.2336   19.0996 H   0  0  0  0  0  0
   -1.1468   51.0855   22.6259 H   0  0  0  0  0  0
    0.2013   50.1901   23.3008 H   0  0  0  0  0  0
    2.0271   52.4123   21.8868 H   0  0  0  0  0  0
    2.7077   54.5628   22.1735 H   0  0  0  0  0  0
    1.3551   54.8972   23.2064 H   0  0  0  0  0  0
    5.1336   54.6698   23.7462 H   0  0  0  0  0  0
    5.5827   54.1902   26.3501 H   0  0  0  0  0  0
    4.9874   53.4613   28.5982 H   0  0  0  0  0  0
    4.3008   52.7718   30.8507 H   0  0  0  0  0  0
    0.2464   52.3365   29.4926 H   0  0  0  0  0  0
    0.9293   53.0106   27.2274 H   0  0  0  0  0  0
    3.3406   51.3283   18.5406 H   0  0  0  0  0  0
    4.3961   53.1972   17.3955 H   0  0  0  0  0  0
    0.5618   54.8879   16.5193 H   0  0  0  0  0  0
   -0.5387   53.0258   17.6827 H   0  0  0  0  0  0
  1  2  1  0  0  0
  1 34  1  0  0  0
  1 35  1  0  0  0
  1 36  1  0  0  0
  2  3  1  0  0  0
  2 37  1  0  0  0
  2 38  1  0  0  0
  3  9  1  0  0  0
  3  4  1  0  0  0
  3 27  1  0  0  0
  4  5  2  0  0  0
  4  6  1  0  0  0
  6  7  1  0  0  0
  6 10  1  0  0  0
  7  8  2  0  0  0
  7  9  1  0  0  0
  9 39  1  0  0  0
 10 11  1  0  0  0
 10 40  1  0  0  0
 10 41  1  0  0  0
 11 12  2  0  0  0
 11 13  1  0  0  0
 13 14  1  0  0  0
 13 42  1  0  0  0
 14 15  1  0  0  0
 14 43  1  0  0  0
 14 44  1  0  0  0
 15 19  1  0  0  0
 15 16  2  0  0  0
 16 17  1  0  0  0
 16 45  1  0  0  0
 17 18  2  0  0  0
 17 46  1  0  0  0
 18 19  1  0  0  0
 18 20  1  0  0  0
 20 25  2  0  0  0
 20 21  1  0  0  0
 21 22  2  0  0  0
 21 47  1  0  0  0
 22 23  1  0  0  0
 22 48  1  0  0  0
 23 24  2  0  0  0
 23 26  1  0  0  0
 24 25  1  0  0  0
 24 49  1  0  0  0
 25 50  1  0  0  0
 27 32  2  0  0  0
 27 28  1  0  0  0
 28 29  2  0  0  0
 28 51  1  0  0  0
 29 30  1  0  0  0
 29 52  1  0  0  0
 30 31  2  0  0  0
 30 33  1  0  0  0
 31 32  1  0  0  0
 31 53  1  0  0  0
 32 54  1  0  0  0
M  END
> <i_i_glide_confnum>
122

> <i_i_glide_lignum>
832

> <i_i_glide_posenum>
90

> <i_i_glide_rotatable_bonds>
8

> <i_m_Source_File_Index>
5232

> <b_m_subgroup_collapsed>
0

> <r_i_docking_score>
-4.36979

> <r_i_glide_ecoul>
-3.65932

> <r_i_glide_eff_state_penalty>
0

> <r_i_glide_einternal>
1.44242

> <r_i_glide_emodel>
-56.3286

> <r_i_glide_energy>
-43.834

> <r_i_glide_erotb>
0.640432

> <r_i_glide_esite>
-0.0359858

> <r_i_glide_evdw>
-40.1747

> <r_i_glide_gscore>
-4.36979

> <r_i_glide_hbond>
0

> <r_i_glide_ligand_efficiency>
-0.132418

> <r_i_glide_ligand_efficiency_ln>
-0.97182

> <r_i_glide_ligand_efficiency_sa>
-0.424735

> <r_i_glide_lipo>
-1.96768

> <r_i_glide_metal>
0

> <r_i_glide_rewards>
-0.448931

> <s_i_glide_gridfile>
wee1_glide-grid

> <s_m_Source_File>
wee1_decoys_glide_SP.sdf

> <s_m_Source_Path>
/Users/zhangxujun/Desktop

> <s_m_entry_id>
5507

> <s_m_entry_name>
wee1_decoys_glide_SP.5232

> <s_m_subgroup_title>
wee1_decoys_glide_SP

> <s_m_subgroupid>
wee1_decoys_glide_SP


$$$$
