@<TRIPOS>MOLECULE
ZINC09824682_4525
54   57    1
SMALL
USER_CHARGES


@<TRIPOS>ATOM
      1 C1          6.9707   54.9661   24.1581 C.3       1 UNK         0.0000 
      2 C2          5.5794   54.4957   23.7865 C.ar      1 UNK         0.0000 
      3 C3          5.2305   54.4779   22.4357 C.ar      1 UNK         0.0000 
      4 C4          3.9562   54.0855   22.0531 C.ar      1 UNK         0.0000 
      5 C5          3.0284   53.7005   23.0127 C.ar      1 UNK         0.0000 
      6 C6          3.3507   53.7006   24.3796 C.ar      1 UNK         0.0000 
      7 C7          4.6498   54.0996   24.7665 C.ar      1 UNK         0.0000 
      8 C8          5.0760   54.0772   26.2415 C.3       1 UNK         0.0000 
      9 N9          2.4633   53.2756   25.3933 N.pl3     1 UNK         0.0000 
     10 C10         1.1464   52.8684   25.4456 C.2       1 UNK         0.0000 
     11 C11         0.4879   52.4102   26.5912 C.2       1 UNK         0.0000 
     12 C12        -0.8622   52.0965   26.3282 C.2       1 UNK         0.0000 
     13 C13        -1.2472   52.2569   24.9908 C.2       1 UNK         0.0000 
     14 S14         0.0780   52.8951   24.0765 S.3       1 UNK         0.0000 
     15 C15        -2.5124   52.0203   24.2744 C.2       1 UNK         0.0000 
     16 O16        -2.7983   52.7282   23.3048 O.2       1 UNK         0.0000 
     17 C17        -3.4816   50.9889   24.7725 C.ar      1 UNK         0.0000 
     18 C18        -4.8559   51.1738   24.5640 C.ar      1 UNK         0.0000 
     19 C19        -5.7693   50.2118   24.9890 C.ar      1 UNK         0.0000 
     20 C20        -5.3149   49.0529   25.6139 C.ar      1 UNK         0.0000 
     21 C21        -3.9528   48.8414   25.8000 C.ar      1 UNK         0.0000 
     22 C22        -3.0371   49.7955   25.3642 C.ar      1 UNK         0.0000 
     23 F23        -6.2037   48.1245   26.0343 F         1 UNK         0.0000 
     24 N24        -1.7134   51.6964   27.3131 N.pl3     1 UNK         0.0000 
     25 S25         1.2657   52.2543   28.2438 S.o2      1 UNK         0.0000 
     26 O26         0.4495   51.3357   29.0436 O.2       1 UNK         0.0000 
     27 O27         2.7038   52.0329   28.0783 O.2       1 UNK         0.0000 
     28 C28         1.1755   53.8570   28.9904 C.ar      1 UNK         0.0000 
     29 C29         1.7939   54.9391   28.3637 C.ar      1 UNK         0.0000 
     30 C30         1.8485   56.1699   29.0033 C.ar      1 UNK         0.0000 
     31 C31         1.3165   56.3044   30.2802 C.ar      1 UNK         0.0000 
     32 C32         0.7033   55.2169   30.8976 C.ar      1 UNK         0.0000 
     33 C33         0.6174   53.9925   30.2569 C.ar      1 UNK         0.0000 
     34 H34         6.9260   55.7156   24.9482 H         1 UNK         0.0000 
     35 H35         7.5291   54.1093   24.5330 H         1 UNK         0.0000 
     36 H36         7.5022   55.4129   23.3179 H         1 UNK         0.0000 
     37 H37         5.9401   54.7784   21.6784 H         1 UNK         0.0000 
     38 H38         3.6818   54.0822   21.0087 H         1 UNK         0.0000 
     39 H39         2.0728   53.3972   22.6317 H         1 UNK         0.0000 
     40 H40         6.1376   53.8585   26.3555 H         1 UNK         0.0000 
     41 H41         4.8571   55.0321   26.7217 H         1 UNK         0.0000 
     42 H42         4.5892   53.2845   26.8025 H         1 UNK         0.0000 
     43 H43         2.9831   53.1567   26.2543 H         1 UNK         0.0000 
     44 H44        -5.2289   52.0651   24.0777 H         1 UNK         0.0000 
     45 H45        -6.8270   50.3628   24.8341 H         1 UNK         0.0000 
     46 H46        -3.6020   47.9414   26.2854 H         1 UNK         0.0000 
     47 H47        -1.9835   49.5973   25.5070 H         1 UNK         0.0000 
     48 H48        -1.3279   51.3956   28.2048 H         1 UNK         0.0000 
     49 H49        -2.6452   51.3665   27.1038 H         1 UNK         0.0000 
     50 H50         2.2493   54.8349   27.3932 H         1 UNK         0.0000 
     51 H51         2.3051   57.0126   28.5110 H         1 UNK         0.0000 
     52 H52         1.3808   57.2554   30.7922 H         1 UNK         0.0000 
     53 H53         0.3119   55.2866   31.8982 H         1 UNK         0.0000 
     54 H54         0.1659   53.1508   30.7653 H         1 UNK         0.0000 
@<TRIPOS>BOND
     1    1    2 1    
     2    1   34 1    
     3    1   35 1    
     4    1   36 1    
     5    2    7 ar   
     6    2    3 ar   
     7    3    4 ar   
     8    3   37 1    
     9    4    5 ar   
    10    4   38 1    
    11    5    6 ar   
    12    5   39 1    
    13    6    7 ar   
    14    6    9 1    
    15    7    8 1    
    16    8   40 1    
    17    8   41 1    
    18    8   42 1    
    19    9   10 1    
    20    9   43 1    
    21   10   14 1    
    22   10   11 2    
    23   11   12 1    
    24   11   25 1    
    25   12   13 2    
    26   12   24 1    
    27   13   14 1    
    28   13   15 1    
    29   15   16 2    
    30   15   17 1    
    31   17   22 ar   
    32   17   18 ar   
    33   18   19 ar   
    34   18   44 1    
    35   19   20 ar   
    36   19   45 1    
    37   20   21 ar   
    38   20   23 1    
    39   21   22 ar   
    40   21   46 1    
    41   22   47 1    
    42   24   48 1    
    43   24   49 1    
    44   25   26 2    
    45   25   27 2    
    46   25   28 1    
    47   28   33 ar   
    48   28   29 ar   
    49   29   30 ar   
    50   29   50 1    
    51   30   31 ar   
    52   30   51 1    
    53   31   32 ar   
    54   31   52 1    
    55   32   33 ar   
    56   32   53 1    
    57   33   54 1    
@<TRIPOS>SUBSTRUCTURE
     1 UNK         1 GROUP             0       ****    0 ROOT    
