ZINC64558185_1011
                    3D
 Schrodinger Suite 2024-2.
 51 54  0  0  1  0            999 V2000
   -1.6827   46.9344   21.2751 C   0  0  0  0  0  0
   -1.9929   48.2454   21.9663 C   0  0  0  0  0  0
   -2.6068   48.2384   23.2212 C   0  0  0  0  0  0
   -2.8631   49.4379   23.8768 C   0  0  0  0  0  0
   -2.5005   50.6473   23.2780 C   0  0  0  0  0  0
   -1.8962   50.6577   22.0193 C   0  0  0  0  0  0
   -1.6395   49.4553   21.3648 C   0  0  0  0  0  0
   -2.7795   52.1760   24.1686 S   0  0  0  0  0  0
   -4.1155   52.0791   24.7647 O   0  0  0  0  0  0
   -2.4531   53.2960   23.2809 O   0  0  0  0  0  0
   -1.5335   52.1376   25.4565 C   0  0  0  0  0  0
   -1.6851   51.8602   26.7448 C   0  0  0  0  0  0
   -0.4535   52.0933   27.4850 C   0  0  0  0  0  0
   -0.2983   51.9917   28.7079 O   0  0  0  0  0  0
    0.4864   52.4965   26.5648 N   0  0  0  0  0  0
   -0.1314   52.5881   25.2206 C   0  0  1  0  0  0
   -0.1491   53.6251   24.8819 H   0  0  0  0  0  0
    0.6033   51.8528   24.0961 C   0  0  0  0  0  0
    0.8012   50.4701   24.1364 C   0  0  0  0  0  0
    1.3912   49.8214   23.0557 C   0  0  0  0  0  0
    1.8120   50.5513   21.9325 C   0  0  0  0  0  0
    1.6531   51.9347   21.9182 C   0  0  0  0  0  0
    1.0428   52.5819   22.9864 C   0  0  0  0  0  0
    2.3684   49.9924   20.8018 O   0  0  0  0  0  0
    2.2901   48.5847   20.6256 C   0  0  0  0  0  0
    1.8267   52.8967   26.8703 C   0  0  0  0  0  0
    2.4861   52.5124   28.0542 C   0  0  0  0  0  0
    3.7965   52.9113   28.3086 C   0  0  0  0  0  0
    4.4779   53.6882   27.3761 C   0  0  0  0  0  0
    3.8450   54.0905   26.2043 C   0  0  0  0  0  0
    2.5315   53.6967   25.9556 C   0  0  0  0  0  0
    6.3033   54.1360   27.6801 Br  0  0  0  0  0  0
   -2.7491   51.5080   27.3763 O   0  5  0  0  0  0
   -1.3412   46.1883   21.9964 H   0  0  0  0  0  0
   -2.5701   46.5432   20.7748 H   0  0  0  0  0  0
   -0.8820   47.0454   20.5402 H   0  0  0  0  0  0
   -2.8775   47.3072   23.6946 H   0  0  0  0  0  0
   -3.3237   49.4327   24.8572 H   0  0  0  0  0  0
   -1.5995   51.5886   21.5615 H   0  0  0  0  0  0
   -1.1520   49.4675   20.3993 H   0  0  0  0  0  0
    0.4711   49.8970   24.9904 H   0  0  0  0  0  0
    1.5032   48.7508   23.1061 H   0  0  0  0  0  0
    1.9751   52.5061   21.0599 H   0  0  0  0  0  0
    0.8989   53.6513   22.9356 H   0  0  0  0  0  0
    2.7351   48.3046   19.6720 H   0  0  0  0  0  0
    1.2518   48.2513   20.6128 H   0  0  0  0  0  0
    2.8160   48.0565   21.4186 H   0  0  0  0  0  0
    2.0199   51.8697   28.7837 H   0  0  0  0  0  0
    4.2994   52.5848   29.2046 H   0  0  0  0  0  0
    4.3752   54.6929   25.4830 H   0  0  0  0  0  0
    2.0713   54.0375   25.0429 H   0  0  0  0  0  0
  1  2  1  0  0  0
  1 34  1  0  0  0
  1 35  1  0  0  0
  1 36  1  0  0  0
  2  7  2  0  0  0
  2  3  1  0  0  0
  3  4  2  0  0  0
  3 37  1  0  0  0
  4  5  1  0  0  0
  4 38  1  0  0  0
  5  6  2  0  0  0
  5  8  1  0  0  0
  6  7  1  0  0  0
  6 39  1  0  0  0
  7 40  1  0  0  0
  8  9  2  0  0  0
  8 10  2  0  0  0
  8 11  1  0  0  0
 11 16  1  0  0  0
 11 12  2  0  0  0
 12 13  1  0  0  0
 12 33  1  0  0  0
 13 14  2  0  0  0
 13 15  1  0  0  0
 15 16  1  0  0  0
 15 26  1  0  0  0
 16 17  1  0  0  0
 16 18  1  0  0  0
 18 23  2  0  0  0
 18 19  1  0  0  0
 19 20  2  0  0  0
 19 41  1  0  0  0
 20 21  1  0  0  0
 20 42  1  0  0  0
 21 22  2  0  0  0
 21 24  1  0  0  0
 22 23  1  0  0  0
 22 43  1  0  0  0
 23 44  1  0  0  0
 24 25  1  0  0  0
 25 45  1  0  0  0
 25 46  1  0  0  0
 25 47  1  0  0  0
 26 31  2  0  0  0
 26 27  1  0  0  0
 27 28  2  0  0  0
 27 48  1  0  0  0
 28 29  1  0  0  0
 28 49  1  0  0  0
 29 30  2  0  0  0
 29 32  1  0  0  0
 30 31  1  0  0  0
 30 50  1  0  0  0
 31 51  1  0  0  0
M  CHG  1  33  -1
M  END
> <i_i_glide_confnum>
5

> <i_i_glide_lignum>
1012

> <i_i_glide_posenum>
319

> <i_i_glide_rotatable_bonds>
5

> <i_m_Source_File_Index>
5217

> <b_m_subgroup_collapsed>
0

> <r_i_docking_score>
-4.29667

> <r_i_glide_ecoul>
-2.43883

> <r_i_glide_eff_state_penalty>
0

> <r_i_glide_einternal>
2.27439

> <r_i_glide_emodel>
-52.184

> <r_i_glide_energy>
-42.5546

> <r_i_glide_erotb>
0.311211

> <r_i_glide_esite>
-0.0238419

> <r_i_glide_evdw>
-40.1157

> <r_i_glide_gscore>
-4.29667

> <r_i_glide_hbond>
0

> <r_i_glide_ligand_efficiency>
-0.134271

> <r_i_glide_ligand_efficiency_ln>
-0.962142

> <r_i_glide_ligand_efficiency_sa>
-0.426284

> <r_i_glide_lipo>
-2.09867

> <r_i_glide_metal>
0

> <r_i_glide_rewards>
-0.113761

> <s_i_glide_gridfile>
wee1_glide-grid

> <s_m_Source_File>
wee1_decoys_glide_SP.sdf

> <s_m_Source_Path>
/Users/zhangxujun/Desktop

> <s_m_entry_id>
5492

> <s_m_entry_name>
wee1_decoys_glide_SP.5217

> <s_m_subgroup_title>
wee1_decoys_glide_SP

> <s_m_subgroupid>
wee1_decoys_glide_SP


$$$$
