ZINC13445372_3310
                    3D
 Schrodinger Suite 2024-2.
 63 66  0  0  1  0            999 V2000
   -3.8195   48.1017   18.9102 C   0  0  0  0  0  0
   -3.3665   49.3616   19.3979 O   0  0  0  0  0  0
   -2.7952   49.4446   20.6573 C   0  0  0  0  0  0
   -2.6203   48.3443   21.5048 C   0  0  0  0  0  0
   -2.0502   48.4614   22.7831 C   0  0  0  0  0  0
   -1.6957   49.7612   23.2377 C   0  0  0  0  0  0
   -1.8111   50.8668   22.3591 C   0  0  0  0  0  0
   -2.3597   50.7046   21.0837 C   0  0  0  0  0  0
   -2.4955   51.8092   20.2661 O   0  0  0  0  0  0
   -1.5462   51.8928   19.2117 C   0  0  0  0  0  0
   -1.4130   52.1364   22.7196 O   0  0  0  0  0  0
   -0.0096   52.3581   22.7296 C   0  0  0  0  0  0
   -1.2041   49.9430   24.5535 N   0  0  0  0  0  0
   -1.6043   50.8872   25.4342 C   0  0  0  0  0  0
   -2.6147   51.5743   25.2582 O   0  0  0  0  0  0
   -0.7852   51.0366   26.7428 C   0  0  0  0  0  0
    0.7354   51.1058   26.4384 C   0  0  0  0  0  0
    1.6134   51.5547   27.6405 C   0  0  0  0  0  0
    1.0377   52.7826   28.1999 N   0  0  0  0  0  0
   -0.3151   52.6023   28.7524 C   0  0  0  0  0  0
   -1.2666   52.2449   27.5927 C   0  0  0  0  0  0
    1.6504   54.0016   28.1839 C   0  0  0  0  0  0
    1.1046   55.0324   28.5824 O   0  0  0  0  0  0
    3.1024   54.0880   27.7599 C   0  0  0  0  0  0
    4.0608   54.2264   28.7700 C   0  0  0  0  0  0
    5.4143   54.3396   28.4805 C   0  0  0  0  0  0
    5.8578   54.3122   27.1665 C   0  0  0  0  0  0
    4.9358   54.1969   26.1016 C   0  0  0  0  0  0
    3.5320   54.0967   26.3847 C   0  0  0  0  0  0
    2.6400   54.0234   25.2741 C   0  0  0  0  0  0
    3.1166   54.0287   23.9657 C   0  0  0  0  0  0
    4.4806   54.0968   23.7087 C   0  0  0  0  0  0
    5.3878   54.1885   24.7566 C   0  0  0  0  0  0
   -1.8277   47.2019   23.5909 C   0  0  0  0  0  0
   -0.9471   47.2153   24.4816 O   0  0  0  0  0  0
   -4.2363   48.2325   17.9111 H   0  0  0  0  0  0
   -4.6031   47.6835   19.5452 H   0  0  0  0  0  0
   -2.9982   47.3863   18.8340 H   0  0  0  0  0  0
   -2.9201   47.3625   21.1656 H   0  0  0  0  0  0
   -1.8375   52.7008   18.5363 H   0  0  0  0  0  0
   -0.5503   52.1278   19.5978 H   0  0  0  0  0  0
   -1.4791   50.9743   18.6212 H   0  0  0  0  0  0
    0.1904   53.2792   23.2805 H   0  0  0  0  0  0
    0.5513   51.5609   23.2203 H   0  0  0  0  0  0
    0.3727   52.4780   21.7154 H   0  0  0  0  0  0
   -0.6367   49.1804   24.9057 H   0  0  0  0  0  0
   -0.9248   50.0993   27.2818 H   0  0  0  0  0  0
    1.1037   50.1295   26.1240 H   0  0  0  0  0  0
    0.9280   51.8504   25.6660 H   0  0  0  0  0  0
    1.5932   50.8005   28.4269 H   0  0  0  0  0  0
    2.6612   51.6958   27.3758 H   0  0  0  0  0  0
   -0.2688   51.7677   29.4538 H   0  0  0  0  0  0
   -0.6441   53.4466   29.3602 H   0  0  0  0  0  0
   -1.3137   53.1492   26.9844 H   0  0  0  0  0  0
   -2.2415   52.0278   28.0300 H   0  0  0  0  0  0
    3.7595   54.2553   29.8075 H   0  0  0  0  0  0
    6.1307   54.4642   29.2802 H   0  0  0  0  0  0
    6.9140   54.3918   26.9568 H   0  0  0  0  0  0
    1.5745   53.9815   25.4432 H   0  0  0  0  0  0
    2.4268   53.9798   23.1363 H   0  0  0  0  0  0
    4.8340   54.0936   22.6888 H   0  0  0  0  0  0
    6.4476   54.2533   24.5498 H   0  0  0  0  0  0
   -2.4908   46.1747   23.2971 O   0  5  0  0  0  0
  1  2  1  0  0  0
  1 36  1  0  0  0
  1 37  1  0  0  0
  1 38  1  0  0  0
  2  3  1  0  0  0
  3  8  2  0  0  0
  3  4  1  0  0  0
  4  5  2  0  0  0
  4 39  1  0  0  0
  5  6  1  0  0  0
  5 34  1  0  0  0
  6  7  2  0  0  0
  6 13  1  0  0  0
  7  8  1  0  0  0
  7 11  1  0  0  0
  8  9  1  0  0  0
  9 10  1  0  0  0
 10 40  1  0  0  0
 10 41  1  0  0  0
 10 42  1  0  0  0
 11 12  1  0  0  0
 12 43  1  0  0  0
 12 44  1  0  0  0
 12 45  1  0  0  0
 13 14  1  0  0  0
 13 46  1  0  0  0
 14 15  2  0  0  0
 14 16  1  0  0  0
 16 21  1  0  0  0
 16 17  1  0  0  0
 16 47  1  0  0  0
 17 18  1  0  0  0
 17 48  1  0  0  0
 17 49  1  0  0  0
 18 19  1  0  0  0
 18 50  1  0  0  0
 18 51  1  0  0  0
 19 20  1  0  0  0
 19 22  1  0  0  0
 20 21  1  0  0  0
 20 52  1  0  0  0
 20 53  1  0  0  0
 21 54  1  0  0  0
 21 55  1  0  0  0
 22 23  2  0  0  0
 22 24  1  0  0  0
 24 29  2  0  0  0
 24 25  1  0  0  0
 25 26  2  0  0  0
 25 56  1  0  0  0
 26 27  1  0  0  0
 26 57  1  0  0  0
 27 28  2  0  0  0
 27 58  1  0  0  0
 28 33  1  0  0  0
 28 29  1  0  0  0
 29 30  1  0  0  0
 30 31  2  0  0  0
 30 59  1  0  0  0
 31 32  1  0  0  0
 31 60  1  0  0  0
 32 33  2  0  0  0
 32 61  1  0  0  0
 33 62  1  0  0  0
 34 35  2  0  0  0
 34 63  1  0  0  0
M  CHG  1  63  -1
M  END
> <i_i_glide_confnum>
171

> <i_i_glide_lignum>
3311

> <i_i_glide_posenum>
161

> <i_i_glide_rotatable_bonds>
9

> <i_m_Source_File_Index>
3732

> <b_m_subgroup_collapsed>
0

> <r_i_docking_score>
-5.90273

> <r_i_glide_ecoul>
-5.42772

> <r_i_glide_eff_state_penalty>
0

> <r_i_glide_einternal>
10.8646

> <r_i_glide_emodel>
-57.5368

> <r_i_glide_energy>
-44.3354

> <r_i_glide_erotb>
0.421345

> <r_i_glide_esite>
-0.0709887

> <r_i_glide_evdw>
-38.9077

> <r_i_glide_gscore>
-5.90273

> <r_i_glide_hbond>
-0.257537

> <r_i_glide_ligand_efficiency>
-0.163965

> <r_i_glide_ligand_efficiency_ln>
-1.28782

> <r_i_glide_ligand_efficiency_sa>
-0.5414

> <r_i_glide_lipo>
-2.6272

> <r_i_glide_metal>
0

> <r_i_glide_rewards>
-0.608805

> <s_i_glide_gridfile>
wee1_glide-grid

> <s_m_Source_File>
wee1_decoys_glide_SP.sdf

> <s_m_Source_Path>
/Users/zhangxujun/Desktop

> <s_m_entry_id>
4007

> <s_m_entry_name>
wee1_decoys_glide_SP.3732

> <s_m_subgroup_title>
wee1_decoys_glide_SP

> <s_m_subgroupid>
wee1_decoys_glide_SP


$$$$
