ZINC13302273_768
                    3D
 Schrodinger Suite 2024-2.
 42 44  0  0  1  0            999 V2000
    0.1478   47.2220   19.6817 C   0  0  0  0  0  0
   -0.5214   46.0022   19.6484 C   0  0  0  0  0  0
   -0.2687   45.1030   18.6162 C   0  0  0  0  0  0
    0.6298   45.4273   17.6033 C   0  0  0  0  0  0
    1.2971   46.6495   17.6375 C   0  0  0  0  0  0
    1.0772   47.5519   18.6861 C   0  0  0  0  0  0
    1.8308   48.8092   18.7147 C   0  0  0  0  0  0
    1.9192   49.5663   19.7319 N   0  0  0  0  0  0
    2.7024   50.6683   19.5435 N   0  0  0  0  0  0
    2.6479   51.7218   20.3712 C   0  0  0  0  0  0
    3.1161   52.8968   19.9664 N   0  3  0  0  0  0
    1.9697   51.5687   21.9921 S   0  0  0  0  0  0
    1.9258   53.2445   22.7339 C   0  0  2  0  0  0
    1.3622   53.9084   22.0808 H   0  0  0  0  0  0
    3.2674   53.8145   23.0864 C   0  0  0  0  0  0
    3.3160   53.7973   24.5997 C   0  0  0  0  0  0
    4.3247   54.0977   25.2381 O   0  0  0  0  0  0
    2.1043   53.3852   25.0790 N   0  0  0  0  0  0
    1.2086   53.1558   24.0709 C   0  0  0  0  0  0
    0.0090   52.8949   24.1736 O   0  0  0  0  0  0
    1.8096   53.2027   26.4665 C   0  0  0  0  0  0
    1.0323   52.1096   26.8940 C   0  0  0  0  0  0
    0.7564   51.9151   28.2447 C   0  0  0  0  0  0
    1.2542   52.8104   29.1870 C   0  0  0  0  0  0
    2.0193   53.9021   28.7858 C   0  0  0  0  0  0
    2.2989   54.0966   27.4352 C   0  0  0  0  0  0
    0.8927   52.5366   31.0365 Br  0  0  0  0  0  0
   -1.1496   43.4145   18.5984 Br  0  0  0  0  0  0
   -0.0495   47.9038   20.4969 H   0  0  0  0  0  0
   -1.2229   45.7516   20.4296 H   0  0  0  0  0  0
    0.8189   44.7298   16.8009 H   0  0  0  0  0  0
    2.0052   46.8774   16.8506 H   0  0  0  0  0  0
    2.3046   49.0526   17.7657 H   0  0  0  0  0  0
    3.2423   50.7189   18.6850 H   0  0  0  0  0  0
    2.8840   53.7400   20.4782 H   0  0  0  0  0  0
    4.1017   53.2473   22.6728 H   0  0  0  0  0  0
    3.3656   54.8465   22.7441 H   0  0  0  0  0  0
    0.6459   51.3916   26.1844 H   0  0  0  0  0  0
    0.1607   51.0680   28.5572 H   0  0  0  0  0  0
    2.3994   54.5974   29.5194 H   0  0  0  0  0  0
    2.8962   54.9524   27.1549 H   0  0  0  0  0  0
    3.5591   52.9799   19.0600 H   0  0  0  0  0  0
  1  6  2  0  0  0
  1  2  1  0  0  0
  1 29  1  0  0  0
  2  3  2  0  0  0
  2 30  1  0  0  0
  3  4  1  0  0  0
  3 28  1  0  0  0
  4  5  2  0  0  0
  4 31  1  0  0  0
  5  6  1  0  0  0
  5 32  1  0  0  0
  6  7  1  0  0  0
  7  8  2  0  0  0
  7 33  1  0  0  0
  8  9  1  0  0  0
  9 10  1  0  0  0
  9 34  1  0  0  0
 10 11  2  0  0  0
 10 12  1  0  0  0
 11 35  1  0  0  0
 11 42  1  0  0  0
 12 13  1  0  0  0
 13 14  1  0  0  0
 13 19  1  0  0  0
 13 15  1  0  0  0
 15 16  1  0  0  0
 15 36  1  0  0  0
 15 37  1  0  0  0
 16 17  2  0  0  0
 16 18  1  0  0  0
 18 19  1  0  0  0
 18 21  1  0  0  0
 19 20  2  0  0  0
 21 26  2  0  0  0
 21 22  1  0  0  0
 22 23  2  0  0  0
 22 38  1  0  0  0
 23 24  1  0  0  0
 23 39  1  0  0  0
 24 25  2  0  0  0
 24 27  1  0  0  0
 25 26  1  0  0  0
 25 40  1  0  0  0
 26 41  1  0  0  0
M  CHG  1  11   1
M  END
> <i_i_glide_confnum>
72

> <i_i_glide_lignum>
769

> <i_i_glide_posenum>
300

> <i_i_glide_rotatable_bonds>
6

> <i_m_Source_File_Index>
3162

> <b_m_subgroup_collapsed>
0

> <r_i_docking_score>
-4.40019

> <r_i_glide_ecoul>
-4.35582

> <r_i_glide_eff_state_penalty>
0

> <r_i_glide_einternal>
3.16856

> <r_i_glide_emodel>
-49.6492

> <r_i_glide_energy>
-38.3287

> <r_i_glide_erotb>
0.392053

> <r_i_glide_esite>
-0.173863

> <r_i_glide_evdw>
-33.9729

> <r_i_glide_gscore>
-4.40019

> <r_i_glide_hbond>
-0.0722352

> <r_i_glide_ligand_efficiency>
-0.16297

> <r_i_glide_ligand_efficiency_ln>
-1.02429

> <r_i_glide_ligand_efficiency_sa>
-0.488909

> <r_i_glide_lipo>
-1.29374

> <r_i_glide_metal>
0

> <r_i_glide_rewards>
-0.900385

> <s_i_glide_gridfile>
wee1_glide-grid

> <s_m_Source_File>
wee1_decoys_glide_SP.sdf

> <s_m_Source_Path>
/Users/zhangxujun/Desktop

> <s_m_entry_id>
3437

> <s_m_entry_name>
wee1_decoys_glide_SP.3162

> <s_m_subgroup_title>
wee1_decoys_glide_SP

> <s_m_subgroupid>
wee1_decoys_glide_SP


$$$$
