@<TRIPOS>MOLECULE
ZINC40356169_2561
51   53    1
SMALL
USER_CHARGES


@<TRIPOS>ATOM
      1 C1          6.7812   53.5873   28.1677 C.3       1 UNK         0.0000 
      2 C2          5.5041   54.2626   27.6403 C.3       1 UNK         0.0000 
      3 H3          5.6512   55.3412   27.7008 H         1 UNK         0.0000 
      4 C4          4.2688   53.9716   28.5299 C.2       1 UNK         0.0000 
      5 O5          4.2955   54.4011   29.6823 O.2       1 UNK         0.0000 
      6 N6          3.2275   53.2977   27.9806 N.am      1 UNK         0.0000 
      7 C7          1.9961   52.9066   28.5568 C.ar      1 UNK         0.0000 
      8 C8          1.7990   52.8638   29.9508 C.ar      1 UNK         0.0000 
      9 C9          0.5719   52.4948   30.4943 C.ar      1 UNK         0.0000 
     10 C10        -0.4722   52.1252   29.6570 C.ar      1 UNK         0.0000 
     11 C11        -0.3042   52.1731   28.2764 C.ar      1 UNK         0.0000 
     12 C12         0.9262   52.5322   27.7073 C.ar      1 UNK         0.0000 
     13 C13         1.0274   52.5447   26.1694 C.3       1 UNK         0.0000 
     14 C14         0.7031   51.2699   25.3833 C.ar      1 UNK         0.0000 
     15 C15         0.8053   51.3160   23.9893 C.ar      1 UNK         0.0000 
     16 C16         0.5129   50.1913   23.2216 C.ar      1 UNK         0.0000 
     17 C17         0.1064   49.0159   23.8481 C.ar      1 UNK         0.0000 
     18 C18        -0.0010   48.9543   25.2325 C.ar      1 UNK         0.0000 
     19 C19         0.3045   50.0742   25.9996 C.ar      1 UNK         0.0000 
     20 N20         5.3460   53.9100   26.2255 N.am      1 UNK         0.0000 
     21 C21         5.9023   54.5722   25.1984 C.2       1 UNK         0.0000 
     22 O22         6.7026   55.4971   25.3388 O.2       1 UNK         0.0000 
     23 N23         5.4289   54.0983   24.0313 N.am      1 UNK         0.0000 
     24 C24         5.7290   54.4863   22.7105 C.ar      1 UNK         0.0000 
     25 C25         6.8193   55.2945   22.3521 C.ar      1 UNK         0.0000 
     26 C26         7.0501   55.6200   21.0140 C.ar      1 UNK         0.0000 
     27 C27         6.1864   55.1523   20.0229 C.ar      1 UNK         0.0000 
     28 C28         5.0979   54.3513   20.3702 C.ar      1 UNK         0.0000 
     29 C29         4.8723   54.0154   21.7039 C.ar      1 UNK         0.0000 
     30 F30         3.8131   53.2334   22.0190 F         1 UNK         0.0000 
     31 H31         6.9718   53.8388   29.2097 H         1 UNK         0.0000 
     32 H32         6.7262   52.5024   28.0811 H         1 UNK         0.0000 
     33 H33         7.6517   53.9189   27.6037 H         1 UNK         0.0000 
     34 H34         3.3146   53.0654   27.0051 H         1 UNK         0.0000 
     35 H35         2.5887   53.1028   30.6423 H         1 UNK         0.0000 
     36 H36         0.4375   52.4586   31.5647 H         1 UNK         0.0000 
     37 H37        -1.4056   51.7889   30.0796 H         1 UNK         0.0000 
     38 H38        -1.1350   51.8958   27.6437 H         1 UNK         0.0000 
     39 H39         0.3281   53.2966   25.8134 H         1 UNK         0.0000 
     40 H40         2.0047   52.8899   25.8386 H         1 UNK         0.0000 
     41 H41         1.1157   52.2249   23.4947 H         1 UNK         0.0000 
     42 H42         0.5966   50.2319   22.1454 H         1 UNK         0.0000 
     43 H43        -0.1238   48.1411   23.2582 H         1 UNK         0.0000 
     44 H44        -0.3174   48.0451   25.7220 H         1 UNK         0.0000 
     45 H45         0.2261   49.9836   27.0715 H         1 UNK         0.0000 
     46 H46         4.9575   52.9966   26.0476 H         1 UNK         0.0000 
     47 H47         4.7064   53.3996   24.0931 H         1 UNK         0.0000 
     48 H48         7.5053   55.6711   23.0925 H         1 UNK         0.0000 
     49 H49         7.9070   56.2200   20.7428 H         1 UNK         0.0000 
     50 H50         6.3650   55.4006   18.9883 H         1 UNK         0.0000 
     51 H51         4.4315   53.9850   19.6043 H         1 UNK         0.0000 
@<TRIPOS>BOND
     1    1    2 1    
     2    1   31 1    
     3    1   32 1    
     4    1   33 1    
     5    2    3 1    
     6    2    4 1    
     7    2   20 1    
     8    4    5 2    
     9    4    6 am   BACKBONE|DICT|INTERRES
    10    6    7 1    
    11    6   34 1    
    12    7   12 ar   
    13    7    8 ar   
    14    8    9 ar   
    15    8   35 1    
    16    9   10 ar   
    17    9   36 1    
    18   10   11 ar   
    19   10   37 1    
    20   11   12 ar   
    21   11   38 1    
    22   12   13 1    
    23   13   14 1    
    24   13   39 1    
    25   13   40 1    
    26   14   19 ar   
    27   14   15 ar   
    28   15   16 ar   
    29   15   41 1    
    30   16   17 ar   
    31   16   42 1    
    32   17   18 ar   
    33   17   43 1    
    34   18   19 ar   
    35   18   44 1    
    36   19   45 1    
    37   20   21 am   BACKBONE|DICT|INTERRES
    38   20   46 1    
    39   21   22 2    
    40   21   23 am   BACKBONE|DICT|INTERRES
    41   23   24 1    
    42   23   47 1    
    43   24   29 ar   
    44   24   25 ar   
    45   25   26 ar   
    46   25   48 1    
    47   26   27 ar   
    48   26   49 1    
    49   27   28 ar   
    50   27   50 1    
    51   28   29 ar   
    52   28   51 1    
    53   29   30 1    
@<TRIPOS>SUBSTRUCTURE
     1 UNK         1 GROUP             0       ****    0 ROOT    
