@<TRIPOS>MOLECULE
ZINC35485526_4292
67   70    1
SMALL
USER_CHARGES


@<TRIPOS>ATOM
      1 C1          4.1330   54.4574   29.0367 C.3       1 UNK         0.0000 
      2 C2          2.6413   54.5880   29.4070 C.3       1 UNK         0.0000 
      3 C3          2.1087   56.0101   29.1476 C.3       1 UNK         0.0000 
      4 C4          1.7744   53.5258   28.7278 C.ar      1 UNK         0.0000 
      5 C5          1.7335   53.4348   27.3334 C.ar      1 UNK         0.0000 
      6 C6          0.9096   52.4978   26.7198 C.ar      1 UNK         0.0000 
      7 C7          0.1159   51.6499   27.4995 C.ar      1 UNK         0.0000 
      8 C8          0.1772   51.7137   28.8904 C.ar      1 UNK         0.0000 
      9 C9          1.0012   52.6557   29.5040 C.ar      1 UNK         0.0000 
     10 N10        -0.7362   50.6952   26.9304 N.am      1 UNK         0.0000 
     11 C11        -1.5024   50.8520   25.8317 C.2       1 UNK         0.0000 
     12 O12        -1.6480   51.9390   25.2658 O.2       1 UNK         0.0000 
     13 C13        -2.3215   49.6074   25.3879 C.3       1 UNK         0.0000 
     14 C14        -1.3776   48.3943   25.1588 C.3       1 UNK         0.0000 
     15 C15        -0.4504   48.5761   23.9364 C.3       1 UNK         0.0000 
     16 C16        -1.2281   48.9199   22.6313 C.3       1 UNK         0.0000 
     17 C17        -2.2801   50.0465   22.8358 C.3       1 UNK         0.0000 
     18 C18        -3.1479   49.8485   24.0967 C.3       1 UNK         0.0000 
     19 C19        -0.3032   49.1790   21.4149 C.3       1 UNK         0.0000 
     20 N20         0.6402   50.2793   21.6239 N.am      1 UNK         0.0000 
     21 C21         0.4649   51.5695   21.2711 C.2       1 UNK         0.0000 
     22 O22        -0.5492   51.9700   20.6968 O.2       1 UNK         0.0000 
     23 C23         1.5862   52.5787   21.6283 C.3       1 UNK         0.0000 
     24 H24         1.1051   53.5553   21.6848 H         1 UNK         0.0000 
     25 C25         2.7006   52.5449   20.5520 C.3       1 UNK         0.0000 
     26 C26         3.9040   53.3988   20.9553 C.ar      1 UNK         0.0000 
     27 C27         4.7971   53.8774   19.9914 C.ar      1 UNK         0.0000 
     28 C28         5.9043   54.6338   20.3606 C.ar      1 UNK         0.0000 
     29 C29         6.1478   54.8965   21.7035 C.ar      1 UNK         0.0000 
     30 C30         5.2657   54.4221   22.6717 C.ar      1 UNK         0.0000 
     31 C31         4.1224   53.6997   22.3144 C.ar      1 UNK         0.0000 
     32 C32         3.0729   53.3141   23.3647 C.3       1 UNK         0.0000 
     33 N33         2.1689   52.2465   22.9354 N.3       1 UNK         0.0000 
     34 H34         4.4984   53.4461   29.2165 H         1 UNK         0.0000 
     35 H35         4.7472   55.1348   29.6313 H         1 UNK         0.0000 
     36 H36         4.3112   54.6928   27.9873 H         1 UNK         0.0000 
     37 H37         2.5727   54.4161   30.4792 H         1 UNK         0.0000 
     38 H38         1.0831   56.1163   29.4987 H         1 UNK         0.0000 
     39 H39         2.7040   56.7620   29.6678 H         1 UNK         0.0000 
     40 H40         2.1200   56.2500   28.0828 H         1 UNK         0.0000 
     41 H41         2.3246   54.0999   26.7204 H         1 UNK         0.0000 
     42 H42         0.8801   52.4419   25.6406 H         1 UNK         0.0000 
     43 H43        -0.4256   51.0551   29.5016 H         1 UNK         0.0000 
     44 H44         1.0206   52.7122   30.5846 H         1 UNK         0.0000 
     45 H45        -0.8955   49.8476   27.4752 H         1 UNK         0.0000 
     46 H46        -2.9410   49.3715   26.2526 H         1 UNK         0.0000 
     47 H47        -0.8398   48.1255   26.0720 H         1 UNK         0.0000 
     48 H48        -1.9994   47.5070   25.0239 H         1 UNK         0.0000 
     49 H49         0.1726   47.6967   23.7943 H         1 UNK         0.0000 
     50 H50         0.2572   49.3791   24.1547 H         1 UNK         0.0000 
     51 H51        -1.8212   48.0295   22.4168 H         1 UNK         0.0000 
     52 H52        -2.8987   50.1515   21.9440 H         1 UNK         0.0000 
     53 H53        -1.7649   51.0039   22.9237 H         1 UNK         0.0000 
     54 H54        -3.8017   48.9869   23.9543 H         1 UNK         0.0000 
     55 H55        -3.8768   50.6473   24.2448 H         1 UNK         0.0000 
     56 H56         0.3016   48.2956   21.2119 H         1 UNK         0.0000 
     57 H57        -0.8999   49.3809   20.5213 H         1 UNK         0.0000 
     58 H58         1.5074   50.0579   22.0908 H         1 UNK         0.0000 
     59 H59         3.0668   51.5255   20.4118 H         1 UNK         0.0000 
     60 H60         2.3135   52.8789   19.5885 H         1 UNK         0.0000 
     61 H61         4.6332   53.6473   18.9478 H         1 UNK         0.0000 
     62 H62         6.5848   54.9980   19.5999 H         1 UNK         0.0000 
     63 H63         7.0155   55.4707   21.9963 H         1 UNK         0.0000 
     64 H64         5.4486   54.6560   23.7095 H         1 UNK         0.0000 
     65 H65         2.4976   54.2059   23.6232 H         1 UNK         0.0000 
     66 H66         3.5571   52.9863   24.2843 H         1 UNK         0.0000 
     67 H67         1.4325   52.1551   23.6217 H         1 UNK         0.0000 
@<TRIPOS>BOND
     1    1    2 1    
     2    1   34 1    
     3    1   35 1    
     4    1   36 1    
     5    2    3 1    
     6    2    4 1    
     7    2   37 1    
     8    3   38 1    
     9    3   39 1    
    10    3   40 1    
    11    4    9 ar   
    12    4    5 ar   
    13    5    6 ar   
    14    5   41 1    
    15    6    7 ar   
    16    6   42 1    
    17    7    8 ar   
    18    7   10 1    
    19    8    9 ar   
    20    8   43 1    
    21    9   44 1    
    22   10   11 am   BACKBONE|DICT|INTERRES
    23   10   45 1    
    24   11   12 2    
    25   11   13 1    
    26   13   18 1    
    27   13   14 1    
    28   13   46 1    
    29   14   15 1    
    30   14   47 1    
    31   14   48 1    
    32   15   16 1    
    33   15   49 1    
    34   15   50 1    
    35   16   17 1    
    36   16   19 1    
    37   16   51 1    
    38   17   18 1    
    39   17   52 1    
    40   17   53 1    
    41   18   54 1    
    42   18   55 1    
    43   19   20 1    
    44   19   56 1    
    45   19   57 1    
    46   20   21 am   BACKBONE|DICT|INTERRES
    47   20   58 1    
    48   21   22 2    
    49   21   23 1    
    50   23   24 1    
    51   23   33 1    
    52   23   25 1    
    53   25   26 1    
    54   25   59 1    
    55   25   60 1    
    56   26   31 ar   
    57   26   27 ar   
    58   27   28 ar   
    59   27   61 1    
    60   28   29 ar   
    61   28   62 1    
    62   29   30 ar   
    63   29   63 1    
    64   30   31 ar   
    65   30   64 1    
    66   31   32 1    
    67   32   33 1    
    68   32   65 1    
    69   32   66 1    
    70   33   67 1    
@<TRIPOS>SUBSTRUCTURE
     1 UNK         1 GROUP             0       ****    0 ROOT    
