@<TRIPOS>MOLECULE
ZINC39686515_647
66   69    1
SMALL
USER_CHARGES


@<TRIPOS>ATOM
      1 C1          3.0090   50.4542   20.2135 C.3       1 UNK         0.0000 
      2 C2          2.3536   51.8448   20.0646 C.3       1 UNK         0.0000 
      3 H3          1.5538   51.7234   19.3293 H         1 UNK         0.0000 
      4 C4          3.3323   52.8949   19.4653 C.3       1 UNK         0.0000 
      5 C5          4.3842   53.5732   20.3719 C.ar      1 UNK         0.0000 
      6 C6          4.6352   53.1349   21.6803 C.ar      1 UNK         0.0000 
      7 C7          5.5404   53.8010   22.5010 C.ar      1 UNK         0.0000 
      8 C8          6.2508   54.8926   22.0109 C.ar      1 UNK         0.0000 
      9 C9          6.0408   55.3220   20.7025 C.ar      1 UNK         0.0000 
     10 C10         5.1032   54.6778   19.8745 C.ar      1 UNK         0.0000 
     11 O11         4.8285   55.0883   18.5818 O.3       1 UNK         0.0000 
     12 C12         5.4758   56.2413   18.0535 C.3       1 UNK         0.0000 
     13 N13         1.7293   52.3214   21.3017 N.am      1 UNK         0.0000 
     14 C14         0.7232   51.7470   21.9841 C.2       1 UNK         0.0000 
     15 O15         0.0863   50.7962   21.5334 O.2       1 UNK         0.0000 
     16 C16         0.4044   52.3069   23.4008 C.3       1 UNK         0.0000 
     17 H17        -0.2661   53.1540   23.2525 H         1 UNK         0.0000 
     18 C18         1.6990   52.8190   24.0779 C.3       1 UNK         0.0000 
     19 N19         1.3755   52.7905   25.5056 N.am      1 UNK         0.0000 
     20 C20         0.0933   52.1182   25.7385 C.3       1 UNK         0.0000 
     21 C21        -0.2028   51.3210   24.4418 C.3       1 UNK         0.0000 
     22 C22         0.4918   49.9230   24.4460 C.3       1 UNK         0.0000 
     23 C23         0.0994   49.0920   25.6774 C.3       1 UNK         0.0000 
     24 N24        -1.4377   48.9140   25.6818 N.4       1 UNK         0.0000 
     25 C25        -2.2579   50.2144   25.4725 C.3       1 UNK         0.0000 
     26 C26        -1.7030   50.9918   24.2523 C.3       1 UNK         0.0000 
     27 C27         2.1235   53.4812   26.4086 C.2       1 UNK         0.0000 
     28 O28         3.1397   54.0959   26.0740 O.2       1 UNK         0.0000 
     29 C29         1.6716   53.5715   27.8503 C.ar      1 UNK         0.0000 
     30 C30         1.3164   52.4326   28.5888 C.ar      1 UNK         0.0000 
     31 C31         0.8849   52.5615   29.9063 C.ar      1 UNK         0.0000 
     32 C32         0.8476   53.8164   30.5039 C.ar      1 UNK         0.0000 
     33 C33         1.2379   54.9508   29.8000 C.ar      1 UNK         0.0000 
     34 C34         1.6559   54.8252   28.4798 C.ar      1 UNK         0.0000 
     35 Br35        0.3042   53.9706   32.3186 Br        1 UNK         0.0000 
     36 H36         3.5008   50.1669   19.2858 H         1 UNK         0.0000 
     37 H37         3.7717   50.4324   20.9879 H         1 UNK         0.0000 
     38 H38         2.2744   49.6762   20.4183 H         1 UNK         0.0000 
     39 H39         2.7101   53.6966   19.0646 H         1 UNK         0.0000 
     40 H40         3.8477   52.4707   18.6012 H         1 UNK         0.0000 
     41 H41         4.1284   52.2776   22.0852 H         1 UNK         0.0000 
     42 H42         5.7086   53.4579   23.5114 H         1 UNK         0.0000 
     43 H43         6.9709   55.3963   22.6414 H         1 UNK         0.0000 
     44 H44         6.6096   56.1666   20.3481 H         1 UNK         0.0000 
     45 H45         5.1153   56.4244   17.0404 H         1 UNK         0.0000 
     46 H46         5.2555   57.1324   18.6448 H         1 UNK         0.0000 
     47 H47         6.5570   56.1034   17.9984 H         1 UNK         0.0000 
     48 H48         2.1006   53.1958   21.6455 H         1 UNK         0.0000 
     49 H49         2.5060   52.1016   23.9222 H         1 UNK         0.0000 
     50 H50         1.9513   53.8168   23.7119 H         1 UNK         0.0000 
     51 H51        -0.6638   52.8962   25.8406 H         1 UNK         0.0000 
     52 H52        -0.0041   51.5359   26.6465 H         1 UNK         0.0000 
     53 H53         0.3114   49.3560   23.5325 H         1 UNK         0.0000 
     54 H54         1.5706   50.0450   24.4817 H         1 UNK         0.0000 
     55 H55         0.5327   48.0967   25.6395 H         1 UNK         0.0000 
     56 H56         0.3734   49.5277   26.6381 H         1 UNK         0.0000 
     57 H57        -1.6949   48.2352   24.9817 H         1 UNK         0.0000 
     58 H58        -3.2945   49.9013   25.3374 H         1 UNK         0.0000 
     59 H59        -2.1848   50.7695   26.4088 H         1 UNK         0.0000 
     60 H60        -2.2657   51.9237   24.1835 H         1 UNK         0.0000 
     61 H61        -1.8904   50.4711   23.3113 H         1 UNK         0.0000 
     62 H62         1.3827   51.4430   28.1597 H         1 UNK         0.0000 
     63 H63         0.5877   51.6970   30.4767 H         1 UNK         0.0000 
     64 H64         1.2199   55.9214   30.2756 H         1 UNK         0.0000 
     65 H65         1.9588   55.7130   27.9431 H         1 UNK         0.0000 
     66 H66        -1.6838   48.5123   26.5938 H         1 UNK         0.0000 
@<TRIPOS>BOND
     1    1    2 1    
     2    1   36 1    
     3    1   37 1    
     4    1   38 1    
     5    2    3 1    
     6    2    4 1    
     7    2   13 1    
     8    4    5 1    
     9    4   39 1    
    10    4   40 1    
    11    5   10 ar   
    12    5    6 ar   
    13    6    7 ar   
    14    6   41 1    
    15    7    8 ar   
    16    7   42 1    
    17    8    9 ar   
    18    8   43 1    
    19    9   10 ar   
    20    9   44 1    
    21   10   11 1    
    22   11   12 1    
    23   12   45 1    
    24   12   46 1    
    25   12   47 1    
    26   13   14 am   BACKBONE|DICT|INTERRES
    27   13   48 1    
    28   14   15 2    
    29   14   16 1    
    30   16   17 1    
    31   16   21 1    
    32   16   18 1    
    33   18   19 1    
    34   18   49 1    
    35   18   50 1    
    36   19   20 1    
    37   19   27 am   BACKBONE|DICT|INTERRES
    38   20   21 1    
    39   20   51 1    
    40   20   52 1    
    41   21   26 1    
    42   21   22 1    
    43   22   23 1    
    44   22   53 1    
    45   22   54 1    
    46   23   24 1    
    47   23   55 1    
    48   23   56 1    
    49   24   25 1    
    50   24   57 1    
    51   24   66 1    
    52   25   26 1    
    53   25   58 1    
    54   25   59 1    
    55   26   60 1    
    56   26   61 1    
    57   27   28 2    
    58   27   29 1    
    59   29   34 ar   
    60   29   30 ar   
    61   30   31 ar   
    62   30   62 1    
    63   31   32 ar   
    64   31   63 1    
    65   32   33 ar   
    66   32   35 1    
    67   33   34 ar   
    68   33   64 1    
    69   34   65 1    
@<TRIPOS>SUBSTRUCTURE
     1 UNK         1 GROUP             0       ****    0 ROOT    
