@<TRIPOS>MOLECULE
ZINC39773080_3139
60   62    1
SMALL
USER_CHARGES


@<TRIPOS>ATOM
      1 C1         -3.4356   48.9597   20.7026 C.3       1 UNK         0.0000 
      2 C2         -3.1676   48.8987   22.2250 C.3       1 UNK         0.0000 
      3 H3         -4.1187   48.6346   22.6889 H         1 UNK         0.0000 
      4 C4         -2.1969   47.7515   22.6206 C.2       1 UNK         0.0000 
      5 O5         -1.6899   47.0030   21.7841 O.2       1 UNK         0.0000 
      6 N6         -1.8834   47.6156   23.9595 N.am      1 UNK         0.0000 
      7 C7         -2.6679   47.0062   24.7569 C.2       1 UNK         0.0000 
      8 N8         -2.3979   46.7552   26.0817 N.pl3     1 UNK         0.0000 
      9 C9         -3.5403   46.5046   26.9304 C.3       1 UNK         0.0000 
     10 C10        -4.4956   45.6488   26.1269 C.3       1 UNK         0.0000 
     11 S11        -4.2564   46.1724   24.4105 S.3       1 UNK         0.0000 
     12 S12        -2.7698   50.5389   22.9479 S.3       1 UNK         0.0000 
     13 C13        -1.3202   51.0101   22.0459 C.ar      1 UNK         0.0000 
     14 N14        -1.3706   51.6439   20.9001 N.2       1 UNK         0.0000 
     15 N15        -0.0685   51.7867   20.4414 N.2       1 UNK         0.0000 
     16 C16         0.7286   51.2526   21.3371 C.ar      1 UNK         0.0000 
     17 N17        -0.0034   50.8021   22.4267 N.pl3     1 UNK         0.0000 
     18 C18         0.4899   50.1672   23.6609 C.3       1 UNK         0.0000 
     19 C19         0.0022   50.8744   24.9585 C.3       1 UNK         0.0000 
     20 C20         0.0973   49.9494   26.1846 C.3       1 UNK         0.0000 
     21 C21         0.7034   52.2218   25.1995 C.3       1 UNK         0.0000 
     22 C22         2.2499   51.1348   21.1823 C.3       1 UNK         0.0000 
     23 H23         2.5086   50.1567   21.5916 H         1 UNK         0.0000 
     24 C24         2.7483   51.0393   19.7078 C.3       1 UNK         0.0000 
     25 O25         2.3043   49.8568   19.0612 O.3       1 UNK         0.0000 
     26 N26         2.9544   52.0980   22.0537 N.am      1 UNK         0.0000 
     27 C27         3.7030   53.1776   21.7346 C.2       1 UNK         0.0000 
     28 O28         3.9044   53.5770   20.5889 O.2       1 UNK         0.0000 
     29 C29         4.4116   53.8214   22.8995 C.ar      1 UNK         0.0000 
     30 C30         3.7593   54.0181   24.1241 C.ar      1 UNK         0.0000 
     31 C31         4.4617   54.4954   25.2267 C.ar      1 UNK         0.0000 
     32 C32         5.8147   54.7980   25.1040 C.ar      1 UNK         0.0000 
     33 C33         6.4588   54.6720   23.8757 C.ar      1 UNK         0.0000 
     34 C34         5.7557   54.1959   22.7725 C.ar      1 UNK         0.0000 
     35 Cl35        6.7043   55.3139   26.4865 Cl        1 UNK         0.0000 
     36 H36        -3.7955   48.0040   20.3175 H         1 UNK         0.0000 
     37 H37        -4.1982   49.7063   20.4725 H         1 UNK         0.0000 
     38 H38        -2.5354   49.2190   20.1416 H         1 UNK         0.0000 
     39 H39        -4.0183   47.4524   27.1866 H         1 UNK         0.0000 
     40 H40        -3.2557   46.0294   27.8702 H         1 UNK         0.0000 
     41 H41        -4.2683   44.5878   26.2211 H         1 UNK         0.0000 
     42 H42        -5.5324   45.8048   26.4261 H         1 UNK         0.0000 
     43 H43         0.1821   49.1245   23.6356 H         1 UNK         0.0000 
     44 H44         1.5788   50.1400   23.6513 H         1 UNK         0.0000 
     45 H45        -1.0560   51.1063   24.8771 H         1 UNK         0.0000 
     46 H46         1.1048   49.5852   26.3560 H         1 UNK         0.0000 
     47 H47        -0.2322   50.4526   27.0943 H         1 UNK         0.0000 
     48 H48        -0.5353   49.0697   26.0646 H         1 UNK         0.0000 
     49 H49         1.7730   52.0962   25.3625 H         1 UNK         0.0000 
     50 H50         0.5646   52.8922   24.3508 H         1 UNK         0.0000 
     51 H51         0.2995   52.7248   26.0779 H         1 UNK         0.0000 
     52 H52         2.4426   51.9110   19.1287 H         1 UNK         0.0000 
     53 H53         3.8387   51.0324   19.6844 H         1 UNK         0.0000 
     54 H54         2.8693   49.7061   18.2884 H         1 UNK         0.0000 
     55 H55         2.9314   51.8670   23.0348 H         1 UNK         0.0000 
     56 H56         2.7095   53.7924   24.2318 H         1 UNK         0.0000 
     57 H57         3.9628   54.6142   26.1783 H         1 UNK         0.0000 
     58 H58         7.5043   54.9266   23.7799 H         1 UNK         0.0000 
     59 H59         6.2702   54.0953   21.8276 H         1 UNK         0.0000 
     60 H60        -1.7012   47.3151   26.5716 H         1 UNK         0.0000 
@<TRIPOS>BOND
     1    1    2 1    
     2    1   36 1    
     3    1   37 1    
     4    1   38 1    
     5    2    3 1    
     6    2    4 1    
     7    2   12 1    
     8    4    5 2    
     9    4    6 am   BACKBONE|DICT|INTERRES
    10    6    7 2    BACKBONE|DICT|INTERRES
    11    7   11 1    
    12    7    8 1    
    13    8    9 1    
    14    8   60 1    
    15    9   10 1    
    16    9   39 1    
    17    9   40 1    
    18   10   11 1    
    19   10   41 1    
    20   10   42 1    
    21   12   13 1    
    22   13   17 ar   
    23   13   14 ar   
    24   14   15 ar   
    25   15   16 ar   
    26   16   17 ar   
    27   16   22 1    
    28   17   18 1    
    29   18   19 1    
    30   18   43 1    
    31   18   44 1    
    32   19   20 1    
    33   19   21 1    
    34   19   45 1    
    35   20   46 1    
    36   20   47 1    
    37   20   48 1    
    38   21   49 1    
    39   21   50 1    
    40   21   51 1    
    41   22   23 1    
    42   22   24 1    
    43   22   26 1    
    44   24   25 1    
    45   24   52 1    
    46   24   53 1    
    47   25   54 1    
    48   26   27 am   BACKBONE|DICT|INTERRES
    49   26   55 1    
    50   27   28 2    
    51   27   29 1    
    52   29   34 ar   
    53   29   30 ar   
    54   30   31 ar   
    55   30   56 1    
    56   31   32 ar   
    57   31   57 1    
    58   32   33 ar   
    59   32   35 1    
    60   33   34 ar   
    61   33   58 1    
    62   34   59 1    
@<TRIPOS>SUBSTRUCTURE
     1 UNK         1 GROUP             0       ****    0 ROOT    
