@<TRIPOS>MOLECULE
ZINC20600075_1351
66   69    1
SMALL
USER_CHARGES


@<TRIPOS>ATOM
      1 C1          0.7562   51.4202   17.3920 C.3       1 UNK         0.0000 
      2 C2          2.2941   51.4808   17.3590 C.3       1 UNK         0.0000 
      3 C3          2.8038   51.8992   15.9663 C.3       1 UNK         0.0000 
      4 N4          2.7569   52.4394   18.4992 N.4       1 UNK         0.0000 
      5 C5          2.9001   51.6194   19.8051 C.3       1 UNK         0.0000 
      6 C6          3.1207   52.5880   20.9676 C.3       1 UNK         0.0000 
      7 C7          4.3391   53.5113   20.7807 C.3       1 UNK         0.0000 
      8 C8          4.3057   54.1959   19.4018 C.3       1 UNK         0.0000 
      9 C9          4.0731   53.2192   18.2367 C.3       1 UNK         0.0000 
     10 N10         4.4647   54.4916   21.8529 N.3       1 UNK         0.0000 
     11 C11         5.0402   53.9709   23.0896 C.3       1 UNK         0.0000 
     12 H12         5.2211   52.8968   23.0114 H         1 UNK         0.0000 
     13 C13         6.4202   54.6157   23.3452 C.3       1 UNK         0.0000 
     14 C14         6.9230   54.3675   24.7731 C.3       1 UNK         0.0000 
     15 C15         5.9707   55.0297   25.7712 C.3       1 UNK         0.0000 
     16 C16         4.5444   54.5455   25.5655 C.ar      1 UNK         0.0000 
     17 C17         4.0960   54.0968   24.3007 C.ar      1 UNK         0.0000 
     18 C18         2.7683   53.6482   24.2631 C.ar      1 UNK         0.0000 
     19 N19         1.9772   53.5424   25.3546 N.ar      1 UNK         0.0000 
     20 C20         2.5059   53.9728   26.5280 C.ar      1 UNK         0.0000 
     21 N21         3.7510   54.4927   26.6693 N.ar      1 UNK         0.0000 
     22 N22         1.7381   53.8507   27.6821 N.pl3     1 UNK         0.0000 
     23 C23         1.7046   54.9098   28.7046 C.3       1 UNK         0.0000 
     24 C24         1.6350   54.3226   30.1249 C.3       1 UNK         0.0000 
     25 C25         0.5458   53.2442   30.3153 C.3       1 UNK         0.0000 
     26 C26         0.5059   52.2815   29.1144 C.3       1 UNK         0.0000 
     27 C27         0.5173   53.0316   27.7702 C.3       1 UNK         0.0000 
     28 C28         0.6273   52.5140   31.6705 C.3       1 UNK         0.0000 
     29 O29         1.9179   51.9877   31.9238 O.3       1 UNK         0.0000 
     30 H30         0.3787   50.7420   16.6278 H         1 UNK         0.0000 
     31 H31         0.3118   52.3993   17.2089 H         1 UNK         0.0000 
     32 H32         0.3741   51.0582   18.3463 H         1 UNK         0.0000 
     33 H33         2.7033   50.4970   17.5971 H         1 UNK         0.0000 
     34 H34         2.4332   51.2122   15.2041 H         1 UNK         0.0000 
     35 H35         2.4732   52.9029   15.6938 H         1 UNK         0.0000 
     36 H36         3.8904   51.8558   15.9072 H         1 UNK         0.0000 
     37 H37         1.9705   51.0686   19.9611 H         1 UNK         0.0000 
     38 H38         3.7253   50.9145   19.6816 H         1 UNK         0.0000 
     39 H39         2.2207   53.1969   21.0669 H         1 UNK         0.0000 
     40 H40         3.2290   51.9992   21.8762 H         1 UNK         0.0000 
     41 H41         5.2207   52.8653   20.7530 H         1 UNK         0.0000 
     42 H42         5.2359   54.7370   19.2253 H         1 UNK         0.0000 
     43 H43         3.5060   54.9316   19.3709 H         1 UNK         0.0000 
     44 H44         4.8797   52.4968   18.1102 H         1 UNK         0.0000 
     45 H45         3.9370   53.8015   17.3254 H         1 UNK         0.0000 
     46 H46         5.0335   55.2622   21.5431 H         1 UNK         0.0000 
     47 H47         7.1485   54.2506   22.6210 H         1 UNK         0.0000 
     48 H48         6.3654   55.6965   23.2014 H         1 UNK         0.0000 
     49 H49         7.0291   53.2995   24.9726 H         1 UNK         0.0000 
     50 H50         7.9021   54.8139   24.8833 H         1 UNK         0.0000 
     51 H51         6.3032   54.8538   26.7959 H         1 UNK         0.0000 
     52 H52         5.9867   56.1068   25.6230 H         1 UNK         0.0000 
     53 H53         2.3191   53.3009   23.3507 H         1 UNK         0.0000 
     54 H54         2.6009   55.5290   28.6437 H         1 UNK         0.0000 
     55 H55         0.8587   55.5707   28.5119 H         1 UNK         0.0000 
     56 H56         2.6225   53.8973   30.3190 H         1 UNK         0.0000 
     57 H57         1.5135   55.1111   30.8694 H         1 UNK         0.0000 
     58 H58        -0.4051   53.7797   30.2734 H         1 UNK         0.0000 
     59 H59        -0.3629   51.6237   29.1870 H         1 UNK         0.0000 
     60 H60         1.3649   51.6067   29.1458 H         1 UNK         0.0000 
     61 H61        -0.3601   53.6741   27.6838 H         1 UNK         0.0000 
     62 H62         0.4764   52.2915   26.9681 H         1 UNK         0.0000 
     63 H63         0.3628   53.1921   32.4811 H         1 UNK         0.0000 
     64 H64        -0.0944   51.6975   31.6816 H         1 UNK         0.0000 
     65 H65         1.9857   51.8312   32.8737 H         1 UNK         0.0000 
     66 H66         2.0148   53.1203   18.6229 H         1 UNK         0.0000 
@<TRIPOS>BOND
     1    1    2 1    
     2    1   30 1    
     3    1   31 1    
     4    1   32 1    
     5    2    3 1    
     6    2    4 1    
     7    2   33 1    
     8    3   34 1    
     9    3   35 1    
    10    3   36 1    
    11    4    9 1    
    12    4    5 1    
    13    4   66 1    
    14    5    6 1    
    15    5   37 1    
    16    5   38 1    
    17    6    7 1    
    18    6   39 1    
    19    6   40 1    
    20    7    8 1    
    21    7   10 1    
    22    7   41 1    
    23    8    9 1    
    24    8   42 1    
    25    8   43 1    
    26    9   44 1    
    27    9   45 1    
    28   10   11 1    
    29   10   46 1    
    30   11   12 1    
    31   11   17 1    
    32   11   13 1    
    33   13   14 1    
    34   13   47 1    
    35   13   48 1    
    36   14   15 1    
    37   14   49 1    
    38   14   50 1    
    39   15   16 1    
    40   15   51 1    
    41   15   52 1    
    42   16   21 ar   
    43   16   17 ar   
    44   17   18 ar   
    45   18   19 ar   
    46   18   53 1    
    47   19   20 ar   
    48   20   21 ar   
    49   20   22 1    
    50   22   27 1    
    51   22   23 1    
    52   23   24 1    
    53   23   54 1    
    54   23   55 1    
    55   24   25 1    
    56   24   56 1    
    57   24   57 1    
    58   25   26 1    
    59   25   28 1    
    60   25   58 1    
    61   26   27 1    
    62   26   59 1    
    63   26   60 1    
    64   27   61 1    
    65   27   62 1    
    66   28   29 1    
    67   28   63 1    
    68   28   64 1    
    69   29   65 1    
@<TRIPOS>SUBSTRUCTURE
     1 UNK         1 GROUP             0       ****    0 ROOT    
