@<TRIPOS>MOLECULE
ZINC08705907_4718
34   36    1
SMALL
USER_CHARGES


@<TRIPOS>ATOM
      1 C1          2.0367   53.9825   23.6977 C.3       1 UNK         0.0000 
      2 C2          3.5457   54.1077   23.5690 C.ar      1 UNK         0.0000 
      3 C3          4.1213   54.0961   22.2903 C.ar      1 UNK         0.0000 
      4 C4          5.4977   54.2187   22.1063 C.ar      1 UNK         0.0000 
      5 C5          6.3372   54.3523   23.2087 C.ar      1 UNK         0.0000 
      6 N6          5.7890   54.3599   24.4640 N.pl3     1 UNK         0.0000 
      7 C7          4.4055   54.2512   24.6850 C.ar      1 UNK         0.0000 
      8 N8          4.1335   54.3041   26.0169 N.2       1 UNK         0.0000 
      9 C9          5.3068   54.3681   26.6211 C.ar      1 UNK         0.0000 
     10 C10         6.3573   54.4468   25.7062 C.ar      1 UNK         0.0000 
     11 C11         5.3985   54.3318   28.1333 C.3       1 UNK         0.0000 
     12 S12         4.4284   52.9770   28.8817 S.3       1 UNK         0.0000 
     13 C13         2.8822   53.6225   29.4378 C.ar      1 UNK         0.0000 
     14 N14         1.9717   52.7136   29.8696 N.ar      1 UNK         0.0000 
     15 C15         0.8414   53.2095   30.4299 C.ar      1 UNK         0.0000 
     16 C16         0.6164   54.5779   30.5693 C.ar      1 UNK         0.0000 
     17 C17         1.6060   55.4316   30.0818 C.ar      1 UNK         0.0000 
     18 N18         2.7358   54.9715   29.4970 N.ar      1 UNK         0.0000 
     19 N19         1.5044   56.8038   30.2656 N.pl3     1 UNK         0.0000 
     20 N20        -0.0931   52.2871   30.8815 N.pl3     1 UNK         0.0000 
     21 H21         1.5506   53.7921   22.7394 H         1 UNK         0.0000 
     22 H22         1.7875   53.1642   24.3751 H         1 UNK         0.0000 
     23 H23         1.6211   54.8963   24.1200 H         1 UNK         0.0000 
     24 H24         3.4904   53.9985   21.4149 H         1 UNK         0.0000 
     25 H25         5.9049   54.2115   21.1061 H         1 UNK         0.0000 
     26 H26         7.4123   54.4502   23.1415 H         1 UNK         0.0000 
     27 H27         7.4227   54.4988   25.8488 H         1 UNK         0.0000 
     28 H28         5.1383   55.2961   28.5691 H         1 UNK         0.0000 
     29 H29         6.4335   54.1579   28.4260 H         1 UNK         0.0000 
     30 H30        -0.2778   54.9525   31.0424 H         1 UNK         0.0000 
     31 H31         0.7866   57.1621   30.8750 H         1 UNK         0.0000 
     32 H32         2.2775   57.3956   29.9866 H         1 UNK         0.0000 
     33 H33        -0.7980   52.5284   31.5730 H         1 UNK         0.0000 
     34 H34         0.1034   51.3116   30.7278 H         1 UNK         0.0000 
@<TRIPOS>BOND
     1    1    2 1    
     2    1   21 1    
     3    1   22 1    
     4    1   23 1    
     5    2    7 ar   
     6    2    3 ar   
     7    3    4 ar   
     8    3   24 1    
     9    4    5 ar   
    10    4   25 1    
    11    5    6 ar   
    12    5   26 1    
    13    6   10 ar   
    14    6    7 ar   
    15    7    8 ar   
    16    8    9 ar   
    17    9   10 ar   
    18    9   11 1    
    19   10   27 1    
    20   11   12 1    
    21   11   28 1    
    22   11   29 1    
    23   12   13 1    
    24   13   18 ar   
    25   13   14 ar   
    26   14   15 ar   
    27   15   16 ar   
    28   15   20 1    
    29   16   17 ar   
    30   16   30 1    
    31   17   18 ar   
    32   17   19 1    
    33   19   31 1    
    34   19   32 1    
    35   20   33 1    
    36   20   34 1    
@<TRIPOS>SUBSTRUCTURE
     1 UNK         1 GROUP             0       ****    0 ROOT    
