@<TRIPOS>MOLECULE
ZINC36006700_5694
80   82    1
SMALL
USER_CHARGES


@<TRIPOS>ATOM
      1 C1          4.8627   54.8439   19.4420 C.3       1 UNK         0.0000 
      2 C2          5.1420   54.8777   20.9539 C.3       1 UNK         0.0000 
      3 O3          4.0189   54.4278   21.7127 O.3       1 UNK         0.0000 
      4 C4          3.7286   53.1092   21.8371 C.2       1 UNK         0.0000 
      5 O5          4.3962   52.2353   21.2805 O.2       1 UNK         0.0000 
      6 C6          2.5523   52.8285   22.7105 C.2       1 UNK         0.0000 
      7 C7          1.8916   51.6305   22.7350 C.2       1 UNK         0.0000 
      8 N8          0.8192   51.4368   23.5979 N.am      1 UNK         0.0000 
      9 C9          0.1193   52.4944   24.1385 C.2       1 UNK         0.0000 
     10 O10        -1.0233   52.4632   24.5929 O.2       1 UNK         0.0000 
     11 N11         0.7433   53.6967   24.0756 N.am      1 UNK         0.0000 
     12 C12         2.1854   53.8752   23.7933 C.3       1 UNK         0.0000 
     13 H13         2.3339   54.8956   23.4320 H         1 UNK         0.0000 
     14 C14         3.1002   53.8788   25.0352 C.ar      1 UNK         0.0000 
     15 C15         2.7207   53.3134   26.2634 C.ar      1 UNK         0.0000 
     16 C16         3.5744   53.3375   27.3693 C.ar      1 UNK         0.0000 
     17 C17         4.8370   53.9391   27.2394 C.ar      1 UNK         0.0000 
     18 C18         5.2417   54.5055   26.0326 C.ar      1 UNK         0.0000 
     19 C19         4.3613   54.4694   24.9444 C.ar      1 UNK         0.0000 
     20 O20         6.4995   55.0764   25.9838 O.3       1 UNK         0.0000 
     21 C21         6.9177   55.6740   24.7620 C.3       1 UNK         0.0000 
     22 O22         3.1079   52.7461   28.5282 O.3       1 UNK         0.0000 
     23 C23         3.9720   52.6608   29.6558 C.3       1 UNK         0.0000 
     24 C24         0.2606   50.1109   23.9350 C.3       1 UNK         0.0000 
     25 C25         2.0909   50.5030   21.6947 C.3       1 UNK         0.0000 
     26 N26         1.5035   50.8955   20.3106 N.4       1 UNK         0.0000 
     27 C27        -0.0511   50.9128   20.3233 C.3       1 UNK         0.0000 
     28 C28        -0.6872   51.5826   19.0896 C.3       1 UNK         0.0000 
     29 C29        -0.8637   50.6769   17.8479 C.3       1 UNK         0.0000 
     30 N30         0.3197   49.8761   17.4880 N.am      1 UNK         0.0000 
     31 C31         1.6197   50.5082   17.7709 C.3       1 UNK         0.0000 
     32 C32         2.1907   50.1326   19.1509 C.3       1 UNK         0.0000 
     33 C33         0.1716   48.5778   17.0866 C.2       1 UNK         0.0000 
     34 O34        -0.9312   48.0366   16.9795 O.2       1 UNK         0.0000 
     35 N35         1.3123   47.9386   16.7403 N.am      1 UNK         0.0000 
     36 C36         1.4974   46.5540   16.2872 C.3       1 UNK         0.0000 
     37 C37         3.0156   46.3192   16.1653 C.3       1 UNK         0.0000 
     38 C38         0.8457   46.3324   14.9028 C.3       1 UNK         0.0000 
     39 C39         0.9271   45.5378   17.3063 C.3       1 UNK         0.0000 
     40 H40         5.6810   55.2994   18.8857 H         1 UNK         0.0000 
     41 H41         4.7549   53.8212   19.0804 H         1 UNK         0.0000 
     42 H42         3.9450   55.3762   19.1925 H         1 UNK         0.0000 
     43 H43         5.3693   55.8981   21.2590 H         1 UNK         0.0000 
     44 H44         6.0284   54.2903   21.1972 H         1 UNK         0.0000 
     45 H45         0.3035   54.4048   24.6443 H         1 UNK         0.0000 
     46 H46         1.7587   52.8405   26.3804 H         1 UNK         0.0000 
     47 H47         5.5256   53.9739   28.0693 H         1 UNK         0.0000 
     48 H48         4.6545   54.9064   24.0081 H         1 UNK         0.0000 
     49 H49         7.9044   56.0975   24.8818 H         1 UNK         0.0000 
     50 H50         6.9726   54.9467   23.9508 H         1 UNK         0.0000 
     51 H51         6.2623   56.4962   24.4789 H         1 UNK         0.0000 
     52 H52         3.4587   52.1415   30.4657 H         1 UNK         0.0000 
     53 H53         4.8737   52.0902   29.4213 H         1 UNK         0.0000 
     54 H54         4.2573   53.6477   30.0246 H         1 UNK         0.0000 
     55 H55        -0.3769   50.1168   24.8217 H         1 UNK         0.0000 
     56 H56        -0.3312   49.7128   23.1112 H         1 UNK         0.0000 
     57 H57         1.0689   49.4104   24.1511 H         1 UNK         0.0000 
     58 H58         1.6416   49.5414   21.9377 H         1 UNK         0.0000 
     59 H59         3.1467   50.2874   21.5549 H         1 UNK         0.0000 
     60 H60        -0.3145   51.5070   21.1969 H         1 UNK         0.0000 
     61 H61        -0.3841   49.8852   20.4831 H         1 UNK         0.0000 
     62 H62        -0.1054   52.4661   18.8215 H         1 UNK         0.0000 
     63 H63        -1.6662   51.9763   19.3596 H         1 UNK         0.0000 
     64 H64        -1.0599   51.3454   17.0069 H         1 UNK         0.0000 
     65 H65        -1.7403   50.0417   17.9947 H         1 UNK         0.0000 
     66 H66         2.3045   50.1337   17.0169 H         1 UNK         0.0000 
     67 H67         1.6311   51.5789   17.5646 H         1 UNK         0.0000 
     68 H68         2.1291   49.0643   19.3672 H         1 UNK         0.0000 
     69 H69         3.2429   50.4187   19.2101 H         1 UNK         0.0000 
     70 H70         2.1684   48.4790   16.7726 H         1 UNK         0.0000 
     71 H71         3.2490   45.2987   15.8611 H         1 UNK         0.0000 
     72 H72         3.5075   46.4976   17.1214 H         1 UNK         0.0000 
     73 H73         3.4788   46.9894   15.4380 H         1 UNK         0.0000 
     74 H74        -0.2353   46.4706   14.9341 H         1 UNK         0.0000 
     75 H75         1.2376   47.0305   14.1616 H         1 UNK         0.0000 
     76 H76         1.0313   45.3238   14.5313 H         1 UNK         0.0000 
     77 H77        -0.1581   45.5945   17.3769 H         1 UNK         0.0000 
     78 H78         1.1722   44.5132   17.0270 H         1 UNK         0.0000 
     79 H79         1.3253   45.7109   18.3072 H         1 UNK         0.0000 
     80 H80         1.7882   51.8571   20.1682 H         1 UNK         0.0000 
@<TRIPOS>BOND
     1    1    2 1    
     2    1   40 1    
     3    1   41 1    
     4    1   42 1    
     5    2    3 1    
     6    2   43 1    
     7    2   44 1    
     8    3    4 1    
     9    4    5 2    
    10    4    6 1    
    11    6   12 1    
    12    6    7 2    
    13    7    8 1    
    14    7   25 1    
    15    8    9 am   BACKBONE|DICT|INTERRES
    16    8   24 1    
    17    9   10 2    
    18    9   11 am   BACKBONE|DICT|INTERRES
    19   11   12 1    
    20   11   45 1    
    21   12   13 1    
    22   12   14 1    
    23   14   19 ar   
    24   14   15 ar   
    25   15   16 ar   
    26   15   46 1    
    27   16   17 ar   
    28   16   22 1    
    29   17   18 ar   
    30   17   47 1    
    31   18   19 ar   
    32   18   20 1    
    33   19   48 1    
    34   20   21 1    
    35   21   49 1    
    36   21   50 1    
    37   21   51 1    
    38   22   23 1    
    39   23   52 1    
    40   23   53 1    
    41   23   54 1    
    42   24   55 1    
    43   24   56 1    
    44   24   57 1    
    45   25   26 1    
    46   25   58 1    
    47   25   59 1    
    48   26   32 1    
    49   26   27 1    
    50   26   80 1    
    51   27   28 1    
    52   27   60 1    
    53   27   61 1    
    54   28   29 1    
    55   28   62 1    
    56   28   63 1    
    57   29   30 1    
    58   29   64 1    
    59   29   65 1    
    60   30   31 1    
    61   30   33 am   BACKBONE|DICT|INTERRES
    62   31   32 1    
    63   31   66 1    
    64   31   67 1    
    65   32   68 1    
    66   32   69 1    
    67   33   34 2    
    68   33   35 am   BACKBONE|DICT|INTERRES
    69   35   36 1    
    70   35   70 1    
    71   36   37 1    
    72   36   38 1    
    73   36   39 1    
    74   37   71 1    
    75   37   72 1    
    76   37   73 1    
    77   38   74 1    
    78   38   75 1    
    79   38   76 1    
    80   39   77 1    
    81   39   78 1    
    82   39   79 1    
@<TRIPOS>SUBSTRUCTURE
     1 UNK         1 GROUP             0       ****    0 ROOT    
