@<TRIPOS>MOLECULE
ZINC39686367_180
66   69    1
SMALL
USER_CHARGES


@<TRIPOS>ATOM
      1 C1          1.0282   49.7040   20.3041 C.3       1 UNK         0.0000 
      2 C2          1.6071   51.1357   20.2968 C.3       1 UNK         0.0000 
      3 H3          1.0518   51.7273   19.5638 H         1 UNK         0.0000 
      4 C4          3.0849   51.1165   19.8568 C.3       1 UNK         0.0000 
      5 C5          3.6506   52.4882   19.4906 C.ar      1 UNK         0.0000 
      6 C6          3.5575   52.8989   18.1571 C.ar      1 UNK         0.0000 
      7 C7          4.1066   54.1114   17.7503 C.ar      1 UNK         0.0000 
      8 C8          4.7620   54.9170   18.6763 C.ar      1 UNK         0.0000 
      9 C9          4.8599   54.5127   20.0060 C.ar      1 UNK         0.0000 
     10 C10         4.2938   53.3018   20.4421 C.ar      1 UNK         0.0000 
     11 O11         4.3470   52.8724   21.7594 O.3       1 UNK         0.0000 
     12 C12         4.9486   53.7240   22.7340 C.3       1 UNK         0.0000 
     13 N13         1.4601   51.7771   21.6035 N.am      1 UNK         0.0000 
     14 C14         0.3002   52.1680   22.1587 C.2       1 UNK         0.0000 
     15 O15        -0.7757   52.0949   21.5616 O.2       1 UNK         0.0000 
     16 C16         0.2810   52.6585   23.6273 C.3       1 UNK         0.0000 
     17 H17        -0.4528   53.4645   23.6823 H         1 UNK         0.0000 
     18 C18         1.6222   53.2981   24.0389 C.3       1 UNK         0.0000 
     19 N19         1.6501   53.1166   25.4921 N.am      1 UNK         0.0000 
     20 C20         0.5952   52.2020   25.9520 C.3       1 UNK         0.0000 
     21 C21         0.0092   51.5464   24.6755 C.3       1 UNK         0.0000 
     22 C22        -1.4971   51.1980   24.7648 C.3       1 UNK         0.0000 
     23 C23        -1.7917   50.2328   25.9279 C.3       1 UNK         0.0000 
     24 N24        -0.9993   48.9254   25.6940 N.4       1 UNK         0.0000 
     25 C25         0.5140   49.1329   25.4726 C.3       1 UNK         0.0000 
     26 C26         0.7145   50.1846   24.3555 C.3       1 UNK         0.0000 
     27 C27         2.6359   53.6687   26.2547 C.2       1 UNK         0.0000 
     28 O28         3.5049   54.3969   25.7723 O.2       1 UNK         0.0000 
     29 C29         2.7291   53.2974   27.7199 C.ar      1 UNK         0.0000 
     30 C30         3.9687   52.9063   28.2411 C.ar      1 UNK         0.0000 
     31 C31         4.0756   52.4517   29.5530 C.ar      1 UNK         0.0000 
     32 C32         2.9546   52.4028   30.3750 C.ar      1 UNK         0.0000 
     33 C33         1.7236   52.8688   29.8958 C.ar      1 UNK         0.0000 
     34 C34         1.6180   53.3191   28.5776 C.ar      1 UNK         0.0000 
     35 Cl35        0.3124   52.8720   30.8923 Cl        1 UNK         0.0000 
     36 Cl36        3.1231   51.7126   31.9528 Cl        1 UNK         0.0000 
     37 H37         1.1683   49.2262   19.3347 H         1 UNK         0.0000 
     38 H38         1.5315   49.0726   21.0382 H         1 UNK         0.0000 
     39 H39        -0.0437   49.6966   20.5054 H         1 UNK         0.0000 
     40 H40         3.1738   50.4768   18.9759 H         1 UNK         0.0000 
     41 H41         3.7162   50.6424   20.6087 H         1 UNK         0.0000 
     42 H42         3.0821   52.2633   17.4238 H         1 UNK         0.0000 
     43 H43         4.0374   54.4176   16.7174 H         1 UNK         0.0000 
     44 H44         5.1969   55.8549   18.3628 H         1 UNK         0.0000 
     45 H45         5.3766   55.1699   20.6871 H         1 UNK         0.0000 
     46 H46         4.8784   53.2839   23.7265 H         1 UNK         0.0000 
     47 H47         6.0063   53.8848   22.5254 H         1 UNK         0.0000 
     48 H48         4.4405   54.6876   22.7829 H         1 UNK         0.0000 
     49 H49         2.3277   51.9940   22.0711 H         1 UNK         0.0000 
     50 H50         2.4713   52.7209   23.6706 H         1 UNK         0.0000 
     51 H51         1.7028   54.3420   23.7281 H         1 UNK         0.0000 
     52 H52        -0.1973   52.8300   26.3611 H         1 UNK         0.0000 
     53 H53         0.8804   51.4809   26.7153 H         1 UNK         0.0000 
     54 H54        -2.0667   52.1100   24.9492 H         1 UNK         0.0000 
     55 H55        -1.8765   50.8115   23.8174 H         1 UNK         0.0000 
     56 H56        -1.4766   50.6074   26.9045 H         1 UNK         0.0000 
     57 H57        -2.8422   49.9440   25.9864 H         1 UNK         0.0000 
     58 H58        -1.1309   48.3660   26.5437 H         1 UNK         0.0000 
     59 H59         0.9313   49.4129   26.4411 H         1 UNK         0.0000 
     60 H60         0.9120   48.1525   25.2113 H         1 UNK         0.0000 
     61 H61         0.3715   49.7667   23.4072 H         1 UNK         0.0000 
     62 H62         1.7849   50.3411   24.2159 H         1 UNK         0.0000 
     63 H63         4.8505   52.8962   27.6154 H         1 UNK         0.0000 
     64 H64         5.0289   52.0966   29.9152 H         1 UNK         0.0000 
     65 H65         0.6571   53.6686   28.2289 H         1 UNK         0.0000 
     66 H66        -1.4022   48.4103   24.9242 H         1 UNK         0.0000 
@<TRIPOS>BOND
     1    1    2 1    
     2    1   37 1    
     3    1   38 1    
     4    1   39 1    
     5    2    3 1    
     6    2    4 1    
     7    2   13 1    
     8    4    5 1    
     9    4   40 1    
    10    4   41 1    
    11    5   10 ar   
    12    5    6 ar   
    13    6    7 ar   
    14    6   42 1    
    15    7    8 ar   
    16    7   43 1    
    17    8    9 ar   
    18    8   44 1    
    19    9   10 ar   
    20    9   45 1    
    21   10   11 1    
    22   11   12 1    
    23   12   46 1    
    24   12   47 1    
    25   12   48 1    
    26   13   14 am   BACKBONE|DICT|INTERRES
    27   13   49 1    
    28   14   15 2    
    29   14   16 1    
    30   16   17 1    
    31   16   21 1    
    32   16   18 1    
    33   18   19 1    
    34   18   50 1    
    35   18   51 1    
    36   19   20 1    
    37   19   27 am   BACKBONE|DICT|INTERRES
    38   20   21 1    
    39   20   52 1    
    40   20   53 1    
    41   21   26 1    
    42   21   22 1    
    43   22   23 1    
    44   22   54 1    
    45   22   55 1    
    46   23   24 1    
    47   23   56 1    
    48   23   57 1    
    49   24   25 1    
    50   24   58 1    
    51   24   66 1    
    52   25   26 1    
    53   25   59 1    
    54   25   60 1    
    55   26   61 1    
    56   26   62 1    
    57   27   28 2    
    58   27   29 1    
    59   29   34 ar   
    60   29   30 ar   
    61   30   31 ar   
    62   30   63 1    
    63   31   32 ar   
    64   31   64 1    
    65   32   33 ar   
    66   32   36 1    
    67   33   34 ar   
    68   33   35 1    
    69   34   65 1    
@<TRIPOS>SUBSTRUCTURE
     1 UNK         1 GROUP             0       ****    0 ROOT    
