@<TRIPOS>MOLECULE
ZINC10812230_2298
55   58    1
SMALL
USER_CHARGES


@<TRIPOS>ATOM
      1 C1          4.3323   54.4987   27.3447 C.3       1 UNK         0.0000 
      2 C2          4.6441   54.7699   25.8610 C.3       1 UNK         0.0000 
      3 H3          4.4213   55.8213   25.6825 H         1 UNK         0.0000 
      4 C4          6.1255   54.4883   25.5412 C.3       1 UNK         0.0000 
      5 C5          6.5041   54.9886   24.1313 C.3       1 UNK         0.0000 
      6 C6          5.4647   54.4967   23.1214 C.2       1 UNK         0.0000 
      7 C7          4.2280   53.9620   23.5192 C.2       1 UNK         0.0000 
      8 S8          3.3364   53.3156   22.1734 S.3       1 UNK         0.0000 
      9 C9          4.5265   53.9225   21.0766 C.ar      1 UNK         0.0000 
     10 C10         5.5580   54.5904   21.7166 C.ar      1 UNK         0.0000 
     11 C11         6.5543   55.2967   20.9055 C.ar      1 UNK         0.0000 
     12 O12         7.5043   55.9419   21.3612 O.2       1 UNK         0.0000 
     13 N13         6.3060   55.1332   19.5370 N.pl3     1 UNK         0.0000 
     14 C14         5.2064   54.4527   18.9782 C.ar      1 UNK         0.0000 
     15 N15         4.3874   53.8114   19.7350 N.2       1 UNK         0.0000 
     16 S16         4.8741   54.4579   17.1772 S.3       1 UNK         0.0000 
     17 C17         3.9864   52.8936   16.7777 C.3       1 UNK         0.0000 
     18 H18         4.7048   52.1048   17.0047 H         1 UNK         0.0000 
     19 C19         3.7340   52.7946   15.2600 C.3       1 UNK         0.0000 
     20 C20         2.6778   52.6196   17.5528 C.2       1 UNK         0.0000 
     21 O21         1.7122   53.3762   17.4162 O.2       1 UNK         0.0000 
     22 N22         2.7045   51.5066   18.3200 N.am      1 UNK         0.0000 
     23 C23         1.8262   51.1119   19.2606 C.2       1 UNK         0.0000 
     24 O24         0.7668   51.6721   19.5557 O.2       1 UNK         0.0000 
     25 N25         2.2928   50.0265   19.8962 N.am      1 UNK         0.0000 
     26 C26         1.8501   49.5903   21.2152 C.3       1 UNK         0.0000 
     27 C27         7.3063   55.6621   18.6750 C.ar      1 UNK         0.0000 
     28 C28         8.1378   54.7839   17.9607 C.ar      1 UNK         0.0000 
     29 C29         9.1276   55.2826   17.1147 C.ar      1 UNK         0.0000 
     30 C30         9.2922   56.6593   16.9666 C.ar      1 UNK         0.0000 
     31 C31         8.4679   57.5401   17.6660 C.ar      1 UNK         0.0000 
     32 C32         7.4797   57.0498   18.5190 C.ar      1 UNK         0.0000 
     33 F33         6.7032   57.9264   19.1977 F         1 UNK         0.0000 
     34 C34         3.7175   53.9169   24.9576 C.3       1 UNK         0.0000 
     35 H35         4.5081   53.4540   27.6064 H         1 UNK         0.0000 
     36 H36         4.9559   55.1093   27.9985 H         1 UNK         0.0000 
     37 H37         3.2920   54.7291   27.5787 H         1 UNK         0.0000 
     38 H38         6.7575   54.9972   26.2703 H         1 UNK         0.0000 
     39 H39         6.3524   53.4297   25.6806 H         1 UNK         0.0000 
     40 H40         7.4944   54.6150   23.8735 H         1 UNK         0.0000 
     41 H41         6.5626   56.0778   24.1183 H         1 UNK         0.0000 
     42 H42         3.2632   51.8475   14.9894 H         1 UNK         0.0000 
     43 H43         3.0889   53.6005   14.9058 H         1 UNK         0.0000 
     44 H44         4.6700   52.8543   14.7034 H         1 UNK         0.0000 
     45 H45         3.5571   50.9592   18.2419 H         1 UNK         0.0000 
     46 H46         3.0055   49.4692   19.4465 H         1 UNK         0.0000 
     47 H47         2.6665   49.0865   21.7350 H         1 UNK         0.0000 
     48 H48         1.0188   48.8911   21.1216 H         1 UNK         0.0000 
     49 H49         1.5259   50.4312   21.8319 H         1 UNK         0.0000 
     50 H50         8.0252   53.7137   18.0660 H         1 UNK         0.0000 
     51 H51         9.7676   54.6006   16.5741 H         1 UNK         0.0000 
     52 H52        10.0587   57.0433   16.3096 H         1 UNK         0.0000 
     53 H53         8.5926   58.6065   17.5498 H         1 UNK         0.0000 
     54 H54         2.6982   54.3013   25.0103 H         1 UNK         0.0000 
     55 H55         3.6978   52.8967   25.3215 H         1 UNK         0.0000 
@<TRIPOS>BOND
     1    1    2 1    
     2    1   35 1    
     3    1   36 1    
     4    1   37 1    
     5    2    3 1    
     6    2   34 1    
     7    2    4 1    
     8    4    5 1    
     9    4   38 1    
    10    4   39 1    
    11    5    6 1    
    12    5   40 1    
    13    5   41 1    
    14    6   10 1    
    15    6    7 2    
    16    7    8 1    
    17    7   34 1    
    18    8    9 1    
    19    9   15 ar   
    20    9   10 ar   
    21   10   11 ar   
    22   11   12 2    
    23   11   13 ar   
    24   13   14 ar   
    25   13   27 1    
    26   14   15 ar   
    27   14   16 1    
    28   16   17 1    
    29   17   18 1    
    30   17   19 1    
    31   17   20 1    
    32   19   42 1    
    33   19   43 1    
    34   19   44 1    
    35   20   21 2    
    36   20   22 am   BACKBONE|DICT|INTERRES
    37   22   23 am   BACKBONE|DICT|INTERRES
    38   22   45 1    
    39   23   24 2    
    40   23   25 am   BACKBONE|DICT|INTERRES
    41   25   26 1    
    42   25   46 1    
    43   26   47 1    
    44   26   48 1    
    45   26   49 1    
    46   27   32 ar   
    47   27   28 ar   
    48   28   29 ar   
    49   28   50 1    
    50   29   30 ar   
    51   29   51 1    
    52   30   31 ar   
    53   30   52 1    
    54   31   32 ar   
    55   31   53 1    
    56   32   33 1    
    57   34   54 1    
    58   34   55 1    
@<TRIPOS>SUBSTRUCTURE
     1 UNK         1 GROUP             0       ****    0 ROOT    
