@<TRIPOS>MOLECULE
ZINC34923794_1033
66   70    1
SMALL
USER_CHARGES


@<TRIPOS>ATOM
      1 C1          1.7939   42.6446   16.1903 C.3       1 UNK         0.0000 
      2 C2          1.0116   43.6063   17.0826 C.2       1 UNK         0.0000 
      3 C3          0.6622   43.4404   18.4013 C.2       1 UNK         0.0000 
      4 C4         -0.1873   44.5410   19.1128 C.3       1 UNK         0.0000 
      5 H5          0.3036   44.8109   20.0435 H         1 UNK         0.0000 
      6 N6         -0.1981   45.7851   18.2939 N.pl3     1 UNK         0.0000 
      7 C7         -0.6854   47.0176   18.7064 C.2       1 UNK         0.0000 
      8 C8         -0.8641   47.8504   17.6626 C.2       1 UNK         0.0000 
      9 S9         -0.4051   47.1646   16.1082 S.3       1 UNK         0.0000 
     10 C10         0.1109   45.6886   16.9380 C.2       1 UNK         0.0000 
     11 N11         0.6153   44.6814   16.3395 N.2       1 UNK         0.0000 
     12 C12        -0.9616   47.4004   20.0903 C.2       1 UNK         0.0000 
     13 C13        -0.8387   48.6342   20.6167 C.2       1 UNK         0.0000 
     14 O14        -0.4430   49.7260   20.0593 O.co2     1 UNK         0.0000 
     15 N15        -1.1603   48.8441   21.9475 N.pl3     1 UNK         0.0000 
     16 C16        -0.7428   49.8708   22.9139 C.3       1 UNK         0.0000 
     17 C17        -1.3493   51.2547   22.5673 C.3       1 UNK         0.0000 
     18 C18        -0.9074   52.3136   23.5919 C.3       1 UNK         0.0000 
     19 N19         0.6399   52.3481   23.5749 N.4       1 UNK         0.0000 
     20 C20         1.2217   50.9970   24.0508 C.3       1 UNK         0.0000 
     21 C21         0.7974   49.9245   23.0290 C.3       1 UNK         0.0000 
     22 C22         1.1730   53.5239   24.4219 C.3       1 UNK         0.0000 
     23 C23         2.6679   53.7896   24.2661 C.ar      1 UNK         0.0000 
     24 C24         3.4756   53.9295   25.3998 C.ar      1 UNK         0.0000 
     25 C25         4.8461   54.1518   25.2572 C.ar      1 UNK         0.0000 
     26 C26         5.4021   54.2291   23.9820 C.ar      1 UNK         0.0000 
     27 C27         4.6016   54.0970   22.8475 C.ar      1 UNK         0.0000 
     28 C28         3.2320   53.8907   22.9915 C.ar      1 UNK         0.0000 
     29 C29        -1.6028   44.0652   19.4312 C.2       1 UNK         0.0000 
     30 C30        -2.1750   44.0777   20.7142 C.2       1 UNK         0.0000 
     31 C31        -3.4858   43.6221   20.7532 C.2       1 UNK         0.0000 
     32 S32        -4.0517   43.1538   19.1886 S.3       1 UNK         0.0000 
     33 C33        -2.5185   43.5764   18.5024 C.2       1 UNK         0.0000 
     34 C34         1.1180   42.3333   19.2712 C.2       1 UNK         0.0000 
     35 O35         0.5987   42.0998   20.3655 O.2       1 UNK         0.0000 
     36 O36         2.1601   41.6244   18.7961 O.3       1 UNK         0.0000 
     37 C37         2.7047   40.5339   19.5243 C.3       1 UNK         0.0000 
     38 H38         2.8647   42.8011   16.3300 H         1 UNK         0.0000 
     39 H39         1.5558   41.6043   16.4135 H         1 UNK         0.0000 
     40 H40         1.5757   42.7815   15.1261 H         1 UNK         0.0000 
     41 H41        -1.2287   48.8653   17.7205 H         1 UNK         0.0000 
     42 H42        -1.3110   46.6229   20.7487 H         1 UNK         0.0000 
     43 H43        -1.5369   48.0381   22.4212 H         1 UNK         0.0000 
     44 H44        -1.1358   49.5802   23.8907 H         1 UNK         0.0000 
     45 H45        -1.0248   51.5994   21.5868 H         1 UNK         0.0000 
     46 H46        -2.4395   51.1919   22.5328 H         1 UNK         0.0000 
     47 H47        -1.2366   52.1014   24.6107 H         1 UNK         0.0000 
     48 H48        -1.2654   53.2960   23.2837 H         1 UNK         0.0000 
     49 H49         0.8610   50.8022   25.0649 H         1 UNK         0.0000 
     50 H50         2.3040   51.0967   24.0563 H         1 UNK         0.0000 
     51 H51         1.1974   48.9519   23.3207 H         1 UNK         0.0000 
     52 H52         1.2461   50.1766   22.0688 H         1 UNK         0.0000 
     53 H53         0.6207   54.4050   24.0883 H         1 UNK         0.0000 
     54 H54         0.8935   53.2966   25.4540 H         1 UNK         0.0000 
     55 H55         3.0538   53.8540   26.3929 H         1 UNK         0.0000 
     56 H56         5.4719   54.2491   26.1302 H         1 UNK         0.0000 
     57 H57         6.4633   54.3929   23.8703 H         1 UNK         0.0000 
     58 H58         5.0388   54.1620   21.8621 H         1 UNK         0.0000 
     59 H59         2.6188   53.7952   22.1046 H         1 UNK         0.0000 
     60 H60        -1.6370   44.4245   21.5853 H         1 UNK         0.0000 
     61 H61        -4.1385   43.5440   21.6102 H         1 UNK         0.0000 
     62 H62        -2.3586   43.4695   17.4409 H         1 UNK         0.0000 
     63 H63         3.5234   40.0922   18.9557 H         1 UNK         0.0000 
     64 H64         3.1038   40.8694   20.4817 H         1 UNK         0.0000 
     65 H65         1.9631   39.7520   19.7066 H         1 UNK         0.0000 
     66 H66         0.9523   52.5135   22.6260 H         1 UNK         0.0000 
@<TRIPOS>BOND
     1    1    2 1    
     2    1   38 1    
     3    1   39 1    
     4    1   40 1    
     5    2   11 1    
     6    2    3 2    
     7    3    4 1    
     8    3   34 1    
     9    4    5 1    
    10    4    6 1    
    11    4   29 1    
    12    6   10 1    
    13    6    7 1    
    14    7    8 2    
    15    7   12 1    
    16    8    9 1    
    17    8   41 1    
    18    9   10 1    
    19   10   11 2    
    20   12   13 2    
    21   12   42 1    
    22   13   14 1    
    23   13   15 1    
    24   15   16 1    
    25   15   43 1    
    26   16   21 1    
    27   16   17 1    
    28   16   44 1    
    29   17   18 1    
    30   17   45 1    
    31   17   46 1    
    32   18   19 1    
    33   18   47 1    
    34   18   48 1    
    35   19   20 1    
    36   19   22 1    
    37   19   66 1    
    38   20   21 1    
    39   20   49 1    
    40   20   50 1    
    41   21   51 1    
    42   21   52 1    
    43   22   23 1    
    44   22   53 1    
    45   22   54 1    
    46   23   28 ar   
    47   23   24 ar   
    48   24   25 ar   
    49   24   55 1    
    50   25   26 ar   
    51   25   56 1    
    52   26   27 ar   
    53   26   57 1    
    54   27   28 ar   
    55   27   58 1    
    56   28   59 1    
    57   29   33 2    
    58   29   30 1    
    59   30   31 2    
    60   30   60 1    
    61   31   32 1    
    62   31   61 1    
    63   32   33 1    
    64   33   62 1    
    65   34   35 2    
    66   34   36 1    
    67   36   37 1    
    68   37   63 1    
    69   37   64 1    
    70   37   65 1    
@<TRIPOS>SUBSTRUCTURE
     1 UNK         1 GROUP             0       ****    0 ROOT    
