@<TRIPOS>MOLECULE
ZINC21809162_4777
32   33    1
SMALL
USER_CHARGES


@<TRIPOS>ATOM
      1 C1          4.2183   54.0772   21.2552 C.3       1 UNK         0.0000 
      2 C2          4.5042   54.0952   22.7514 C.ar      1 UNK         0.0000 
      3 C3          5.8327   54.1064   23.1877 C.ar      1 UNK         0.0000 
      4 C4          6.1283   54.1353   24.5474 C.ar      1 UNK         0.0000 
      5 C5          5.1006   54.1453   25.4929 C.ar      1 UNK         0.0000 
      6 C6          3.7689   54.1071   25.0654 C.ar      1 UNK         0.0000 
      7 C7          3.4666   54.0960   23.7003 C.ar      1 UNK         0.0000 
      8 N8          2.1263   54.0862   23.3060 N.pl3     1 UNK         0.0000 
      9 S9          5.5512   54.2472   27.2247 S.o2      1 UNK         0.0000 
     10 O10         5.8145   52.8979   27.7252 O.2       1 UNK         0.0000 
     11 O11         6.6020   55.2683   27.2799 O.2       1 UNK         0.0000 
     12 N12         4.1600   54.8967   28.1217 N.pl3     1 UNK         0.0000 
     13 C13         3.0319   54.1874   28.5693 C.ar      1 UNK         0.0000 
     14 C14         2.8072   52.8358   28.2779 C.ar      1 UNK         0.0000 
     15 C15         1.6663   52.1874   28.7499 C.ar      1 UNK         0.0000 
     16 C16         0.7388   52.8812   29.5231 C.ar      1 UNK         0.0000 
     17 C17         0.9507   54.2262   29.8245 C.ar      1 UNK         0.0000 
     18 C18         2.0894   54.8784   29.3450 C.ar      1 UNK         0.0000 
     19 F19         2.2767   56.1861   29.6441 F         1 UNK         0.0000 
     20 F20         0.0524   54.8972   30.5797 F         1 UNK         0.0000 
     21 F21        -0.3645   52.2471   29.9793 F         1 UNK         0.0000 
     22 H22         5.1224   54.1847   20.6573 H         1 UNK         0.0000 
     23 H23         3.5503   54.8966   20.9956 H         1 UNK         0.0000 
     24 H24         3.7206   53.1493   20.9743 H         1 UNK         0.0000 
     25 H25         6.6446   54.1031   22.4761 H         1 UNK         0.0000 
     26 H26         7.1616   54.1582   24.8607 H         1 UNK         0.0000 
     27 H27         2.9678   54.1186   25.7868 H         1 UNK         0.0000 
     28 H28         1.3984   54.0623   24.0037 H         1 UNK         0.0000 
     29 H29         1.9034   54.0995   22.3194 H         1 UNK         0.0000 
     30 H30         4.1627   55.8940   28.2677 H         1 UNK         0.0000 
     31 H31         3.5034   52.2716   27.6794 H         1 UNK         0.0000 
     32 H32         1.4957   51.1458   28.5138 H         1 UNK         0.0000 
@<TRIPOS>BOND
     1    1    2 1    
     2    1   22 1    
     3    1   23 1    
     4    1   24 1    
     5    2    7 ar   
     6    2    3 ar   
     7    3    4 ar   
     8    3   25 1    
     9    4    5 ar   
    10    4   26 1    
    11    5    6 ar   
    12    5    9 1    
    13    6    7 ar   
    14    6   27 1    
    15    7    8 1    
    16    8   28 1    
    17    8   29 1    
    18    9   10 2    
    19    9   11 2    
    20    9   12 1    
    21   12   13 1    
    22   12   30 1    
    23   13   18 ar   
    24   13   14 ar   
    25   14   15 ar   
    26   14   31 1    
    27   15   16 ar   
    28   15   32 1    
    29   16   17 ar   
    30   16   21 1    
    31   17   18 ar   
    32   17   20 1    
    33   18   19 1    
@<TRIPOS>SUBSTRUCTURE
     1 UNK         1 GROUP             0       ****    0 ROOT    
