@<TRIPOS>MOLECULE
ZINC15023235_5300
61   65    1
SMALL
USER_CHARGES


@<TRIPOS>ATOM
      1 C1         -5.2957   43.8190   26.5332 C.3       1 UNK         0.0000 
      2 O2         -4.8956   44.4739   25.3314 O.3       1 UNK         0.0000 
      3 C3         -4.4943   45.7969   25.3749 C.ar      1 UNK         0.0000 
      4 C4         -4.5007   46.5668   26.5469 C.ar      1 UNK         0.0000 
      5 C5         -4.0560   47.8834   26.5339 C.ar      1 UNK         0.0000 
      6 C6         -3.5830   48.4726   25.3566 C.ar      1 UNK         0.0000 
      7 C7         -3.6113   47.7129   24.1814 C.ar      1 UNK         0.0000 
      8 C8         -4.0459   46.3759   24.1784 C.ar      1 UNK         0.0000 
      9 O9         -4.0328   45.5703   23.0513 O.3       1 UNK         0.0000 
     10 C10        -3.5650   46.1006   21.8149 C.3       1 UNK         0.0000 
     11 C11        -3.0333   49.9177   25.3339 C.3       1 UNK         0.0000 
     12 H12        -3.8585   50.4595   24.8618 H         1 UNK         0.0000 
     13 C13        -2.7081   50.5875   26.7095 C.3       1 UNK         0.0000 
     14 H14        -2.5089   49.8247   27.4487 H         1 UNK         0.0000 
     15 N15        -1.4585   51.3548   26.5670 N.pl3     1 UNK         0.0000 
     16 C16        -0.5320   51.8691   27.5102 C.ar      1 UNK         0.0000 
     17 C17        -0.7768   51.8038   28.8844 C.ar      1 UNK         0.0000 
     18 C18         0.1651   52.2631   29.8056 C.ar      1 UNK         0.0000 
     19 C19         1.3805   52.7797   29.3603 C.ar      1 UNK         0.0000 
     20 C20         1.6518   52.8390   27.9949 C.ar      1 UNK         0.0000 
     21 C21         0.7081   52.3827   27.0659 C.ar      1 UNK         0.0000 
     22 C22         1.0175   52.4433   25.6319 C.2       1 UNK         0.0000 
     23 C23         0.1274   52.0543   24.7082 C.2       1 UNK         0.0000 
     24 C24        -1.2507   51.5361   25.1187 C.3       1 UNK         0.0000 
     25 H25        -1.9443   52.3277   24.8281 H         1 UNK         0.0000 
     26 C26        -1.7657   50.2259   24.4710 C.3       1 UNK         0.0000 
     27 C27        -2.1342   50.4907   23.0642 C.1       1 UNK         0.0000 
     28 N28        -2.4298   50.7039   21.9647 N.1       1 UNK         0.0000 
     29 C29        -0.6834   49.0934   24.5198 C.2       1 UNK         0.0000 
     30 O30        -0.0934   48.7431   23.5013 O.2       1 UNK         0.0000 
     31 N31        -0.4120   48.4973   25.6819 N.am      1 UNK         0.0000 
     32 F32         2.2995   53.2136   30.2524 F         1 UNK         0.0000 
     33 C33        -3.8572   51.5234   27.1795 C.2       1 UNK         0.0000 
     34 O34        -4.1441   52.5020   26.4820 O.2       1 UNK         0.0000 
     35 C35        -4.6592   51.1478   28.3950 C.ar      1 UNK         0.0000 
     36 C36        -4.1508   50.3156   29.4051 C.ar      1 UNK         0.0000 
     37 C37        -4.8977   50.0477   30.5462 C.ar      1 UNK         0.0000 
     38 C38        -6.1653   50.6026   30.6918 C.ar      1 UNK         0.0000 
     39 C39        -6.6918   51.4256   29.7004 C.ar      1 UNK         0.0000 
     40 C40        -5.9418   51.6968   28.5602 C.ar      1 UNK         0.0000 
     41 H41        -5.5452   42.7791   26.3187 H         1 UNK         0.0000 
     42 H42        -6.1827   44.2860   26.9661 H         1 UNK         0.0000 
     43 H43        -4.4957   43.8160   27.2777 H         1 UNK         0.0000 
     44 H44        -4.8326   46.1572   27.4872 H         1 UNK         0.0000 
     45 H45        -4.0645   48.4215   27.4655 H         1 UNK         0.0000 
     46 H46        -3.2625   48.1659   23.2682 H         1 UNK         0.0000 
     47 H47        -3.6290   45.3294   21.0459 H         1 UNK         0.0000 
     48 H48        -4.1705   46.9455   21.4840 H         1 UNK         0.0000 
     49 H49        -2.5215   46.4124   21.8799 H         1 UNK         0.0000 
     50 H50        -1.6985   51.3949   29.2608 H         1 UNK         0.0000 
     51 H51        -0.0462   52.2086   30.8649 H         1 UNK         0.0000 
     52 H52         2.6020   53.2328   27.6628 H         1 UNK         0.0000 
     53 H53         1.9817   52.8056   25.3035 H         1 UNK         0.0000 
     54 H54         0.3860   52.1180   23.6597 H         1 UNK         0.0000 
     55 H55        -0.8961   48.7339   26.5466 H         1 UNK         0.0000 
     56 H56         0.2854   47.7659   25.7312 H         1 UNK         0.0000 
     57 H57        -3.1778   49.8595   29.3473 H         1 UNK         0.0000 
     58 H58        -4.4833   49.4117   31.3151 H         1 UNK         0.0000 
     59 H59        -6.7442   50.3932   31.5797 H         1 UNK         0.0000 
     60 H60        -7.6774   51.8523   29.8183 H         1 UNK         0.0000 
     61 H61        -6.3660   52.3464   27.8063 H         1 UNK         0.0000 
@<TRIPOS>BOND
     1    1    2 1    
     2    1   41 1    
     3    1   42 1    
     4    1   43 1    
     5    2    3 1    
     6    3    8 ar   
     7    3    4 ar   
     8    4    5 ar   
     9    4   44 1    
    10    5    6 ar   
    11    5   45 1    
    12    6    7 ar   
    13    6   11 1    
    14    7    8 ar   
    15    7   46 1    
    16    8    9 1    
    17    9   10 1    
    18   10   47 1    
    19   10   48 1    
    20   10   49 1    
    21   11   12 1    
    22   11   26 1    
    23   11   13 1    
    24   13   14 1    
    25   13   15 1    
    26   13   33 1    
    27   15   24 1    
    28   15   16 1    
    29   16   21 ar   
    30   16   17 ar   
    31   17   18 ar   
    32   17   50 1    
    33   18   19 ar   
    34   18   51 1    
    35   19   20 ar   
    36   19   32 1    
    37   20   21 ar   
    38   20   52 1    
    39   21   22 1    
    40   22   23 2    
    41   22   53 1    
    42   23   24 1    
    43   23   54 1    
    44   24   25 1    
    45   24   26 1    
    46   26   27 1    
    47   26   29 1    
    48   27   28 3    
    49   29   30 2    
    50   29   31 am   BACKBONE|DICT|INTERRES
    51   31   55 1    
    52   31   56 1    
    53   33   34 2    
    54   33   35 1    
    55   35   40 ar   
    56   35   36 ar   
    57   36   37 ar   
    58   36   57 1    
    59   37   38 ar   
    60   37   58 1    
    61   38   39 ar   
    62   38   59 1    
    63   39   40 ar   
    64   39   60 1    
    65   40   61 1    
@<TRIPOS>SUBSTRUCTURE
     1 UNK         1 GROUP             0       ****    0 ROOT    
