@<TRIPOS>MOLECULE
ZINC09866533_3202
54   58    1
SMALL
USER_CHARGES


@<TRIPOS>ATOM
      1 C1         -2.4767   51.1110   26.7449 C.3       1 UNK         0.0000 
      2 C2         -0.9825   51.0775   26.3200 C.3       1 UNK         0.0000 
      3 C3         -0.8982   51.6250   24.8942 C.2       1 UNK         0.0000 
      4 O4         -1.2045   52.7609   24.5244 O.2       1 UNK         0.0000 
      5 N5         -0.5048   50.5870   24.1247 N.am      1 UNK         0.0000 
      6 C6         -0.2804   49.4370   24.8096 C.2       1 UNK         0.0000 
      7 O7          0.2100   48.3944   24.3835 O.2       1 UNK         0.0000 
      8 N8         -0.5813   49.7162   26.0817 N.am      1 UNK         0.0000 
      9 C9         -0.2809   50.7024   22.6671 C.3       1 UNK         0.0000 
     10 C10         1.1019   51.3118   22.3266 C.2       1 UNK         0.0000 
     11 O11         1.9041   51.6069   23.2104 O.2       1 UNK         0.0000 
     12 N12         1.4198   51.5299   21.0393 N.am      1 UNK         0.0000 
     13 C13         0.6464   51.1836   19.8422 C.3       1 UNK         0.0000 
     14 H14        -0.3946   51.4388   20.0514 H         1 UNK         0.0000 
     15 C15         0.6858   49.6854   19.5104 C.ar      1 UNK         0.0000 
     16 C16         1.8680   49.0760   19.0699 C.ar      1 UNK         0.0000 
     17 C17         1.8723   47.7275   18.7267 C.ar      1 UNK         0.0000 
     18 C18         0.7036   46.9789   18.8463 C.ar      1 UNK         0.0000 
     19 C19        -0.4736   47.5727   19.2890 C.ar      1 UNK         0.0000 
     20 C20        -0.4858   48.9257   19.6128 C.ar      1 UNK         0.0000 
     21 F21         0.7048   45.6659   18.5251 F         1 UNK         0.0000 
     22 C22         1.0987   52.0551   18.6760 C.2       1 UNK         0.0000 
     23 C23         2.3770   52.2564   18.1391 C.2       1 UNK         0.0000 
     24 C24         2.4164   53.1308   17.0483 C.2       1 UNK         0.0000 
     25 C25         1.1685   53.6221   16.7203 C.2       1 UNK         0.0000 
     26 S26        -0.0595   52.9881   17.7610 S.3       1 UNK         0.0000 
     27 C27        -0.0277   51.7518   27.3444 C.ar      1 UNK         0.0000 
     28 C28        -0.3289   51.6974   28.7277 C.ar      1 UNK         0.0000 
     29 C29         0.4778   52.3241   29.6864 C.ar      1 UNK         0.0000 
     30 C30         1.6097   52.9909   29.2369 C.ar      1 UNK         0.0000 
     31 C31         1.9284   53.0467   27.9119 C.ar      1 UNK         0.0000 
     32 C32         1.1360   52.4484   26.9383 C.ar      1 UNK         0.0000 
     33 O33         3.0636   53.7760   27.7529 O.3       1 UNK         0.0000 
     34 C34         3.5500   54.0224   29.0476 C.3       1 UNK         0.0000 
     35 O35         2.5347   53.6805   29.9571 O.3       1 UNK         0.0000 
     36 H36        -2.8087   52.1250   26.9690 H         1 UNK         0.0000 
     37 H37        -3.1423   50.7191   25.9744 H         1 UNK         0.0000 
     38 H38        -2.6609   50.4968   27.6291 H         1 UNK         0.0000 
     39 H39        -0.8690   49.0009   26.7474 H         1 UNK         0.0000 
     40 H40        -1.0578   51.3338   22.2339 H         1 UNK         0.0000 
     41 H41        -0.3682   49.7210   22.1950 H         1 UNK         0.0000 
     42 H42         2.3535   51.8736   20.8677 H         1 UNK         0.0000 
     43 H43         2.7863   49.6368   18.9698 H         1 UNK         0.0000 
     44 H44         2.7839   47.2765   18.3627 H         1 UNK         0.0000 
     45 H45        -1.3761   46.9848   19.3700 H         1 UNK         0.0000 
     46 H46        -1.4091   49.3782   19.9399 H         1 UNK         0.0000 
     47 H47         3.2698   51.7828   18.5228 H         1 UNK         0.0000 
     48 H48         3.3230   53.3902   16.5229 H         1 UNK         0.0000 
     49 H49         0.9117   54.3096   15.9293 H         1 UNK         0.0000 
     50 H50        -1.1920   51.1548   29.0839 H         1 UNK         0.0000 
     51 H51         0.2207   52.2737   30.7355 H         1 UNK         0.0000 
     52 H52         1.4195   52.5245   25.8983 H         1 UNK         0.0000 
     53 H53         3.8173   55.0796   29.1472 H         1 UNK         0.0000 
     54 H54         4.4296   53.3911   29.2280 H         1 UNK         0.0000 
@<TRIPOS>BOND
     1    1    2 1    
     2    1   36 1    
     3    1   37 1    
     4    1   38 1    
     5    2    8 1    
     6    2    3 1    
     7    2   27 1    
     8    3    4 2    
     9    3    5 am   BACKBONE|DICT|INTERRES
    10    5    6 am   BACKBONE|DICT|INTERRES
    11    5    9 1    
    12    6    7 2    
    13    6    8 am   BACKBONE|DICT|INTERRES
    14    8   39 1    
    15    9   10 1    
    16    9   40 1    
    17    9   41 1    
    18   10   11 2    
    19   10   12 am   BACKBONE|DICT|INTERRES
    20   12   13 1    
    21   12   42 1    
    22   13   14 1    
    23   13   15 1    
    24   13   22 1    
    25   15   20 ar   
    26   15   16 ar   
    27   16   17 ar   
    28   16   43 1    
    29   17   18 ar   
    30   17   44 1    
    31   18   19 ar   
    32   18   21 1    
    33   19   20 ar   
    34   19   45 1    
    35   20   46 1    
    36   22   26 1    
    37   22   23 2    
    38   23   24 1    
    39   23   47 1    
    40   24   25 2    
    41   24   48 1    
    42   25   26 1    
    43   25   49 1    
    44   27   32 ar   
    45   27   28 ar   
    46   28   29 ar   
    47   28   50 1    
    48   29   30 ar   
    49   29   51 1    
    50   30   35 1    
    51   30   31 ar   
    52   31   32 ar   
    53   31   33 1    
    54   32   52 1    
    55   33   34 1    
    56   34   35 1    
    57   34   53 1    
    58   34   54 1    
@<TRIPOS>SUBSTRUCTURE
     1 UNK         1 GROUP             0       ****    0 ROOT    
