@<TRIPOS>MOLECULE
ZINC51090836_4698
42   44    1
SMALL
USER_CHARGES


@<TRIPOS>ATOM
      1 C1          5.0218   53.5969   22.4883 C.ar      1 UNK         0.0000 
      2 C2          5.8922   54.5015   23.1143 C.ar      1 UNK         0.0000 
      3 C3          6.6990   55.3073   22.2946 C.ar      1 UNK         0.0000 
      4 C4          6.5255   55.2737   20.9094 C.ar      1 UNK         0.0000 
      5 N5          5.6523   54.4214   20.3114 N.ar      1 UNK         0.0000 
      6 C6          4.9217   53.5823   21.0978 C.ar      1 UNK         0.0000 
      7 N7          4.0816   52.6313   20.5014 N.pl3     1 UNK         0.0000 
      8 N8          3.9044   52.4967   19.0691 N.3       1 UNK         0.0000 
      9 Cl9         7.4665   56.3264   19.9213 Cl        1 UNK         0.0000 
     10 C10         5.9971   54.6257   24.6215 C.2       1 UNK         0.0000 
     11 O11         7.1044   54.8516   25.1058 O.2       1 UNK         0.0000 
     12 N12         4.8969   54.5208   25.4183 N.am      1 UNK         0.0000 
     13 C13         3.5044   54.6651   24.9576 C.3       1 UNK         0.0000 
     14 C14         2.6659   53.4971   25.5231 C.3       1 UNK         0.0000 
     15 C15         2.8272   53.2966   27.0490 C.3       1 UNK         0.0000 
     16 H16         2.4493   52.3031   27.3001 H         1 UNK         0.0000 
     17 C17         2.0683   54.3312   27.9243 C.3       1 UNK         0.0000 
     18 C18         2.2773   54.0855   29.4319 C.3       1 UNK         0.0000 
     19 C19         3.7777   54.0273   29.7921 C.3       1 UNK         0.0000 
     20 C20         4.5277   53.0157   28.9150 C.3       1 UNK         0.0000 
     21 C21         4.3342   53.3064   27.4189 C.3       1 UNK         0.0000 
     22 H22         4.8150   52.4966   26.8845 H         1 UNK         0.0000 
     23 C23         5.0652   54.5489   26.8889 C.3       1 UNK         0.0000 
     24 H24         4.4346   52.9007   23.0686 H         1 UNK         0.0000 
     25 H25         7.4157   55.9915   22.7261 H         1 UNK         0.0000 
     26 H26         3.2667   52.3010   21.0020 H         1 UNK         0.0000 
     27 H27         3.9413   53.4081   18.6326 H         1 UNK         0.0000 
     28 H28         4.6012   51.8478   18.6868 H         1 UNK         0.0000 
     29 H29         3.1414   55.5936   25.3897 H         1 UNK         0.0000 
     30 H30         3.3817   54.7770   23.8817 H         1 UNK         0.0000 
     31 H31         1.6149   53.6481   25.2747 H         1 UNK         0.0000 
     32 H32         2.9452   52.5798   25.0042 H         1 UNK         0.0000 
     33 H33         2.3927   55.3429   27.6817 H         1 UNK         0.0000 
     34 H34         1.0058   54.3171   27.6814 H         1 UNK         0.0000 
     35 H35         1.7957   53.1482   29.7163 H         1 UNK         0.0000 
     36 H36         1.7834   54.8677   30.0101 H         1 UNK         0.0000 
     37 H37         3.9058   53.7460   30.8373 H         1 UNK         0.0000 
     38 H38         4.2250   55.0166   29.6815 H         1 UNK         0.0000 
     39 H39         4.1724   52.0098   29.1430 H         1 UNK         0.0000 
     40 H40         5.5890   53.0248   29.1592 H         1 UNK         0.0000 
     41 H41         6.1091   54.5065   27.2067 H         1 UNK         0.0000 
     42 H42         4.6413   55.4555   27.3109 H         1 UNK         0.0000 
@<TRIPOS>BOND
     1    1    6 ar   
     2    1    2 ar   
     3    1   24 1    
     4    2    3 ar   
     5    2   10 1    
     6    3    4 ar   
     7    3   25 1    
     8    4    5 ar   
     9    4    9 1    
    10    5    6 ar   
    11    6    7 1    
    12    7    8 1    
    13    7   26 1    
    14    8   27 1    
    15    8   28 1    
    16   10   11 2    
    17   10   12 am   BACKBONE|DICT|INTERRES
    18   12   23 1    
    19   12   13 1    
    20   13   14 1    
    21   13   29 1    
    22   13   30 1    
    23   14   15 1    
    24   14   31 1    
    25   14   32 1    
    26   15   16 1    
    27   15   21 1    
    28   15   17 1    
    29   17   18 1    
    30   17   33 1    
    31   17   34 1    
    32   18   19 1    
    33   18   35 1    
    34   18   36 1    
    35   19   20 1    
    36   19   37 1    
    37   19   38 1    
    38   20   21 1    
    39   20   39 1    
    40   20   40 1    
    41   21   22 1    
    42   21   23 1    
    43   23   41 1    
    44   23   42 1    
@<TRIPOS>SUBSTRUCTURE
     1 UNK         1 GROUP             0       ****    0 ROOT    
