@<TRIPOS>MOLECULE
ZINC12485521_3155
66   69    1
SMALL
USER_CHARGES


@<TRIPOS>ATOM
      1 C1          0.1901   53.5036   29.9645 C.3       1 UNK         0.0000 
      2 C2          0.3288   52.7864   28.6314 C.ar      1 UNK         0.0000 
      3 C3         -0.4948   51.6973   28.3383 C.ar      1 UNK         0.0000 
      4 C4         -0.3374   51.0132   27.1362 C.ar      1 UNK         0.0000 
      5 C5          0.6483   51.4015   26.2243 C.ar      1 UNK         0.0000 
      6 C6          1.4701   52.4954   26.5247 C.ar      1 UNK         0.0000 
      7 C7          1.3076   53.1866   27.7215 C.ar      1 UNK         0.0000 
      8 C8          0.8929   50.5763   24.9534 C.3       1 UNK         0.0000 
      9 N9         -0.2405   50.5248   23.9850 N.am      1 UNK         0.0000 
     10 C10        -0.4051   51.7748   23.1257 C.3       1 UNK         0.0000 
     11 H11        -0.9818   52.4498   23.7579 H         1 UNK         0.0000 
     12 C12         0.9463   52.4524   22.8736 C.ar      1 UNK         0.0000 
     13 C13         1.2239   53.6958   23.4455 C.ar      1 UNK         0.0000 
     14 C14         2.4785   54.2798   23.2793 C.ar      1 UNK         0.0000 
     15 C15         3.4470   53.6429   22.5031 C.ar      1 UNK         0.0000 
     16 C16         3.1688   52.4158   21.9035 C.ar      1 UNK         0.0000 
     17 C17         1.9321   51.8149   22.1042 C.ar      1 UNK         0.0000 
     18 C18         4.8206   54.2649   22.3363 C.3       1 UNK         0.0000 
     19 C19        -1.2672   51.6967   21.8132 C.2       1 UNK         0.0000 
     20 O20        -2.4942   51.6611   21.8951 O.2       1 UNK         0.0000 
     21 N21        -0.6507   51.8466   20.6275 N.am      1 UNK         0.0000 
     22 C22        -1.2725   51.7091   19.3134 C.3       1 UNK         0.0000 
     23 C23        -0.4407   50.8199   18.4125 C.2       1 UNK         0.0000 
     24 C24         0.8094   50.2156   18.5100 C.2       1 UNK         0.0000 
     25 C25         1.0258   49.5224   17.3179 C.2       1 UNK         0.0000 
     26 C26        -0.1032   49.7237   16.5428 C.2       1 UNK         0.0000 
     27 O27        -0.9919   50.5070   17.2076 O.3       1 UNK         0.0000 
     28 C28        -1.1774   49.5234   24.1425 C.2       1 UNK         0.0000 
     29 O29        -2.2808   49.5614   23.6034 O.2       1 UNK         0.0000 
     30 C30        -0.8487   48.2195   24.9298 C.3       1 UNK         0.0000 
     31 N31        -2.0090   47.7338   25.6817 N.am      1 UNK         0.0000 
     32 C32        -2.8296   46.7370   25.3264 C.2       1 UNK         0.0000 
     33 O33        -2.7160   46.0983   24.2746 O.2       1 UNK         0.0000 
     34 C34        -3.8739   46.4417   26.2831 C.2       1 UNK         0.0000 
     35 C35        -4.2181   47.1173   27.4641 C.2       1 UNK         0.0000 
     36 C36        -5.3148   46.5542   28.1260 C.2       1 UNK         0.0000 
     37 C37        -5.8244   45.4442   27.4665 C.2       1 UNK         0.0000 
     38 S38        -4.9467   45.0904   26.0171 S.3       1 UNK         0.0000 
     39 H39         1.1558   53.8801   30.3053 H         1 UNK         0.0000 
     40 H40        -0.4939   54.3471   29.8834 H         1 UNK         0.0000 
     41 H41        -0.1713   52.8273   30.7417 H         1 UNK         0.0000 
     42 H42        -1.2468   51.3671   29.0401 H         1 UNK         0.0000 
     43 H43        -0.9684   50.1591   26.9420 H         1 UNK         0.0000 
     44 H44         2.2541   52.7925   25.8471 H         1 UNK         0.0000 
     45 H45         1.9570   54.0189   27.9485 H         1 UNK         0.0000 
     46 H46         1.2460   49.5949   25.2501 H         1 UNK         0.0000 
     47 H47         1.7941   50.9563   24.4798 H         1 UNK         0.0000 
     48 H48         0.4830   54.1956   24.0519 H         1 UNK         0.0000 
     49 H49         2.6956   55.2274   23.7487 H         1 UNK         0.0000 
     50 H50         3.9143   51.9148   21.3043 H         1 UNK         0.0000 
     51 H51         1.7458   50.8390   21.6793 H         1 UNK         0.0000 
     52 H52         5.5781   53.5063   22.1323 H         1 UNK         0.0000 
     53 H53         4.8155   54.9896   21.5210 H         1 UNK         0.0000 
     54 H54         5.1289   54.7715   23.2525 H         1 UNK         0.0000 
     55 H55         0.3470   52.0101   20.6352 H         1 UNK         0.0000 
     56 H56        -1.3439   52.7033   18.8725 H         1 UNK         0.0000 
     57 H57        -2.2870   51.3111   19.3872 H         1 UNK         0.0000 
     58 H58         1.4948   50.2767   19.3412 H         1 UNK         0.0000 
     59 H59         1.9036   48.9501   17.0506 H         1 UNK         0.0000 
     60 H60        -0.3957   49.3958   15.5577 H         1 UNK         0.0000 
     61 H61        -0.5001   47.4626   24.2273 H         1 UNK         0.0000 
     62 H62        -0.0967   48.3097   25.7033 H         1 UNK         0.0000 
     63 H63        -2.0915   48.0939   26.6315 H         1 UNK         0.0000 
     64 H64        -3.7021   47.9897   27.8391 H         1 UNK         0.0000 
     65 H65        -5.7200   46.9441   29.0475 H         1 UNK         0.0000 
     66 H66        -6.6655   44.8268   27.7490 H         1 UNK         0.0000 
@<TRIPOS>BOND
     1    1    2 1    
     2    1   39 1    
     3    1   40 1    
     4    1   41 1    
     5    2    7 ar   
     6    2    3 ar   
     7    3    4 ar   
     8    3   42 1    
     9    4    5 ar   
    10    4   43 1    
    11    5    6 ar   
    12    5    8 1    
    13    6    7 ar   
    14    6   44 1    
    15    7   45 1    
    16    8    9 1    
    17    8   46 1    
    18    8   47 1    
    19    9   10 1    
    20    9   28 am   BACKBONE|DICT|INTERRES
    21   10   11 1    
    22   10   12 1    
    23   10   19 1    
    24   12   17 ar   
    25   12   13 ar   
    26   13   14 ar   
    27   13   48 1    
    28   14   15 ar   
    29   14   49 1    
    30   15   16 ar   
    31   15   18 1    
    32   16   17 ar   
    33   16   50 1    
    34   17   51 1    
    35   18   52 1    
    36   18   53 1    
    37   18   54 1    
    38   19   20 2    
    39   19   21 am   BACKBONE|DICT|INTERRES
    40   21   22 1    
    41   21   55 1    
    42   22   23 1    
    43   22   56 1    
    44   22   57 1    
    45   23   27 1    
    46   23   24 2    
    47   24   25 1    
    48   24   58 1    
    49   25   26 2    
    50   25   59 1    
    51   26   27 1    
    52   26   60 1    
    53   28   29 2    
    54   28   30 1    
    55   30   31 1    
    56   30   61 1    
    57   30   62 1    
    58   31   32 am   BACKBONE|DICT|INTERRES
    59   31   63 1    
    60   32   33 2    
    61   32   34 1    
    62   34   38 1    
    63   34   35 2    
    64   35   36 1    
    65   35   64 1    
    66   36   37 2    
    67   36   65 1    
    68   37   38 1    
    69   37   66 1    
@<TRIPOS>SUBSTRUCTURE
     1 UNK         1 GROUP             0       ****    0 ROOT    
