@<TRIPOS>MOLECULE
ZINC40115549_2988
56   59    1
SMALL
USER_CHARGES


@<TRIPOS>ATOM
      1 C1          0.0299   53.8728   15.7162 C.3       1 UNK         0.0000 
      2 C2         -0.2151   54.3232   17.1628 C.3       1 UNK         0.0000 
      3 O3         -0.1500   53.2432   18.0870 O.3       1 UNK         0.0000 
      4 C4          1.1494   52.6992   18.3006 C.3       1 UNK         0.0000 
      5 C5          1.0951   51.7671   19.5217 C.3       1 UNK         0.0000 
      6 C6          2.4276   51.0568   19.8397 C.3       1 UNK         0.0000 
      7 N7          3.5314   51.9817   20.0968 N.am      1 UNK         0.0000 
      8 C8          3.7051   52.6994   21.2219 C.2       1 UNK         0.0000 
      9 O9          2.9640   52.5899   22.2031 O.2       1 UNK         0.0000 
     10 C10         4.8341   53.6207   21.2182 C.2       1 UNK         0.0000 
     11 C11         5.4949   54.0986   20.0561 C.2       1 UNK         0.0000 
     12 C12         6.4922   55.0103   20.3152 C.2       1 UNK         0.0000 
     13 S13         6.7094   55.3015   21.9939 S.3       1 UNK         0.0000 
     14 C14         5.3635   54.2473   22.3766 C.2       1 UNK         0.0000 
     15 N15         4.8962   54.0898   23.6826 N.am      1 UNK         0.0000 
     16 C16         5.4432   54.4979   24.8517 C.2       1 UNK         0.0000 
     17 O17         6.5055   55.1144   24.9734 O.2       1 UNK         0.0000 
     18 C18         4.6700   54.1199   26.0186 C.2       1 UNK         0.0000 
     19 C19         5.0320   54.0863   27.3766 C.2       1 UNK         0.0000 
     20 C20         3.8757   53.5916   28.0659 C.ar      1 UNK         0.0000 
     21 C21         3.5524   53.2833   29.3998 C.ar      1 UNK         0.0000 
     22 C22         2.2699   52.8118   29.6926 C.ar      1 UNK         0.0000 
     23 C23         1.3105   52.6439   28.6911 C.ar      1 UNK         0.0000 
     24 C24         1.6011   52.9336   27.3565 C.ar      1 UNK         0.0000 
     25 C25         2.8889   53.4023   27.0757 C.ar      1 UNK         0.0000 
     26 O26         3.3703   53.7208   25.8415 O.3       1 UNK         0.0000 
     27 Br27       -0.4237   52.0060   29.1532 Br        1 UNK         0.0000 
     28 C28         6.3552   54.4468   28.0101 C.3       1 UNK         0.0000 
     29 C29         7.1847   55.5102   19.0783 C.3       1 UNK         0.0000 
     30 C30         6.6691   54.5205   18.0257 C.3       1 UNK         0.0000 
     31 C31         5.3560   53.9263   18.5572 C.3       1 UNK         0.0000 
     32 H32        -0.1183   54.7012   15.0226 H         1 UNK         0.0000 
     33 H33        -0.6561   53.0737   15.4344 H         1 UNK         0.0000 
     34 H34         1.0477   53.5091   15.5741 H         1 UNK         0.0000 
     35 H35         0.4746   55.1201   17.4500 H         1 UNK         0.0000 
     36 H36        -1.2160   54.7523   17.2362 H         1 UNK         0.0000 
     37 H37         1.4735   52.1462   17.4190 H         1 UNK         0.0000 
     38 H38         1.8725   53.4978   18.4812 H         1 UNK         0.0000 
     39 H39         0.7740   52.3390   20.3937 H         1 UNK         0.0000 
     40 H40         0.3244   51.0128   19.3607 H         1 UNK         0.0000 
     41 H41         2.3112   50.3549   20.6678 H         1 UNK         0.0000 
     42 H42         2.7302   50.4670   18.9723 H         1 UNK         0.0000 
     43 H43         4.2654   51.9822   19.3994 H         1 UNK         0.0000 
     44 H44         4.0509   53.5371   23.7595 H         1 UNK         0.0000 
     45 H45         4.2926   53.4045   30.1765 H         1 UNK         0.0000 
     46 H46         2.0037   52.5678   30.7126 H         1 UNK         0.0000 
     47 H47         0.8679   52.7953   26.5744 H         1 UNK         0.0000 
     48 H48         6.3024   54.4960   29.0976 H         1 UNK         0.0000 
     49 H49         7.1304   53.7209   27.7602 H         1 UNK         0.0000 
     50 H50         6.7044   55.4231   27.6781 H         1 UNK         0.0000 
     51 H51         6.9064   56.5378   18.8360 H         1 UNK         0.0000 
     52 H52         8.2722   55.4680   19.1476 H         1 UNK         0.0000 
     53 H53         6.5397   54.9867   17.0462 H         1 UNK         0.0000 
     54 H54         7.3999   53.7181   17.8992 H         1 UNK         0.0000 
     55 H55         5.2500   52.8911   18.2317 H         1 UNK         0.0000 
     56 H56         4.5003   54.4831   18.1731 H         1 UNK         0.0000 
@<TRIPOS>BOND
     1    1    2 1    
     2    1   32 1    
     3    1   33 1    
     4    1   34 1    
     5    2    3 1    
     6    2   35 1    
     7    2   36 1    
     8    3    4 1    
     9    4    5 1    
    10    4   37 1    
    11    4   38 1    
    12    5    6 1    
    13    5   39 1    
    14    5   40 1    
    15    6    7 1    
    16    6   41 1    
    17    6   42 1    
    18    7    8 am   BACKBONE|DICT|INTERRES
    19    7   43 1    
    20    8    9 2    
    21    8   10 1    
    22   10   14 2    
    23   10   11 1    
    24   11   31 1    
    25   11   12 2    
    26   12   13 1    
    27   12   29 1    
    28   13   14 1    
    29   14   15 am   BACKBONE|DICT|INTERRES
    30   15   16 am   BACKBONE|DICT|INTERRES
    31   15   44 1    
    32   16   17 2    
    33   16   18 1    
    34   18   26 1    
    35   18   19 2    
    36   19   20 1    
    37   19   28 1    
    38   20   25 ar   
    39   20   21 ar   
    40   21   22 ar   
    41   21   45 1    
    42   22   23 ar   
    43   22   46 1    
    44   23   24 ar   
    45   23   27 1    
    46   24   25 ar   
    47   24   47 1    
    48   25   26 1    
    49   28   48 1    
    50   28   49 1    
    51   28   50 1    
    52   29   30 1    
    53   29   51 1    
    54   29   52 1    
    55   30   31 1    
    56   30   53 1    
    57   30   54 1    
    58   31   55 1    
    59   31   56 1    
@<TRIPOS>SUBSTRUCTURE
     1 UNK         1 GROUP             0       ****    0 ROOT    
