@<TRIPOS>MOLECULE
ZINC33599952_976
47   51    1
SMALL
USER_CHARGES


@<TRIPOS>ATOM
      1 C1          7.7161   56.9801   16.0964 C.3       1 UNK         0.0000 
      2 C2          6.9479   56.3526   17.2489 C.ar      1 UNK         0.0000 
      3 C3          5.6959   55.7781   17.0094 C.ar      1 UNK         0.0000 
      4 C4          4.9502   55.1983   18.0375 C.ar      1 UNK         0.0000 
      5 C5          5.4798   55.2153   19.3328 C.ar      1 UNK         0.0000 
      6 C6          6.7429   55.8141   19.5769 C.ar      1 UNK         0.0000 
      7 C7          7.4902   56.3827   18.5369 C.ar      1 UNK         0.0000 
      8 S8          7.1066   55.6953   21.2856 S.3       1 UNK         0.0000 
      9 C9          5.5649   54.8590   21.5145 C.2       1 UNK         0.0000 
     10 N10         4.8596   54.7016   20.4264 N.2       1 UNK         0.0000 
     11 N11         5.1123   54.4520   22.7832 N.am      1 UNK         0.0000 
     12 C12         3.7015   54.1054   23.0602 C.3       1 UNK         0.0000 
     13 H13         3.1094   54.9747   22.7646 H         1 UNK         0.0000 
     14 C14         3.6679   53.9591   24.5762 C.2       1 UNK         0.0000 
     15 C15         2.4142   53.6962   25.3404 C.2       1 UNK         0.0000 
     16 C16         2.3751   53.5568   26.8369 C.ar      1 UNK         0.0000 
     17 C17         2.9881   54.4924   27.6778 C.ar      1 UNK         0.0000 
     18 C18         2.8443   54.3789   29.0596 C.ar      1 UNK         0.0000 
     19 N19         2.1104   53.4004   29.6436 N.ar      1 UNK         0.0000 
     20 C20         1.4858   52.5141   28.8271 C.ar      1 UNK         0.0000 
     21 C21         1.5825   52.5630   27.4347 C.ar      1 UNK         0.0000 
     22 O22         1.3695   53.4893   24.7270 O.2       1 UNK         0.0000 
     23 C23         4.9412   54.0970   24.9910 C.2       1 UNK         0.0000 
     24 O24         5.4491   54.0217   26.1729 O.co2     1 UNK         0.0000 
     25 C25         5.8735   54.3270   23.9037 C.2       1 UNK         0.0000 
     26 O26         7.1039   54.3975   23.9740 O.2       1 UNK         0.0000 
     27 C27         3.1277   52.9272   22.2321 C.ar      1 UNK         0.0000 
     28 C28         1.7590   52.8969   21.9388 C.ar      1 UNK         0.0000 
     29 C29         1.2105   51.8758   21.1696 C.ar      1 UNK         0.0000 
     30 C30         2.0390   50.8921   20.6484 C.ar      1 UNK         0.0000 
     31 C31         3.4103   50.9342   20.8808 C.ar      1 UNK         0.0000 
     32 C32         3.9518   51.9381   21.6813 C.ar      1 UNK         0.0000 
     33 Br33        1.2995   49.4864   19.6024 Br        1 UNK         0.0000 
     34 H34         8.3364   56.2313   15.5999 H         1 UNK         0.0000 
     35 H35         7.0304   57.4123   15.3608 H         1 UNK         0.0000 
     36 H36         8.3551   57.7943   16.4414 H         1 UNK         0.0000 
     37 H37         5.2924   55.7770   16.0075 H         1 UNK         0.0000 
     38 H38         3.9875   54.7494   17.8407 H         1 UNK         0.0000 
     39 H39         8.4574   56.8277   18.7245 H         1 UNK         0.0000 
     40 H40         3.5766   55.2963   27.2721 H         1 UNK         0.0000 
     41 H41         3.3272   55.0878   29.7128 H         1 UNK         0.0000 
     42 H42         0.8845   51.7583   29.3095 H         1 UNK         0.0000 
     43 H43         1.0474   51.8390   26.8352 H         1 UNK         0.0000 
     44 H44         1.1096   53.6796   22.2988 H         1 UNK         0.0000 
     45 H45         0.1511   51.8588   20.9632 H         1 UNK         0.0000 
     46 H46         4.0408   50.1910   20.4275 H         1 UNK         0.0000 
     47 H47         5.0177   51.9479   21.8616 H         1 UNK         0.0000 
@<TRIPOS>BOND
     1    1    2 1    
     2    1   34 1    
     3    1   35 1    
     4    1   36 1    
     5    2    7 ar   
     6    2    3 ar   
     7    3    4 ar   
     8    3   37 1    
     9    4    5 ar   
    10    4   38 1    
    11    5   10 1    
    12    5    6 ar   
    13    6    7 ar   
    14    6    8 1    
    15    7   39 1    
    16    8    9 1    
    17    9   10 2    
    18    9   11 am   BACKBONE|DICT|INTERRES
    19   11   25 am   BACKBONE|DICT|INTERRES
    20   11   12 1    
    21   12   14 1    
    22   12   27 1    
    23   12   13 1    
    24   14   23 2    
    25   14   15 1    
    26   15   22 2    
    27   15   16 1    
    28   16   21 ar   
    29   16   17 ar   
    30   17   18 ar   
    31   17   40 1    
    32   18   19 ar   
    33   18   41 1    
    34   19   20 ar   
    35   20   21 ar   
    36   20   42 1    
    37   21   43 1    
    38   23   25 1    
    39   23   24 1    
    40   25   26 2    
    41   27   32 ar   
    42   27   28 ar   
    43   28   29 ar   
    44   28   44 1    
    45   29   30 ar   
    46   29   45 1    
    47   30   31 ar   
    48   30   33 1    
    49   31   32 ar   
    50   31   46 1    
    51   32   47 1    
@<TRIPOS>SUBSTRUCTURE
     1 UNK         1 GROUP             0       ****    0 ROOT    
