@<TRIPOS>MOLECULE
ZINC09332305_2299
55   58    1
SMALL
USER_CHARGES


@<TRIPOS>ATOM
      1 C1         -4.1506   46.6160   24.8721 C.3       1 UNK         0.0000 
      2 C2         -2.7326   46.0976   25.1469 C.3       1 UNK         0.0000 
      3 N3         -1.8516   47.1224   25.6822 N.am      1 UNK         0.0000 
      4 C4         -1.2086   48.0420   24.9556 C.2       1 UNK         0.0000 
      5 O5         -0.9027   47.8805   23.7712 O.2       1 UNK         0.0000 
      6 N6         -1.0726   49.1657   25.6809 N.am      1 UNK         0.0000 
      7 C7         -1.0597   50.4199   25.1829 C.2       1 UNK         0.0000 
      8 O8         -0.6701   50.7290   24.0523 O.2       1 UNK         0.0000 
      9 C9         -1.6010   51.5003   26.1358 C.3       1 UNK         0.0000 
     10 H10        -2.4801   51.0506   26.5998 H         1 UNK         0.0000 
     11 C11        -2.1518   52.7462   25.4097 C.3       1 UNK         0.0000 
     12 S12        -0.5154   51.8330   27.5703 S.3       1 UNK         0.0000 
     13 C13         0.9868   52.6613   26.9263 C.ar      1 UNK         0.0000 
     14 N14         1.1118   52.7759   25.6504 N.2       1 UNK         0.0000 
     15 C15         2.2641   53.2985   25.1653 C.ar      1 UNK         0.0000 
     16 C16         3.3250   53.7547   25.9371 C.ar      1 UNK         0.0000 
     17 C17         4.4254   54.1718   25.1512 C.2       1 UNK         0.0000 
     18 C18         4.1540   54.0568   23.7755 C.2       1 UNK         0.0000 
     19 S19         2.5499   53.4622   23.4672 S.3       1 UNK         0.0000 
     20 C20         5.1282   54.3959   22.6497 C.3       1 UNK         0.0000 
     21 C21         6.5350   54.6610   23.2374 C.3       1 UNK         0.0000 
     22 C22         6.5106   55.4522   24.5613 C.3       1 UNK         0.0000 
     23 C23         5.7608   54.6988   25.6765 C.3       1 UNK         0.0000 
     24 C24         3.1845   53.7518   27.3959 C.ar      1 UNK         0.0000 
     25 O25         4.0096   54.2143   28.1916 O.2       1 UNK         0.0000 
     26 N26         1.9708   53.1781   27.7910 N.pl3     1 UNK         0.0000 
     27 C27         1.7313   53.1245   29.1932 C.ar      1 UNK         0.0000 
     28 C28         0.6607   53.8463   29.7455 C.ar      1 UNK         0.0000 
     29 C29         0.3075   53.6771   31.0809 C.ar      1 UNK         0.0000 
     30 C30         1.0024   52.7699   31.8720 C.ar      1 UNK         0.0000 
     31 C31         2.1096   52.1000   31.3616 C.ar      1 UNK         0.0000 
     32 C32         2.4827   52.2827   30.0310 C.ar      1 UNK         0.0000 
     33 F33         3.5558   51.6162   29.5586 F         1 UNK         0.0000 
     34 H34        -4.7873   45.8219   24.4812 H         1 UNK         0.0000 
     35 H35        -4.1465   47.4219   24.1375 H         1 UNK         0.0000 
     36 H36        -4.6178   46.9868   25.7831 H         1 UNK         0.0000 
     37 H37        -2.7713   45.2969   25.8834 H         1 UNK         0.0000 
     38 H38        -2.3007   45.6969   24.2289 H         1 UNK         0.0000 
     39 H39        -1.7934   47.1994   26.6928 H         1 UNK         0.0000 
     40 H40        -1.2927   49.0666   26.6686 H         1 UNK         0.0000 
     41 H41        -2.8971   52.4739   24.6616 H         1 UNK         0.0000 
     42 H42        -2.6374   53.4216   26.1135 H         1 UNK         0.0000 
     43 H43        -1.3695   53.2963   24.8917 H         1 UNK         0.0000 
     44 H44         5.1932   53.5723   21.9371 H         1 UNK         0.0000 
     45 H45         4.7897   55.2629   22.0806 H         1 UNK         0.0000 
     46 H46         7.0381   53.7083   23.4091 H         1 UNK         0.0000 
     47 H47         7.1456   55.1888   22.5026 H         1 UNK         0.0000 
     48 H48         7.5295   55.6596   24.8831 H         1 UNK         0.0000 
     49 H49         6.0478   56.4289   24.4241 H         1 UNK         0.0000 
     50 H50         5.6253   55.3602   26.5328 H         1 UNK         0.0000 
     51 H51         6.3649   53.8613   26.0294 H         1 UNK         0.0000 
     52 H52         0.0690   54.4991   29.1219 H         1 UNK         0.0000 
     53 H53        -0.4956   54.2414   31.5138 H         1 UNK         0.0000 
     54 H54         0.7048   52.6146   32.8983 H         1 UNK         0.0000 
     55 H55         2.6720   51.4419   32.0082 H         1 UNK         0.0000 
@<TRIPOS>BOND
     1    1    2 1    
     2    1   34 1    
     3    1   35 1    
     4    1   36 1    
     5    2    3 1    
     6    2   37 1    
     7    2   38 1    
     8    3    4 am   BACKBONE|DICT|INTERRES
     9    3   39 1    
    10    4    5 2    
    11    4    6 am   BACKBONE|DICT|INTERRES
    12    6    7 am   BACKBONE|DICT|INTERRES
    13    6   40 1    
    14    7    8 2    
    15    7    9 1    
    16    9   10 1    
    17    9   11 1    
    18    9   12 1    
    19   11   41 1    
    20   11   42 1    
    21   11   43 1    
    22   12   13 1    
    23   13   26 ar   
    24   13   14 ar   
    25   14   15 ar   
    26   15   19 1    
    27   15   16 ar   
    28   16   17 1    
    29   16   24 ar   
    30   17   23 1    
    31   17   18 2    
    32   18   19 1    
    33   18   20 1    
    34   20   21 1    
    35   20   44 1    
    36   20   45 1    
    37   21   22 1    
    38   21   46 1    
    39   21   47 1    
    40   22   23 1    
    41   22   48 1    
    42   22   49 1    
    43   23   50 1    
    44   23   51 1    
    45   24   25 2    
    46   24   26 ar   
    47   26   27 1    
    48   27   32 ar   
    49   27   28 ar   
    50   28   29 ar   
    51   28   52 1    
    52   29   30 ar   
    53   29   53 1    
    54   30   31 ar   
    55   30   54 1    
    56   31   32 ar   
    57   31   55 1    
    58   32   33 1    
@<TRIPOS>SUBSTRUCTURE
     1 UNK         1 GROUP             0       ****    0 ROOT    
