@<TRIPOS>MOLECULE
ZINC40755833_3947
62   67    1
SMALL
USER_CHARGES


@<TRIPOS>ATOM
      1 C1          1.6980   46.8888   16.9865 C.ar      1 UNK         0.0000 
      2 C2          0.8650   45.7754   17.0441 C.ar      1 UNK         0.0000 
      3 C3         -0.0070   45.6212   18.1192 C.ar      1 UNK         0.0000 
      4 C4         -0.0506   46.5774   19.1372 C.ar      1 UNK         0.0000 
      5 C5          0.7736   47.7219   19.0882 C.ar      1 UNK         0.0000 
      6 C6          1.6517   47.8453   17.9987 C.ar      1 UNK         0.0000 
      7 N7          0.7686   48.6699   20.1147 N.pl3     1 UNK         0.0000 
      8 C8         -0.4967   49.3526   20.4396 C.3       1 UNK         0.0000 
      9 C9         -0.4772   50.3595   21.6154 C.3       1 UNK         0.0000 
     10 N10         0.7094   50.2872   22.4698 N.pl3     1 UNK         0.0000 
     11 C11         1.9474   50.3342   21.6789 C.3       1 UNK         0.0000 
     12 C12         1.9008   49.5919   20.3172 C.3       1 UNK         0.0000 
     13 C13         0.6254   50.6860   23.7974 C.ar      1 UNK         0.0000 
     14 C14         1.1275   51.9007   24.3279 C.ar      1 UNK         0.0000 
     15 C15         0.9589   52.1071   25.7199 C.ar      1 UNK         0.0000 
     16 N16         0.3024   51.1980   26.4903 N.ar      1 UNK         0.0000 
     17 C17        -0.1855   50.0959   25.8779 C.ar      1 UNK         0.0000 
     18 N18        -0.0626   49.8025   24.5671 N.ar      1 UNK         0.0000 
     19 N19         1.4978   53.2663   26.3320 N.pl3     1 UNK         0.0000 
     20 C20         1.7058   53.4740   27.7747 C.3       1 UNK         0.0000 
     21 C21         0.3905   53.4158   28.6177 C.3       1 UNK         0.0000 
     22 C22         0.7177   53.7319   30.1041 C.3       1 UNK         0.0000 
     23 C23         1.3592   55.1362   30.2254 C.3       1 UNK         0.0000 
     24 C24         2.6788   55.1759   29.4130 C.3       1 UNK         0.0000 
     25 C25         2.3155   54.8968   27.9461 C.3       1 UNK         0.0000 
     26 C26         3.6937   54.0966   29.8784 C.3       1 UNK         0.0000 
     27 C27         3.0352   52.7011   29.7981 C.3       1 UNK         0.0000 
     28 C28         1.7219   52.6749   30.6314 C.3       1 UNK         0.0000 
     29 C29         2.7167   52.4252   28.3110 C.3       1 UNK         0.0000 
     30 N30         1.7416   52.8675   23.5101 N.pl3     1 UNK         0.0000 
     31 F31        -0.8944   46.3566   20.1738 F         1 UNK         0.0000 
     32 H32         2.3851   47.0202   16.1622 H         1 UNK         0.0000 
     33 H33         0.8980   45.0338   16.2588 H         1 UNK         0.0000 
     34 H34        -0.6472   44.7532   18.1696 H         1 UNK         0.0000 
     35 H35         2.3045   48.7012   17.9067 H         1 UNK         0.0000 
     36 H36        -1.1253   48.5541   20.8259 H         1 UNK         0.0000 
     37 H37        -0.9829   49.7935   19.5672 H         1 UNK         0.0000 
     38 H38        -1.4199   50.3837   22.1636 H         1 UNK         0.0000 
     39 H39        -0.3790   51.3527   21.1727 H         1 UNK         0.0000 
     40 H40         2.3469   51.3353   21.5227 H         1 UNK         0.0000 
     41 H41         2.6484   49.7637   22.2912 H         1 UNK         0.0000 
     42 H42         1.7051   50.3678   19.5746 H         1 UNK         0.0000 
     43 H43         2.8730   49.1692   20.0582 H         1 UNK         0.0000 
     44 H44        -0.7160   49.3725   26.4842 H         1 UNK         0.0000 
     45 H45         2.2006   53.7071   25.7607 H         1 UNK         0.0000 
     46 H46        -0.0849   52.4369   28.5841 H         1 UNK         0.0000 
     47 H47        -0.3454   54.1170   28.2276 H         1 UNK         0.0000 
     48 H48        -0.2000   53.6947   30.6948 H         1 UNK         0.0000 
     49 H49         0.6952   55.9093   29.8480 H         1 UNK         0.0000 
     50 H50         1.5042   55.4000   31.2741 H         1 UNK         0.0000 
     51 H51         3.1091   56.1742   29.4933 H         1 UNK         0.0000 
     52 H52         1.5842   55.6583   27.6817 H         1 UNK         0.0000 
     53 H53         3.1881   55.0391   27.3040 H         1 UNK         0.0000 
     54 H54         4.0591   54.2895   30.8808 H         1 UNK         0.0000 
     55 H55         4.5886   54.1323   29.2524 H         1 UNK         0.0000 
     56 H56         3.7292   51.9465   30.1718 H         1 UNK         0.0000 
     57 H57         1.2567   51.6962   30.5758 H         1 UNK         0.0000 
     58 H58         1.9283   52.8436   31.6882 H         1 UNK         0.0000 
     59 H59         3.6372   52.4843   27.7267 H         1 UNK         0.0000 
     60 H60         2.3333   51.4104   28.2022 H         1 UNK         0.0000 
     61 H61         1.7298   52.7168   22.5107 H         1 UNK         0.0000 
     62 H62         1.9015   53.7974   23.8705 H         1 UNK         0.0000 
@<TRIPOS>BOND
     1    1    6 ar   
     2    1    2 ar   
     3    1   32 1    
     4    2    3 ar   
     5    2   33 1    
     6    3    4 ar   
     7    3   34 1    
     8    4    5 ar   
     9    4   31 1    
    10    5    6 ar   
    11    5    7 1    
    12    6   35 1    
    13    7   12 1    
    14    7    8 1    
    15    8    9 1    
    16    8   36 1    
    17    8   37 1    
    18    9   10 1    
    19    9   38 1    
    20    9   39 1    
    21   10   11 1    
    22   10   13 1    
    23   11   12 1    
    24   11   40 1    
    25   11   41 1    
    26   12   42 1    
    27   12   43 1    
    28   13   18 ar   
    29   13   14 ar   
    30   14   15 ar   
    31   14   30 1    
    32   15   16 ar   
    33   15   19 1    
    34   16   17 ar   
    35   17   18 ar   
    36   17   44 1    
    37   19   20 1    
    38   19   45 1    
    39   20   25 1    
    40   20   29 1    
    41   20   21 1    
    42   21   22 1    
    43   21   46 1    
    44   21   47 1    
    45   22   28 1    
    46   22   23 1    
    47   22   48 1    
    48   23   24 1    
    49   23   49 1    
    50   23   50 1    
    51   24   25 1    
    52   24   26 1    
    53   24   51 1    
    54   25   52 1    
    55   25   53 1    
    56   26   27 1    
    57   26   54 1    
    58   26   55 1    
    59   27   28 1    
    60   27   29 1    
    61   27   56 1    
    62   28   57 1    
    63   28   58 1    
    64   29   59 1    
    65   29   60 1    
    66   30   61 1    
    67   30   62 1    
@<TRIPOS>SUBSTRUCTURE
     1 UNK         1 GROUP             0       ****    0 ROOT    
