@<TRIPOS>MOLECULE
ZINC09317999_3913
47   49    1
SMALL
USER_CHARGES


@<TRIPOS>ATOM
      1 C1          7.0623   55.5077   18.2781 C.3       1 UNK         0.0000 
      2 C2          6.6639   55.2357   19.7168 C.ar      1 UNK         0.0000 
      3 C3          7.4654   55.6968   20.7616 C.ar      1 UNK         0.0000 
      4 C4          7.1048   55.4375   22.0811 C.ar      1 UNK         0.0000 
      5 C5          5.9593   54.6851   22.3610 C.ar      1 UNK         0.0000 
      6 C6          5.1636   54.2192   21.3106 C.ar      1 UNK         0.0000 
      7 C7          5.5122   54.4965   19.9916 C.ar      1 UNK         0.0000 
      8 N8          5.5046   54.3784   23.6521 N.am      1 UNK         0.0000 
      9 C9          5.9365   54.7602   24.8740 C.2       1 UNK         0.0000 
     10 O10         7.0045   55.3269   25.0930 O.2       1 UNK         0.0000 
     11 N11         5.1292   54.4594   25.9178 N.am      1 UNK         0.0000 
     12 C12         3.8013   54.0213   25.9469 C.2       1 UNK         0.0000 
     13 N13         3.2338   53.6962   27.0843 N.2       1 UNK         0.0000 
     14 C14         1.9747   53.2945   26.9502 C.2       1 UNK         0.0000 
     15 C15         1.5045   53.3471   25.6296 C.2       1 UNK         0.0000 
     16 S16         2.7389   53.9016   24.5632 S.3       1 UNK         0.0000 
     17 C17         1.2195   52.9931   28.1690 C.2       1 UNK         0.0000 
     18 O18         1.5992   53.4164   29.2623 O.2       1 UNK         0.0000 
     19 N19         0.0650   52.2863   28.1083 N.am      1 UNK         0.0000 
     20 C20        -0.4947   51.6242   27.0115 C.ar      1 UNK         0.0000 
     21 C21         0.1360   50.5090   26.4518 C.ar      1 UNK         0.0000 
     22 C22        -0.4119   49.8882   25.3274 C.ar      1 UNK         0.0000 
     23 C23        -1.5981   50.3762   24.7719 C.ar      1 UNK         0.0000 
     24 C24        -2.2410   51.4805   25.3381 C.ar      1 UNK         0.0000 
     25 C25        -1.6914   52.0966   26.4645 C.ar      1 UNK         0.0000 
     26 C26        -3.5310   52.0108   24.7397 C.3       1 UNK         0.0000 
     27 C27         0.3025   48.7104   24.6993 C.3       1 UNK         0.0000 
     28 H28         8.1423   55.6258   18.1829 H         1 UNK         0.0000 
     29 H29         6.7832   54.6717   17.6354 H         1 UNK         0.0000 
     30 H30         6.5727   56.4085   17.9074 H         1 UNK         0.0000 
     31 H31         8.3705   56.2498   20.5543 H         1 UNK         0.0000 
     32 H32         7.7361   55.8227   22.8652 H         1 UNK         0.0000 
     33 H33         4.2675   53.6466   21.5043 H         1 UNK         0.0000 
     34 H34         4.8907   54.1305   19.1864 H         1 UNK         0.0000 
     35 H35         4.6592   53.8292   23.6611 H         1 UNK         0.0000 
     36 H36         5.5469   54.5976   26.8258 H         1 UNK         0.0000 
     37 H37         0.5227   53.1425   25.2318 H         1 UNK         0.0000 
     38 H38        -0.4512   52.2063   28.9718 H         1 UNK         0.0000 
     39 H39         1.0527   50.1318   26.8814 H         1 UNK         0.0000 
     40 H40        -2.0191   49.8960   23.9005 H         1 UNK         0.0000 
     41 H41        -2.1801   52.9630   26.8817 H         1 UNK         0.0000 
     42 H42        -4.2630   52.1932   25.5273 H         1 UNK         0.0000 
     43 H43        -3.9789   51.3018   24.0418 H         1 UNK         0.0000 
     44 H44        -3.3525   52.9559   24.2260 H         1 UNK         0.0000 
     45 H45         1.3739   48.9060   24.6903 H         1 UNK         0.0000 
     46 H46         0.1237   47.8031   25.2758 H         1 UNK         0.0000 
     47 H47        -0.0014   48.5501   23.6643 H         1 UNK         0.0000 
@<TRIPOS>BOND
     1    1    2 1    
     2    1   28 1    
     3    1   29 1    
     4    1   30 1    
     5    2    7 ar   
     6    2    3 ar   
     7    3    4 ar   
     8    3   31 1    
     9    4    5 ar   
    10    4   32 1    
    11    5    6 ar   
    12    5    8 1    
    13    6    7 ar   
    14    6   33 1    
    15    7   34 1    
    16    8    9 am   BACKBONE|DICT|INTERRES
    17    8   35 1    
    18    9   10 2    
    19    9   11 am   BACKBONE|DICT|INTERRES
    20   11   12 am   BACKBONE|DICT|INTERRES
    21   11   36 1    
    22   12   16 1    
    23   12   13 2    
    24   13   14 1    
    25   14   15 2    
    26   14   17 1    
    27   15   16 1    
    28   15   37 1    
    29   17   18 2    
    30   17   19 am   BACKBONE|DICT|INTERRES
    31   19   20 1    
    32   19   38 1    
    33   20   25 ar   
    34   20   21 ar   
    35   21   22 ar   
    36   21   39 1    
    37   22   23 ar   
    38   22   27 1    
    39   23   24 ar   
    40   23   40 1    
    41   24   25 ar   
    42   24   26 1    
    43   25   41 1    
    44   26   42 1    
    45   26   43 1    
    46   26   44 1    
    47   27   45 1    
    48   27   46 1    
    49   27   47 1    
@<TRIPOS>SUBSTRUCTURE
     1 UNK         1 GROUP             0       ****    0 ROOT    
