@<TRIPOS>MOLECULE
ZINC00627372_2588
52   55    1
SMALL
USER_CHARGES


@<TRIPOS>ATOM
      1 C1          2.0319   49.4412   19.7889 C.ar      1 UNK         0.0000 
      2 C2          1.1779   49.2127   20.8592 C.ar      1 UNK         0.0000 
      3 C3          1.0779   50.1363   21.8957 C.ar      1 UNK         0.0000 
      4 C4          1.8397   51.3413   21.8769 C.ar      1 UNK         0.0000 
      5 C5          2.7338   51.5555   20.7792 C.ar      1 UNK         0.0000 
      6 C6          2.8039   50.5962   19.7410 C.ar      1 UNK         0.0000 
      7 C7          3.5402   52.7191   20.7498 C.ar      1 UNK         0.0000 
      8 C8          3.4536   53.6614   21.7675 C.ar      1 UNK         0.0000 
      9 C9          2.5678   53.4780   22.8221 C.ar      1 UNK         0.0000 
     10 C10         1.7636   52.3401   22.9023 C.ar      1 UNK         0.0000 
     11 N11         0.9758   52.1708   24.0493 N.am      1 UNK         0.0000 
     12 C12        -0.3675   52.2889   24.0939 C.2       1 UNK         0.0000 
     13 O13        -1.0567   52.4968   23.0925 O.2       1 UNK         0.0000 
     14 C14        -1.0245   52.0239   25.4403 C.ar      1 UNK         0.0000 
     15 C15        -2.3351   51.5161   25.4324 C.ar      1 UNK         0.0000 
     16 C16        -2.9854   51.1577   26.6096 C.ar      1 UNK         0.0000 
     17 C17        -2.3360   51.2966   27.8301 C.ar      1 UNK         0.0000 
     18 C18        -1.0478   51.8165   27.8745 C.ar      1 UNK         0.0000 
     19 C19        -0.3899   52.2105   26.6987 C.ar      1 UNK         0.0000 
     20 N20         0.8380   52.8928   26.8189 N.am      1 UNK         0.0000 
     21 C21         1.8996   52.5050   27.5560 C.2       1 UNK         0.0000 
     22 O22         1.9044   51.4495   28.1893 O.2       1 UNK         0.0000 
     23 C23         3.1037   53.5002   27.6126 C.3       1 UNK         0.0000 
     24 H24         2.6751   54.4280   27.9963 H         1 UNK         0.0000 
     25 C25         3.5134   53.8661   26.1517 C.3       1 UNK         0.0000 
     26 C26         4.9122   54.4570   26.0488 C.2       1 UNK         0.0000 
     27 C27         5.7728   54.5636   27.0757 C.2       1 UNK         0.0000 
     28 C28         5.4894   54.0658   28.4817 C.3       1 UNK         0.0000 
     29 C29         4.3218   53.0390   28.4901 C.3       1 UNK         0.0000 
     30 H30         4.6822   52.0973   28.0918 H         1 UNK         0.0000 
     31 C31         3.8952   52.8059   29.9560 C.2       1 UNK         0.0000 
     32 O32         4.3041   51.7777   30.5383 O.co2     1 UNK         0.0000 
     33 H33         2.1093   48.7172   18.9888 H         1 UNK         0.0000 
     34 H34         0.5838   48.3119   20.8833 H         1 UNK         0.0000 
     35 H35         0.4086   49.9352   22.7183 H         1 UNK         0.0000 
     36 H36         3.4885   50.7592   18.9172 H         1 UNK         0.0000 
     37 H37         4.2181   52.8738   19.9226 H         1 UNK         0.0000 
     38 H38         4.0625   54.5523   21.7275 H         1 UNK         0.0000 
     39 H39         2.5052   54.2452   23.5743 H         1 UNK         0.0000 
     40 H40         1.4538   52.1302   24.9353 H         1 UNK         0.0000 
     41 H41        -2.8602   51.3605   24.5000 H         1 UNK         0.0000 
     42 H42        -3.9830   50.7464   26.5756 H         1 UNK         0.0000 
     43 H43        -2.8251   50.9905   28.7440 H         1 UNK         0.0000 
     44 H44        -0.5751   51.9360   28.8397 H         1 UNK         0.0000 
     45 H45         0.9376   53.7290   26.2646 H         1 UNK         0.0000 
     46 H46         2.7649   54.4962   25.6785 H         1 UNK         0.0000 
     47 H47         3.5809   52.9564   25.5528 H         1 UNK         0.0000 
     48 H48         5.2343   54.8360   25.0896 H         1 UNK         0.0000 
     49 H49         6.7274   55.0304   26.8837 H         1 UNK         0.0000 
     50 H50         6.3920   53.5997   28.8820 H         1 UNK         0.0000 
     51 H51         5.2859   54.9299   29.1174 H         1 UNK         0.0000 
     52 O52         3.1939   53.6968   30.4809 O.co2     1 UNK         0.0000 
@<TRIPOS>BOND
     1    1    6 ar   
     2    1    2 ar   
     3    1   33 1    
     4    2    3 ar   
     5    2   34 1    
     6    3    4 ar   
     7    3   35 1    
     8    4   10 ar   
     9    4    5 ar   
    10    5    6 ar   
    11    5    7 ar   
    12    6   36 1    
    13    7    8 ar   
    14    7   37 1    
    15    8    9 ar   
    16    8   38 1    
    17    9   10 ar   
    18    9   39 1    
    19   10   11 1    
    20   11   12 am   BACKBONE|DICT|INTERRES
    21   11   40 1    
    22   12   13 2    
    23   12   14 1    
    24   14   19 ar   
    25   14   15 ar   
    26   15   16 ar   
    27   15   41 1    
    28   16   17 ar   
    29   16   42 1    
    30   17   18 ar   
    31   17   43 1    
    32   18   19 ar   
    33   18   44 1    
    34   19   20 1    
    35   20   21 am   BACKBONE|DICT|INTERRES
    36   20   45 1    
    37   21   22 2    
    38   21   23 1    
    39   23   24 1    
    40   23   29 1    
    41   23   25 1    
    42   25   26 1    
    43   25   46 1    
    44   25   47 1    
    45   26   27 2    
    46   26   48 1    
    47   27   28 1    
    48   27   49 1    
    49   28   29 1    
    50   28   50 1    
    51   28   51 1    
    52   29   30 1    
    53   29   31 1    
    54   31   32 2    
    55   31   52 1    
@<TRIPOS>SUBSTRUCTURE
     1 UNK         1 GROUP             0       ****    0 ROOT    
