ZINC02995015_3404
                    3D
 Schrodinger Suite 2024-2.
 53 55  0  0  1  0            999 V2000
    6.9065   57.5844   14.2455 C   0  0  0  0  0  0
    7.5689   58.4217   15.3550 C   0  0  0  0  0  0
    7.0324   59.8668   15.3615 C   0  0  0  0  0  0
    7.4439   57.7391   16.7205 C   0  0  0  0  0  0
    6.1951   57.6178   17.3356 C   0  0  0  0  0  0
    6.0744   56.9617   18.5566 C   0  0  0  0  0  0
    7.2051   56.4183   19.1883 C   0  0  0  0  0  0
    8.4581   56.5592   18.5755 C   0  0  0  0  0  0
    8.5753   57.2132   17.3509 C   0  0  0  0  0  0
    7.0963   55.7005   20.5159 C   0  0  0  0  0  0
    8.0604   55.6951   21.2815 O   0  0  0  0  0  0
    5.9048   55.0896   20.7361 N   0  0  0  0  0  0
    5.3755   54.4072   21.8035 C   0  0  0  0  0  0
    6.1372   54.1023   23.2816 S   0  0  0  0  0  0
    4.1171   53.9726   21.4811 N   0  0  0  0  0  0
    3.1361   53.2976   22.2233 C   0  0  0  0  0  0
    2.4473   52.2607   21.5916 C   0  0  0  0  0  0
    1.4636   51.5532   22.2790 C   0  0  0  0  0  0
    1.1657   51.8750   23.6016 C   0  0  0  0  0  0
    1.8443   52.9126   24.2462 C   0  0  0  0  0  0
    2.8038   53.6498   23.5375 C   0  0  0  0  0  0
    1.5097   53.1527   25.5871 N   0  0  0  0  0  0
    2.2788   53.6962   26.5557 C   0  0  0  0  0  0
    3.4088   54.1533   26.3877 O   0  0  0  0  0  0
    1.6459   53.7548   27.9237 C   0  0  0  0  0  0
    1.7802   54.9400   28.6652 C   0  0  0  0  0  0
    1.2402   55.0484   29.9434 C   0  0  0  0  0  0
    0.5655   53.9686   30.5026 C   0  0  0  0  0  0
    0.4368   52.7776   29.7940 C   0  0  0  0  0  0
    0.9830   52.6544   28.5150 C   0  0  0  0  0  0
    0.8337   51.1118   27.7388 Cl  0  0  0  0  0  0
   -0.0956   54.0963   32.0854 Cl  0  0  0  0  0  0
    7.3127   56.5723   14.2166 H   0  0  0  0  0  0
    7.0700   58.0288   13.2619 H   0  0  0  0  0  0
    5.8288   57.5039   14.3926 H   0  0  0  0  0  0
    8.6298   58.4887   15.1105 H   0  0  0  0  0  0
    7.5370   60.4746   16.1106 H   0  0  0  0  0  0
    7.1862   60.3518   14.3970 H   0  0  0  0  0  0
    5.9640   59.9081   15.5765 H   0  0  0  0  0  0
    5.3125   58.0250   16.8653 H   0  0  0  0  0  0
    5.0927   56.8963   19.0016 H   0  0  0  0  0  0
    9.3500   56.1600   19.0393 H   0  0  0  0  0  0
    9.5480   57.3005   16.8897 H   0  0  0  0  0  0
    5.2732   55.1833   19.9554 H   0  0  0  0  0  0
    3.8758   54.0433   20.5033 H   0  0  0  0  0  0
    2.6794   51.9934   20.5709 H   0  0  0  0  0  0
    0.9437   50.7446   21.7872 H   0  0  0  0  0  0
    0.4184   51.2983   24.1260 H   0  0  0  0  0  0
    3.2981   54.4920   23.9964 H   0  0  0  0  0  0
    0.6339   52.7594   25.8927 H   0  0  0  0  0  0
    2.3030   55.7901   28.2501 H   0  0  0  0  0  0
    1.3470   55.9687   30.4987 H   0  0  0  0  0  0
   -0.0814   51.9425   30.2442 H   0  0  0  0  0  0
  1  2  1  0  0  0
  1 33  1  0  0  0
  1 34  1  0  0  0
  1 35  1  0  0  0
  2  3  1  0  0  0
  2  4  1  0  0  0
  2 36  1  0  0  0
  3 37  1  0  0  0
  3 38  1  0  0  0
  3 39  1  0  0  0
  4  9  2  0  0  0
  4  5  1  0  0  0
  5  6  2  0  0  0
  5 40  1  0  0  0
  6  7  1  0  0  0
  6 41  1  0  0  0
  7  8  2  0  0  0
  7 10  1  0  0  0
  8  9  1  0  0  0
  8 42  1  0  0  0
  9 43  1  0  0  0
 10 11  2  0  0  0
 10 12  1  0  0  0
 12 13  1  0  0  0
 12 44  1  0  0  0
 13 14  2  0  0  0
 13 15  1  0  0  0
 15 16  1  0  0  0
 15 45  1  0  0  0
 16 21  2  0  0  0
 16 17  1  0  0  0
 17 18  2  0  0  0
 17 46  1  0  0  0
 18 19  1  0  0  0
 18 47  1  0  0  0
 19 20  2  0  0  0
 19 48  1  0  0  0
 20 21  1  0  0  0
 20 22  1  0  0  0
 21 49  1  0  0  0
 22 23  1  0  0  0
 22 50  1  0  0  0
 23 24  2  0  0  0
 23 25  1  0  0  0
 25 30  2  0  0  0
 25 26  1  0  0  0
 26 27  2  0  0  0
 26 51  1  0  0  0
 27 28  1  0  0  0
 27 52  1  0  0  0
 28 29  2  0  0  0
 28 32  1  0  0  0
 29 30  1  0  0  0
 29 53  1  0  0  0
 30 31  1  0  0  0
M  END
> <i_i_glide_confnum>
110

> <i_i_glide_lignum>
3405

> <i_i_glide_posenum>
300

> <i_i_glide_rotatable_bonds>
9

> <i_m_Source_File_Index>
2938

> <b_m_subgroup_collapsed>
0

> <r_i_docking_score>
-5.16389

> <r_i_glide_ecoul>
-1.92533

> <r_i_glide_eff_state_penalty>
0

> <r_i_glide_einternal>
5.90242

> <r_i_glide_emodel>
-63.2238

> <r_i_glide_energy>
-50.263

> <r_i_glide_erotb>
0.687141

> <r_i_glide_esite>
0

> <r_i_glide_evdw>
-48.3376

> <r_i_glide_gscore>
-5.16389

> <r_i_glide_hbond>
0

> <r_i_glide_ligand_efficiency>
-0.161371

> <r_i_glide_ligand_efficiency_ln>
-1.15633

> <r_i_glide_ligand_efficiency_sa>
-0.512322

> <r_i_glide_lipo>
-2.13265

> <r_i_glide_metal>
0

> <r_i_glide_rewards>
-1.0127

> <s_i_glide_gridfile>
wee1_glide-grid

> <s_m_Source_File>
wee1_decoys_glide_SP.sdf

> <s_m_Source_Path>
/Users/zhangxujun/Desktop

> <s_m_entry_id>
3213

> <s_m_entry_name>
wee1_decoys_glide_SP.2938

> <s_m_subgroup_title>
wee1_decoys_glide_SP

> <s_m_subgroupid>
wee1_decoys_glide_SP


$$$$
