ZINC35057795_537
                    3D
 Schrodinger Suite 2024-2.
 56 59  0  0  1  0            999 V2000
   -2.0366   47.7211   25.6819 C   0  0  0  0  0  0
   -0.8879   48.4445   24.9920 C   0  0  0  0  0  0
   -0.1111   47.8037   24.2860 O   0  0  0  0  0  0
   -0.8069   49.7688   25.2064 N   0  0  0  0  0  0
    0.1830   50.7201   24.6731 C   0  0  2  0  0  0
    1.0629   50.5010   25.2807 H   0  0  0  0  0  0
   -0.1244   52.2159   24.9930 C   0  0  1  0  0  0
   -0.0631   52.3533   26.0757 H   0  0  0  0  0  0
    0.9302   53.1838   24.4001 C   0  0  2  0  0  0
    0.5227   54.1951   24.4327 H   0  0  0  0  0  0
    1.3257   52.8350   22.9517 C   0  0  1  0  0  0
    0.5021   53.0525   22.2725 H   0  0  0  0  0  0
    2.5534   53.6745   22.5465 C   0  0  0  0  0  0
    3.5686   53.6813   23.5550 O   0  0  0  0  0  0
    3.0656   54.0585   24.8106 C   0  0  1  0  0  0
    2.6796   55.0745   24.7474 H   0  0  0  0  0  0
    2.0880   53.1435   25.2331 O   0  0  0  0  0  0
    4.2074   54.0966   25.8435 C   0  0  0  0  0  0
    3.9810   53.7340   27.1784 C   0  0  0  0  0  0
    5.0282   53.7450   28.0960 C   0  0  0  0  0  0
    6.3019   54.1229   27.6806 C   0  0  0  0  0  0
    6.5282   54.5005   26.3592 C   0  0  0  0  0  0
    5.4850   54.4932   25.4431 C   0  0  0  0  0  0
    1.7283   51.4673   22.9134 O   0  0  0  0  0  0
    0.7077   50.5179   23.2186 C   0  0  2  0  0  0
    1.1818   49.5398   23.1455 H   0  0  0  0  0  0
   -0.6223   50.5102   21.9616 S   0  0  0  0  0  0
    0.0774   50.1120   20.3828 C   0  0  0  0  0  0
   -0.7644   50.1062   19.2692 C   0  0  0  0  0  0
   -0.2506   49.8056   18.0100 C   0  0  0  0  0  0
    1.1044   49.5124   17.8718 C   0  0  0  0  0  0
    1.9473   49.5129   18.9805 C   0  0  0  0  0  0
    1.4360   49.8111   20.2398 C   0  0  0  0  0  0
   -1.4258   52.6581   24.5805 O   0  0  0  0  0  0
   -2.4805   52.4956   25.5430 C   0  0  0  0  0  0
   -3.7281   53.2967   25.1212 C   0  0  0  0  0  0
   -3.6957   53.9943   24.0817 O   0  0  0  0  0  0
   -4.7117   53.2306   25.8931 O   0  5  0  0  0  0
   -2.8037   47.4515   24.9566 H   0  0  0  0  0  0
   -1.6705   46.8111   26.1584 H   0  0  0  0  0  0
   -2.4934   48.3354   26.4609 H   0  0  0  0  0  0
   -1.3459   50.1073   25.9891 H   0  0  0  0  0  0
    2.9752   53.3063   21.6107 H   0  0  0  0  0  0
    2.2702   54.7086   22.3522 H   0  0  0  0  0  0
    2.9974   53.4293   27.5041 H   0  0  0  0  0  0
    4.8554   53.4561   29.1216 H   0  0  0  0  0  0
    7.1159   54.1287   28.3915 H   0  0  0  0  0  0
    7.5043   54.7941   26.0269 H   0  0  0  0  0  0
    5.6741   54.7785   24.4184 H   0  0  0  0  0  0
   -1.8137   50.3362   19.3785 H   0  0  0  0  0  0
   -0.8953   49.8052   17.1433 H   0  0  0  0  0  0
    1.5161   49.2893   16.8976 H   0  0  0  0  0  0
    2.9996   49.2936   18.8595 H   0  0  0  0  0  0
    2.1096   49.8083   21.0817 H   0  0  0  0  0  0
   -2.7560   51.4456   25.6325 H   0  0  0  0  0  0
   -2.1668   52.8718   26.5186 H   0  0  0  0  0  0
  1  2  1  0  0  0
  1 39  1  0  0  0
  1 40  1  0  0  0
  1 41  1  0  0  0
  2  3  2  0  0  0
  2  4  1  0  0  0
  4  5  1  0  0  0
  4 42  1  0  0  0
  5  6  1  0  0  0
  5 25  1  0  0  0
  5  7  1  0  0  0
  7  8  1  0  0  0
  7  9  1  0  0  0
  7 34  1  0  0  0
  9 10  1  0  0  0
  9 17  1  0  0  0
  9 11  1  0  0  0
 11 12  1  0  0  0
 11 13  1  0  0  0
 11 24  1  0  0  0
 13 14  1  0  0  0
 13 43  1  0  0  0
 13 44  1  0  0  0
 14 15  1  0  0  0
 15 16  1  0  0  0
 15 17  1  0  0  0
 15 18  1  0  0  0
 18 23  2  0  0  0
 18 19  1  0  0  0
 19 20  2  0  0  0
 19 45  1  0  0  0
 20 21  1  0  0  0
 20 46  1  0  0  0
 21 22  2  0  0  0
 21 47  1  0  0  0
 22 23  1  0  0  0
 22 48  1  0  0  0
 23 49  1  0  0  0
 24 25  1  0  0  0
 25 26  1  0  0  0
 25 27  1  0  0  0
 27 28  1  0  0  0
 28 33  2  0  0  0
 28 29  1  0  0  0
 29 30  2  0  0  0
 29 50  1  0  0  0
 30 31  1  0  0  0
 30 51  1  0  0  0
 31 32  2  0  0  0
 31 52  1  0  0  0
 32 33  1  0  0  0
 32 53  1  0  0  0
 33 54  1  0  0  0
 34 35  1  0  0  0
 35 36  1  0  0  0
 35 55  1  0  0  0
 35 56  1  0  0  0
 36 37  2  0  0  0
 36 38  1  0  0  0
M  CHG  1  38  -1
M  END
> <i_i_glide_confnum>
93

> <i_i_glide_lignum>
538

> <i_i_glide_posenum>
215

> <i_i_glide_rotatable_bonds>
8

> <i_m_Source_File_Index>
3947

> <b_m_subgroup_collapsed>
0

> <r_i_docking_score>
-4.86669

> <r_i_glide_ecoul>
-2.69414

> <r_i_glide_eff_state_penalty>
0

> <r_i_glide_einternal>
8.42481

> <r_i_glide_emodel>
-51.7259

> <r_i_glide_energy>
-40.8985

> <r_i_glide_erotb>
0.574045

> <r_i_glide_esite>
-0.110008

> <r_i_glide_evdw>
-38.2044

> <r_i_glide_gscore>
-4.86669

> <r_i_glide_hbond>
0

> <r_i_glide_ligand_efficiency>
-0.152084

> <r_i_glide_ligand_efficiency_ln>
-1.08978

> <r_i_glide_ligand_efficiency_sa>
-0.482837

> <r_i_glide_lipo>
-2.2063

> <r_i_glide_metal>
0

> <r_i_glide_rewards>
-0.810091

> <s_i_glide_gridfile>
wee1_glide-grid

> <s_m_Source_File>
wee1_decoys_glide_SP.sdf

> <s_m_Source_Path>
/Users/zhangxujun/Desktop

> <s_m_entry_id>
4222

> <s_m_entry_name>
wee1_decoys_glide_SP.3947

> <s_m_subgroup_title>
wee1_decoys_glide_SP

> <s_m_subgroupid>
wee1_decoys_glide_SP


$$$$
