@<TRIPOS>MOLECULE
ZINC53735984_4807
37   39    1
SMALL
USER_CHARGES


@<TRIPOS>ATOM
      1 C1          7.0948   53.6947   23.6414 C.3       1 UNK         0.0000 
      2 C2          5.7414   54.0270   24.2401 C.ar      1 UNK         0.0000 
      3 C3          5.6652   54.1181   25.6344 C.ar      1 UNK         0.0000 
      4 C4          4.4387   54.2739   26.2692 C.ar      1 UNK         0.0000 
      5 C5          3.2776   54.3664   25.5092 C.ar      1 UNK         0.0000 
      6 C6          3.3384   54.3057   24.1181 C.ar      1 UNK         0.0000 
      7 C7          4.5620   54.1036   23.4636 C.ar      1 UNK         0.0000 
      8 N8          4.5697   53.9732   22.0452 N.pl3     1 UNK         0.0000 
      9 C9          5.3696   54.6523   21.1272 C.ar      1 UNK         0.0000 
     10 C10         6.3184   55.6813   21.2245 C.ar      1 UNK         0.0000 
     11 C11         6.9757   56.0534   20.0476 C.ar      1 UNK         0.0000 
     12 C12         6.6851   55.4638   18.8189 C.ar      1 UNK         0.0000 
     13 C13         5.7072   54.4811   18.7081 C.ar      1 UNK         0.0000 
     14 C14         5.0428   54.0796   19.8728 C.ar      1 UNK         0.0000 
     15 N15         4.0520   53.1596   19.9968 N.2       1 UNK         0.0000 
     16 C16         3.7869   53.1094   21.2788 C.ar      1 UNK         0.0000 
     17 C17         2.6768   52.2104   21.8185 C.3       1 UNK         0.0000 
     18 H18         2.8203   51.9946   22.8758 H         1 UNK         0.0000 
     19 C19         2.5628   50.8616   21.0889 C.3       1 UNK         0.0000 
     20 O20         1.4477   52.8952   21.6873 O.3       1 UNK         0.0000 
     21 N21         7.3816   55.8608   17.6824 N.pl3     1 UNK         0.0000 
     22 Br22        4.3506   54.3233   28.1710 Br        1 UNK         0.0000 
     23 H23         6.9893   52.9239   22.8817 H         1 UNK         0.0000 
     24 H24         7.5418   54.5736   23.1971 H         1 UNK         0.0000 
     25 H25         7.7864   53.2971   24.3814 H         1 UNK         0.0000 
     26 H26         6.5552   54.0202   26.2391 H         1 UNK         0.0000 
     27 H27         2.3236   54.4818   26.0010 H         1 UNK         0.0000 
     28 H28         2.4201   54.3968   23.5569 H         1 UNK         0.0000 
     29 H29         6.5527   56.1549   22.1638 H         1 UNK         0.0000 
     30 H30         7.7392   56.8148   20.0853 H         1 UNK         0.0000 
     31 H31         5.4667   54.0291   17.7573 H         1 UNK         0.0000 
     32 H32         3.5076   50.3223   21.1383 H         1 UNK         0.0000 
     33 H33         1.7942   50.2308   21.5357 H         1 UNK         0.0000 
     34 H34         2.3147   50.9880   20.0341 H         1 UNK         0.0000 
     35 H35         1.4947   53.4310   20.8862 H         1 UNK         0.0000 
     36 H36         7.2357   55.3322   16.8352 H         1 UNK         0.0000 
     37 H37         8.2334   56.3861   17.8004 H         1 UNK         0.0000 
@<TRIPOS>BOND
     1    1    2 1    
     2    1   23 1    
     3    1   24 1    
     4    1   25 1    
     5    2    7 ar   
     6    2    3 ar   
     7    3    4 ar   
     8    3   26 1    
     9    4    5 ar   
    10    4   22 1    
    11    5    6 ar   
    12    5   27 1    
    13    6    7 ar   
    14    6   28 1    
    15    7    8 1    
    16    8   16 ar   
    17    8    9 ar   
    18    9   14 ar   
    19    9   10 ar   
    20   10   11 ar   
    21   10   29 1    
    22   11   12 ar   
    23   11   30 1    
    24   12   13 ar   
    25   12   21 1    
    26   13   14 ar   
    27   13   31 1    
    28   14   15 ar   
    29   15   16 ar   
    30   16   17 1    
    31   17   18 1    
    32   17   19 1    
    33   17   20 1    
    34   19   32 1    
    35   19   33 1    
    36   19   34 1    
    37   20   35 1    
    38   21   36 1    
    39   21   37 1    
@<TRIPOS>SUBSTRUCTURE
     1 UNK         1 GROUP             0       ****    0 ROOT    
