@<TRIPOS>MOLECULE
ZINC10470012_2700
55   58    1
SMALL
USER_CHARGES


@<TRIPOS>ATOM
      1 C1         -0.1216   52.2175   25.9187 C.2       1 UNK         0.0000 
      2 C2         -0.4628   51.5857   24.7439 C.2       1 UNK         0.0000 
      3 S3          0.7067   51.8594   23.5229 S.3       1 UNK         0.0000 
      4 C4          1.6292   52.9420   24.5616 C.2       1 UNK         0.0000 
      5 C5          1.1041   52.9130   25.8852 C.2       1 UNK         0.0000 
      6 S6          1.7876   53.6696   27.4359 S.o2      1 UNK         0.0000 
      7 O7          0.7042   54.4189   28.0817 O.2       1 UNK         0.0000 
      8 O8          3.0738   54.3192   27.1707 O.2       1 UNK         0.0000 
      9 N9          2.0635   52.1944   28.3690 N.pl3     1 UNK         0.0000 
     10 C10         0.8950   51.6961   29.1341 C.3       1 UNK         0.0000 
     11 C11         0.7250   52.4094   30.4857 C.3       1 UNK         0.0000 
     12 C12         2.0287   52.3273   31.2917 C.3       1 UNK         0.0000 
     13 C13         3.2578   52.8099   30.4813 C.3       1 UNK         0.0000 
     14 C14         3.3395   52.0969   29.1194 C.3       1 UNK         0.0000 
     15 C15         2.8423   53.5278   24.0111 C.2       1 UNK         0.0000 
     16 O16         3.8313   53.7780   24.6975 O.2       1 UNK         0.0000 
     17 N17         2.8004   53.7034   22.6720 N.am      1 UNK         0.0000 
     18 N18         3.8771   54.2693   22.0086 N.am      1 UNK         0.0000 
     19 C19         4.5628   53.4727   21.1622 C.2       1 UNK         0.0000 
     20 O20         4.4967   52.2384   21.1387 O.2       1 UNK         0.0000 
     21 C21         5.4289   54.1722   20.2538 C.2       1 UNK         0.0000 
     22 C22         5.9045   53.7043   19.0419 C.2       1 UNK         0.0000 
     23 C23         6.7845   54.5738   18.3859 C.2       1 UNK         0.0000 
     24 C24         6.9277   55.7855   19.0710 C.2       1 UNK         0.0000 
     25 S25         6.1619   55.6974   20.6288 S.3       1 UNK         0.0000 
     26 C26         7.7066   56.9899   18.6019 C.3       1 UNK         0.0000 
     27 C27         9.2076   56.7008   18.4850 C.3       1 UNK         0.0000 
     28 C28         9.6073   55.8401   17.2652 C.3       1 UNK         0.0000 
     29 C29         9.0547   54.3976   17.2124 C.3       1 UNK         0.0000 
     30 C30         7.5189   54.2559   17.0991 C.3       1 UNK         0.0000 
     31 H31        -0.7637   52.1581   26.7822 H         1 UNK         0.0000 
     32 H32        -1.3295   50.9697   24.5498 H         1 UNK         0.0000 
     33 H33         1.0956   50.6452   29.3081 H         1 UNK         0.0000 
     34 H34        -0.0079   51.6966   28.5377 H         1 UNK         0.0000 
     35 H35        -0.0880   51.9467   31.0484 H         1 UNK         0.0000 
     36 H36         0.4251   53.4484   30.3516 H         1 UNK         0.0000 
     37 H37         1.9035   52.8950   32.2097 H         1 UNK         0.0000 
     38 H38         2.1839   51.2983   31.6218 H         1 UNK         0.0000 
     39 H39         3.2043   53.8847   30.3089 H         1 UNK         0.0000 
     40 H40         4.1724   52.6327   31.0494 H         1 UNK         0.0000 
     41 H41         3.5017   51.0399   29.3198 H         1 UNK         0.0000 
     42 H42         4.1719   52.4045   28.4845 H         1 UNK         0.0000 
     43 H43         1.9418   53.7489   22.1414 H         1 UNK         0.0000 
     44 H44         3.7761   55.2627   21.8700 H         1 UNK         0.0000 
     45 H45         5.6378   52.7390   18.6422 H         1 UNK         0.0000 
     46 H46         7.3430   57.3041   17.6215 H         1 UNK         0.0000 
     47 H47         7.5303   57.8454   19.2536 H         1 UNK         0.0000 
     48 H48         9.7444   57.6479   18.4254 H         1 UNK         0.0000 
     49 H49         9.5409   56.2254   19.4070 H         1 UNK         0.0000 
     50 H50         9.3188   56.3604   16.3510 H         1 UNK         0.0000 
     51 H51        10.6966   55.7885   17.2323 H         1 UNK         0.0000 
     52 H52         9.5008   53.9049   16.3476 H         1 UNK         0.0000 
     53 H53         9.4137   53.8359   18.0771 H         1 UNK         0.0000 
     54 H54         7.2944   53.2340   16.7917 H         1 UNK         0.0000 
     55 H55         7.1524   54.8841   16.2865 H         1 UNK         0.0000 
@<TRIPOS>BOND
     1    1    5 1    
     2    1    2 2    
     3    1   31 1    
     4    2    3 1    
     5    2   32 1    
     6    3    4 1    
     7    4    5 2    
     8    4   15 1    
     9    5    6 1    
    10    6    7 2    
    11    6    8 2    
    12    6    9 1    
    13    9   14 1    
    14    9   10 1    
    15   10   11 1    
    16   10   33 1    
    17   10   34 1    
    18   11   12 1    
    19   11   35 1    
    20   11   36 1    
    21   12   13 1    
    22   12   37 1    
    23   12   38 1    
    24   13   14 1    
    25   13   39 1    
    26   13   40 1    
    27   14   41 1    
    28   14   42 1    
    29   15   16 2    
    30   15   17 am   BACKBONE|DICT|INTERRES
    31   17   18 1    
    32   17   43 1    
    33   18   19 am   BACKBONE|DICT|INTERRES
    34   18   44 1    
    35   19   20 2    
    36   19   21 1    
    37   21   25 1    
    38   21   22 2    
    39   22   23 1    
    40   22   45 1    
    41   23   30 1    
    42   23   24 2    
    43   24   25 1    
    44   24   26 1    
    45   26   27 1    
    46   26   46 1    
    47   26   47 1    
    48   27   28 1    
    49   27   48 1    
    50   27   49 1    
    51   28   29 1    
    52   28   50 1    
    53   28   51 1    
    54   29   30 1    
    55   29   52 1    
    56   29   53 1    
    57   30   54 1    
    58   30   55 1    
@<TRIPOS>SUBSTRUCTURE
     1 UNK         1 GROUP             0       ****    0 ROOT    
