@<TRIPOS>MOLECULE
ZINC67067117_2584
44   45    1
SMALL
USER_CHARGES


@<TRIPOS>ATOM
      1 C1          2.3028   51.8713   22.2448 C.2       1 UNK         0.0000 
      2 C2          2.3048   50.5104   22.0047 C.2       1 UNK         0.0000 
      3 S3          1.1041   49.6982   22.9430 S.3       1 UNK         0.0000 
      4 C4          0.5583   51.1927   23.6597 C.2       1 UNK         0.0000 
      5 C5          1.3324   52.2584   23.1745 C.2       1 UNK         0.0000 
      6 Br6         1.1044   54.0826   23.6808 Br        1 UNK         0.0000 
      7 C7         -0.6094   51.1887   24.6316 C.3       1 UNK         0.0000 
      8 N8         -0.2123   50.8598   26.0051 N.am      1 UNK         0.0000 
      9 C9          0.1958   51.7671   26.9047 C.2       1 UNK         0.0000 
     10 O10         0.5666   52.8966   26.5985 O.2       1 UNK         0.0000 
     11 N11         0.1868   51.2967   28.1655 N.am      1 UNK         0.0000 
     12 N12         0.3644   52.1835   29.2324 N.am      1 UNK         0.0000 
     13 C13         1.5880   52.4062   29.7599 C.2       1 UNK         0.0000 
     14 O14         1.6859   52.8957   30.8816 O.2       1 UNK         0.0000 
     15 C15         2.8803   52.1722   28.9487 C.3       1 UNK         0.0000 
     16 C16         3.8674   53.3578   29.0343 C.3       1 UNK         0.0000 
     17 C17         4.7931   53.4921   27.8042 C.3       1 UNK         0.0000 
     18 C18         4.0950   54.1920   26.6101 C.3       1 UNK         0.0000 
     19 C19         5.0246   54.2931   25.3797 C.3       1 UNK         0.0000 
     20 C20         6.3841   54.9456   25.7203 C.3       1 UNK         0.0000 
     21 C21         7.0356   54.3259   26.9753 C.3       1 UNK         0.0000 
     22 C22         6.0615   54.2884   28.1586 C.3       1 UNK         0.0000 
     23 H23         2.9734   52.5678   21.7617 H         1 UNK         0.0000 
     24 H24         2.9421   49.9539   21.3329 H         1 UNK         0.0000 
     25 H25        -1.3640   50.4647   24.3222 H         1 UNK         0.0000 
     26 H26        -1.1263   52.1506   24.6071 H         1 UNK         0.0000 
     27 H27        -0.4042   49.9181   26.3218 H         1 UNK         0.0000 
     28 H28        -0.2199   50.4131   28.4412 H         1 UNK         0.0000 
     29 H29        -0.4889   52.3633   29.7411 H         1 UNK         0.0000 
     30 H30         2.6650   51.9717   27.9042 H         1 UNK         0.0000 
     31 H31         3.3658   51.2713   29.3164 H         1 UNK         0.0000 
     32 H32         4.4590   53.2286   29.9407 H         1 UNK         0.0000 
     33 H33         3.3391   54.3037   29.1736 H         1 UNK         0.0000 
     34 H34         5.1119   52.4975   27.4844 H         1 UNK         0.0000 
     35 H35         3.7588   55.1864   26.9088 H         1 UNK         0.0000 
     36 H36         3.1792   53.6628   26.3443 H         1 UNK         0.0000 
     37 H37         4.5295   54.8536   24.5856 H         1 UNK         0.0000 
     38 H38         5.1997   53.2973   24.9768 H         1 UNK         0.0000 
     39 H39         6.2389   56.0141   25.8792 H         1 UNK         0.0000 
     40 H40         7.0615   54.8598   24.8693 H         1 UNK         0.0000 
     41 H41         7.9046   54.8976   27.2814 H         1 UNK         0.0000 
     42 H42         7.3842   53.3149   26.7572 H         1 UNK         0.0000 
     43 H43         6.5635   53.8360   29.0135 H         1 UNK         0.0000 
     44 H44         5.8028   55.2953   28.4895 H         1 UNK         0.0000 
@<TRIPOS>BOND
     1    1    5 1    
     2    1    2 2    
     3    1   23 1    
     4    2    3 1    
     5    2   24 1    
     6    3    4 1    
     7    4    5 2    
     8    4    7 1    
     9    5    6 1    
    10    7    8 1    
    11    7   25 1    
    12    7   26 1    
    13    8    9 am   BACKBONE|DICT|INTERRES
    14    8   27 1    
    15    9   10 2    
    16    9   11 am   BACKBONE|DICT|INTERRES
    17   11   12 1    
    18   11   28 1    
    19   12   13 am   BACKBONE|DICT|INTERRES
    20   12   29 1    
    21   13   14 2    
    22   13   15 1    
    23   15   16 1    
    24   15   30 1    
    25   15   31 1    
    26   16   17 1    
    27   16   32 1    
    28   16   33 1    
    29   17   22 1    
    30   17   18 1    
    31   17   34 1    
    32   18   19 1    
    33   18   35 1    
    34   18   36 1    
    35   19   20 1    
    36   19   37 1    
    37   19   38 1    
    38   20   21 1    
    39   20   39 1    
    40   20   40 1    
    41   21   22 1    
    42   21   41 1    
    43   21   42 1    
    44   22   43 1    
    45   22   44 1    
@<TRIPOS>SUBSTRUCTURE
     1 UNK         1 GROUP             0       ****    0 ROOT    
