@<TRIPOS>MOLECULE
ZINC20499149_5488
52   55    1
SMALL
USER_CHARGES


@<TRIPOS>ATOM
      1 C1          6.0924   54.9802   19.4080 C.ar      1 UNK         0.0000 
      2 C2          7.2734   55.6018   19.8224 C.ar      1 UNK         0.0000 
      3 C3          7.6055   55.6960   21.1749 C.ar      1 UNK         0.0000 
      4 C4          6.7003   55.1433   22.0858 C.ar      1 UNK         0.0000 
      5 C5          5.5049   54.4969   21.6938 C.ar      1 UNK         0.0000 
      6 C6          5.1978   54.4192   20.3264 C.ar      1 UNK         0.0000 
      7 C7          4.9011   54.0668   22.9158 C.2       1 UNK         0.0000 
      8 C8          5.7309   54.5182   23.9484 C.2       1 UNK         0.0000 
      9 O9          6.8348   55.1415   23.4423 O.3       1 UNK         0.0000 
     10 C10         5.6513   54.3801   25.3802 C.2       1 UNK         0.0000 
     11 O11         6.6498   54.5453   26.0877 O.2       1 UNK         0.0000 
     12 N12         4.3922   54.0978   25.7997 N.am      1 UNK         0.0000 
     13 C13         3.8559   53.7910   27.0240 C.2       1 UNK         0.0000 
     14 S14         4.6983   53.6968   28.4808 S.2       1 UNK         0.0000 
     15 N15         2.5167   53.5349   26.8889 N.pl3     1 UNK         0.0000 
     16 C16         1.5207   53.1404   27.8100 C.ar      1 UNK         0.0000 
     17 C17         1.3792   53.8048   29.0373 C.ar      1 UNK         0.0000 
     18 C18         0.4351   53.3804   29.9675 C.ar      1 UNK         0.0000 
     19 C19        -0.3992   52.3091   29.6665 C.ar      1 UNK         0.0000 
     20 C20        -0.3169   51.6917   28.4197 C.ar      1 UNK         0.0000 
     21 C21         0.6395   52.0840   27.4703 C.ar      1 UNK         0.0000 
     22 N22         0.6610   51.4831   26.2071 N.pl3     1 UNK         0.0000 
     23 C23         0.3129   50.0644   25.9957 C.3       1 UNK         0.0000 
     24 C24        -1.0958   49.8014   25.4170 C.3       1 UNK         0.0000 
     25 N25        -1.2472   50.6239   24.2060 N.am      1 UNK         0.0000 
     26 C26        -1.0541   52.0654   24.4268 C.3       1 UNK         0.0000 
     27 C27         0.3640   52.2765   25.0028 C.3       1 UNK         0.0000 
     28 C28        -1.2601   50.0431   22.9713 C.2       1 UNK         0.0000 
     29 O29        -1.2377   48.8154   22.8327 O.2       1 UNK         0.0000 
     30 C30        -1.4198   50.9180   21.7017 C.3       1 UNK         0.0000 
     31 F31        -0.3390   51.6844   21.5408 F         1 UNK         0.0000 
     32 F32        -2.4955   51.6990   21.8132 F         1 UNK         0.0000 
     33 F33        -1.5635   50.1581   20.6133 F         1 UNK         0.0000 
     34 Cl34        0.3030   54.1847   31.4879 Cl        1 UNK         0.0000 
     35 H35         5.8708   54.9223   18.3512 H         1 UNK         0.0000 
     36 H36         7.9464   56.0059   19.0786 H         1 UNK         0.0000 
     37 H37         8.5295   56.1446   21.5098 H         1 UNK         0.0000 
     38 H38         4.2926   53.9356   19.9867 H         1 UNK         0.0000 
     39 H39         3.9788   53.5154   23.0218 H         1 UNK         0.0000 
     40 H40         3.7313   54.0710   25.0406 H         1 UNK         0.0000 
     41 H41         2.1995   53.4140   25.9393 H         1 UNK         0.0000 
     42 H42         2.0113   54.6455   29.2811 H         1 UNK         0.0000 
     43 H43        -1.1230   51.9616   30.3910 H         1 UNK         0.0000 
     44 H44        -1.0047   50.8870   28.2034 H         1 UNK         0.0000 
     45 H45         1.0615   49.6780   25.2990 H         1 UNK         0.0000 
     46 H46         0.4334   49.4921   26.9120 H         1 UNK         0.0000 
     47 H47        -1.8462   50.0908   26.1534 H         1 UNK         0.0000 
     48 H48        -1.2383   48.7341   25.2377 H         1 UNK         0.0000 
     49 H49        -1.2039   52.6777   23.5396 H         1 UNK         0.0000 
     50 H50        -1.7853   52.4126   25.1580 H         1 UNK         0.0000 
     51 H51         1.1046   51.9966   24.2514 H         1 UNK         0.0000 
     52 H52         0.4913   53.3382   25.2009 H         1 UNK         0.0000 
@<TRIPOS>BOND
     1    1    6 ar   
     2    1    2 ar   
     3    1   35 1    
     4    2    3 ar   
     5    2   36 1    
     6    3    4 ar   
     7    3   37 1    
     8    4    9 1    
     9    4    5 ar   
    10    5    6 ar   
    11    5    7 1    
    12    6   38 1    
    13    7    8 2    
    14    7   39 1    
    15    8    9 1    
    16    8   10 1    
    17   10   11 2    
    18   10   12 am   BACKBONE|DICT|INTERRES
    19   12   13 am   BACKBONE|DICT|INTERRES
    20   12   40 1    
    21   13   14 2    
    22   13   15 1    
    23   15   16 1    
    24   15   41 1    
    25   16   21 ar   
    26   16   17 ar   
    27   17   18 ar   
    28   17   42 1    
    29   18   19 ar   
    30   18   34 1    
    31   19   20 ar   
    32   19   43 1    
    33   20   21 ar   
    34   20   44 1    
    35   21   22 1    
    36   22   27 1    
    37   22   23 1    
    38   23   24 1    
    39   23   45 1    
    40   23   46 1    
    41   24   25 1    
    42   24   47 1    
    43   24   48 1    
    44   25   26 1    
    45   25   28 am   BACKBONE|DICT|INTERRES
    46   26   27 1    
    47   26   49 1    
    48   26   50 1    
    49   27   51 1    
    50   27   52 1    
    51   28   29 2    
    52   28   30 1    
    53   30   31 1    
    54   30   32 1    
    55   30   33 1    
@<TRIPOS>SUBSTRUCTURE
     1 UNK         1 GROUP             0       ****    0 ROOT    
