@<TRIPOS>MOLECULE
ZINC39675277_1243
69   72    1
SMALL
USER_CHARGES


@<TRIPOS>ATOM
      1 C1          0.1875   52.2627   24.7071 C.3       1 UNK         0.0000 
      2 C2          1.5160   52.4962   23.9577 C.3       1 UNK         0.0000 
      3 H3          2.3000   52.2939   24.6882 H         1 UNK         0.0000 
      4 C4          1.6928   53.9536   23.4515 C.3       1 UNK         0.0000 
      5 C5          3.1401   54.3304   23.0660 C.3       1 UNK         0.0000 
      6 C6          4.1550   54.4028   24.2035 C.ar      1 UNK         0.0000 
      7 C7          5.5089   54.4870   23.8744 C.ar      1 UNK         0.0000 
      8 C8          6.4681   54.5349   24.8784 C.ar      1 UNK         0.0000 
      9 C9          6.0902   54.4828   26.2180 C.ar      1 UNK         0.0000 
     10 C10         4.7302   54.4294   26.5490 C.ar      1 UNK         0.0000 
     11 C11         3.7691   54.4004   25.5480 C.ar      1 UNK         0.0000 
     12 O12         7.1044   54.4805   27.1487 O.3       1 UNK         0.0000 
     13 C13         6.7921   54.0955   28.4825 C.3       1 UNK         0.0000 
     14 N14         1.7610   51.5355   22.8833 N.am      1 UNK         0.0000 
     15 C15         0.9728   51.2871   21.8242 C.2       1 UNK         0.0000 
     16 O16        -0.1575   51.7616   21.6893 O.2       1 UNK         0.0000 
     17 C17         1.5671   50.3198   20.7815 C.3       1 UNK         0.0000 
     18 H18         2.5015   49.9091   21.1726 H         1 UNK         0.0000 
     19 C19         0.6014   49.1515   20.5966 C.3       1 UNK         0.0000 
     20 N20         1.0059   48.6054   19.3003 N.am      1 UNK         0.0000 
     21 C21         1.8691   49.5426   18.5604 C.3       1 UNK         0.0000 
     22 C22         1.7918   50.8793   19.3524 C.3       1 UNK         0.0000 
     23 C23         0.6404   51.7969   18.8231 C.3       1 UNK         0.0000 
     24 C24         0.8521   52.2324   17.3570 C.3       1 UNK         0.0000 
     25 N25         2.2090   52.9689   17.2630 N.4       1 UNK         0.0000 
     26 C26         3.3908   52.1507   17.8255 C.3       1 UNK         0.0000 
     27 C27         3.0589   51.7621   19.2790 C.3       1 UNK         0.0000 
     28 C28         0.5305   47.4048   18.8764 C.2       1 UNK         0.0000 
     29 O29        -0.2433   46.7361   19.5665 O.2       1 UNK         0.0000 
     30 C30         0.8991   46.8773   17.5080 C.ar      1 UNK         0.0000 
     31 C31        -0.1039   46.3013   16.7151 C.ar      1 UNK         0.0000 
     32 C32         0.1963   45.7953   15.4546 C.ar      1 UNK         0.0000 
     33 C33         1.5045   45.8496   14.9840 C.ar      1 UNK         0.0000 
     34 C34         2.5167   46.3929   15.7695 C.ar      1 UNK         0.0000 
     35 C35         2.2180   46.8968   17.0322 C.ar      1 UNK         0.0000 
     36 Br36        1.9040   45.1695   13.2534 Br        1 UNK         0.0000 
     37 H37         0.1208   52.8968   25.5904 H         1 UNK         0.0000 
     38 H38        -0.6782   52.5069   24.0924 H         1 UNK         0.0000 
     39 H39         0.0897   51.2295   25.0425 H         1 UNK         0.0000 
     40 H40         1.2913   54.6690   24.1678 H         1 UNK         0.0000 
     41 H41         1.1042   54.0953   22.5487 H         1 UNK         0.0000 
     42 H42         3.1354   55.2967   22.5642 H         1 UNK         0.0000 
     43 H43         3.5013   53.6159   22.3244 H         1 UNK         0.0000 
     44 H44         5.8216   54.5072   22.8406 H         1 UNK         0.0000 
     45 H45         7.5103   54.5835   24.6114 H         1 UNK         0.0000 
     46 H46         4.3974   54.4063   27.5750 H         1 UNK         0.0000 
     47 H47         2.7320   54.3613   25.8407 H         1 UNK         0.0000 
     48 H48         7.7049   54.0689   29.0756 H         1 UNK         0.0000 
     49 H49         6.3522   53.0977   28.5029 H         1 UNK         0.0000 
     50 H50         6.1055   54.7950   28.9594 H         1 UNK         0.0000 
     51 H51         2.6417   51.0459   22.9325 H         1 UNK         0.0000 
     52 H52         0.6573   48.4511   21.4282 H         1 UNK         0.0000 
     53 H53        -0.4258   49.5047   20.4821 H         1 UNK         0.0000 
     54 H54         1.6708   49.6462   17.4949 H         1 UNK         0.0000 
     55 H55         2.8946   49.1854   18.6657 H         1 UNK         0.0000 
     56 H56        -0.3096   51.2654   18.8847 H         1 UNK         0.0000 
     57 H57         0.5132   52.6844   19.4463 H         1 UNK         0.0000 
     58 H58         0.8858   51.4074   16.6445 H         1 UNK         0.0000 
     59 H59         0.0961   52.9462   17.0269 H         1 UNK         0.0000 
     60 H60         2.3979   53.2243   16.3024 H         1 UNK         0.0000 
     61 H61         3.5044   51.2965   17.1607 H         1 UNK         0.0000 
     62 H62         4.2816   52.7754   17.7517 H         1 UNK         0.0000 
     63 H63         2.9722   52.6426   19.9186 H         1 UNK         0.0000 
     64 H64         3.9055   51.2037   19.6802 H         1 UNK         0.0000 
     65 H65        -1.1252   46.2558   17.0672 H         1 UNK         0.0000 
     66 H66        -0.5836   45.3647   14.8441 H         1 UNK         0.0000 
     67 H67         3.5323   46.4294   15.4063 H         1 UNK         0.0000 
     68 H68         3.0273   47.2963   17.6261 H         1 UNK         0.0000 
     69 H69         2.1436   53.8320   17.7892 H         1 UNK         0.0000 
@<TRIPOS>BOND
     1    1    2 1    
     2    1   37 1    
     3    1   38 1    
     4    1   39 1    
     5    2    3 1    
     6    2    4 1    
     7    2   14 1    
     8    4    5 1    
     9    4   40 1    
    10    4   41 1    
    11    5    6 1    
    12    5   42 1    
    13    5   43 1    
    14    6   11 ar   
    15    6    7 ar   
    16    7    8 ar   
    17    7   44 1    
    18    8    9 ar   
    19    8   45 1    
    20    9   10 ar   
    21    9   12 1    
    22   10   11 ar   
    23   10   46 1    
    24   11   47 1    
    25   12   13 1    
    26   13   48 1    
    27   13   49 1    
    28   13   50 1    
    29   14   15 am   BACKBONE|DICT|INTERRES
    30   14   51 1    
    31   15   16 2    
    32   15   17 1    
    33   17   18 1    
    34   17   22 1    
    35   17   19 1    
    36   19   20 1    
    37   19   52 1    
    38   19   53 1    
    39   20   21 1    
    40   20   28 am   BACKBONE|DICT|INTERRES
    41   21   22 1    
    42   21   54 1    
    43   21   55 1    
    44   22   27 1    
    45   22   23 1    
    46   23   24 1    
    47   23   56 1    
    48   23   57 1    
    49   24   25 1    
    50   24   58 1    
    51   24   59 1    
    52   25   26 1    
    53   25   60 1    
    54   25   69 1    
    55   26   27 1    
    56   26   61 1    
    57   26   62 1    
    58   27   63 1    
    59   27   64 1    
    60   28   29 2    
    61   28   30 1    
    62   30   35 ar   
    63   30   31 ar   
    64   31   32 ar   
    65   31   65 1    
    66   32   33 ar   
    67   32   66 1    
    68   33   34 ar   
    69   33   36 1    
    70   34   35 ar   
    71   34   67 1    
    72   35   68 1    
@<TRIPOS>SUBSTRUCTURE
     1 UNK         1 GROUP             0       ****    0 ROOT    
