@<TRIPOS>MOLECULE
ZINC59437518_5317
45   48    1
SMALL
USER_CHARGES


@<TRIPOS>ATOM
      1 C1         -0.2195   48.6738   25.8549 C.3       1 UNK         0.0000 
      2 C2          0.3044   49.9350   25.1892 C.ar      1 UNK         0.0000 
      3 C3          0.8524   49.8248   23.9039 C.ar      1 UNK         0.0000 
      4 C4          1.4253   50.9617   23.3204 C.ar      1 UNK         0.0000 
      5 C5          1.3504   52.2144   23.9653 C.ar      1 UNK         0.0000 
      6 C6          0.7205   52.3374   25.2047 C.ar      1 UNK         0.0000 
      7 C7          0.2915   51.1735   25.8572 C.ar      1 UNK         0.0000 
      8 N8         -0.0928   51.2623   27.2139 N.pl3     1 UNK         0.0000 
      9 C9          0.6028   51.8506   28.2367 C.2       1 UNK         0.0000 
     10 S10        -0.1910   52.0968   29.6805 S.2       1 UNK         0.0000 
     11 N11         1.9041   52.1804   27.9496 N.am      1 UNK         0.0000 
     12 C12         2.9008   52.7530   28.6675 C.2       1 UNK         0.0000 
     13 O13         3.0490   52.6684   29.8901 O.2       1 UNK         0.0000 
     14 C14         3.9078   53.4833   27.8109 C.ar      1 UNK         0.0000 
     15 C15         3.4932   54.1641   26.6558 C.ar      1 UNK         0.0000 
     16 C16         4.4155   54.7869   25.8307 C.ar      1 UNK         0.0000 
     17 C17         5.7621   54.7544   26.1644 C.ar      1 UNK         0.0000 
     18 C18         6.1977   54.1147   27.3253 C.ar      1 UNK         0.0000 
     19 C19         5.2682   53.4807   28.1492 C.ar      1 UNK         0.0000 
     20 I20         7.1043   55.6965   24.8814 I         1 UNK         0.0000 
     21 N21         2.0019   53.1507   23.2288 N.2       1 UNK         0.0000 
     22 N22         2.4861   52.4009   22.2088 N.pl3     1 UNK         0.0000 
     23 N23         2.1276   51.0938   22.1646 N.2       1 UNK         0.0000 
     24 C24         3.4059   52.9382   21.2742 C.ar      1 UNK         0.0000 
     25 C25         4.2554   53.9925   21.6458 C.ar      1 UNK         0.0000 
     26 C26         5.1791   54.4990   20.7369 C.ar      1 UNK         0.0000 
     27 C27         5.2514   53.9631   19.4541 C.ar      1 UNK         0.0000 
     28 C28         4.4093   52.9222   19.0742 C.ar      1 UNK         0.0000 
     29 C29         3.4918   52.4042   19.9810 C.ar      1 UNK         0.0000 
     30 H30        -0.0867   47.7866   25.2360 H         1 UNK         0.0000 
     31 H31         0.3037   48.5000   26.7962 H         1 UNK         0.0000 
     32 H32        -1.2807   48.7752   26.0804 H         1 UNK         0.0000 
     33 H33         0.9082   48.8678   23.4064 H         1 UNK         0.0000 
     34 H34         0.6578   53.2960   25.6917 H         1 UNK         0.0000 
     35 H35        -0.9860   50.8503   27.4504 H         1 UNK         0.0000 
     36 H36         2.0942   52.1882   26.9590 H         1 UNK         0.0000 
     37 H37         2.4531   54.2273   26.3827 H         1 UNK         0.0000 
     38 H38         4.0866   55.2956   24.9371 H         1 UNK         0.0000 
     39 H39         7.2466   54.1044   27.5859 H         1 UNK         0.0000 
     40 H40         5.6120   52.9696   29.0367 H         1 UNK         0.0000 
     41 H41         4.2192   54.4146   22.6396 H         1 UNK         0.0000 
     42 H42         5.8373   55.3049   21.0250 H         1 UNK         0.0000 
     43 H43         5.9716   54.3510   18.7481 H         1 UNK         0.0000 
     44 H44         4.4825   52.4967   18.0830 H         1 UNK         0.0000 
     45 H45         2.8592   51.5862   19.6652 H         1 UNK         0.0000 
@<TRIPOS>BOND
     1    1    2 1    
     2    1   30 1    
     3    1   31 1    
     4    1   32 1    
     5    2    7 ar   
     6    2    3 ar   
     7    3    4 ar   
     8    3   33 1    
     9    4   23 ar   
    10    4    5 ar   
    11    5    6 ar   
    12    5   21 ar   
    13    6    7 ar   
    14    6   34 1    
    15    7    8 1    
    16    8    9 1    
    17    8   35 1    
    18    9   10 2    
    19    9   11 am   BACKBONE|DICT|INTERRES
    20   11   12 am   BACKBONE|DICT|INTERRES
    21   11   36 1    
    22   12   13 2    
    23   12   14 1    
    24   14   19 ar   
    25   14   15 ar   
    26   15   16 ar   
    27   15   37 1    
    28   16   17 ar   
    29   16   38 1    
    30   17   18 ar   
    31   17   20 1    
    32   18   19 ar   
    33   18   39 1    
    34   19   40 1    
    35   21   22 ar   
    36   22   23 ar   
    37   22   24 1    
    38   24   29 ar   
    39   24   25 ar   
    40   25   26 ar   
    41   25   41 1    
    42   26   27 ar   
    43   26   42 1    
    44   27   28 ar   
    45   27   43 1    
    46   28   29 ar   
    47   28   44 1    
    48   29   45 1    
@<TRIPOS>SUBSTRUCTURE
     1 UNK         1 GROUP             0       ****    0 ROOT    
