@<TRIPOS>MOLECULE
ZINC32181015_5996
63   67    1
SMALL
USER_CHARGES


@<TRIPOS>ATOM
      1 C1          5.4774   55.0818   20.3613 C.3       1 UNK         0.0000 
      2 C2          4.5232   53.9028   20.4240 C.ar      1 UNK         0.0000 
      3 C3          4.1321   53.3531   21.6483 C.ar      1 UNK         0.0000 
      4 C4          3.2810   52.2470   21.6797 C.ar      1 UNK         0.0000 
      5 C5          2.8130   51.6818   20.4899 C.ar      1 UNK         0.0000 
      6 C6          3.1606   52.2629   19.2600 C.ar      1 UNK         0.0000 
      7 C7          4.0182   53.3654   19.2380 C.ar      1 UNK         0.0000 
      8 C8          2.6855   51.6780   17.9345 C.3       1 UNK         0.0000 
      9 N9          2.0634   50.5029   20.5364 N.pl3     1 UNK         0.0000 
     10 S10         0.2994   50.4888   20.4898 S.o2      1 UNK         0.0000 
     11 O11        -0.0794   49.1812   19.9439 O.2       1 UNK         0.0000 
     12 O12        -0.1571   51.7378   19.8692 O.2       1 UNK         0.0000 
     13 C13        -0.2152   50.4882   22.1993 C.ar      1 UNK         0.0000 
     14 C14         0.0022   49.3473   22.9670 C.ar      1 UNK         0.0000 
     15 C15        -0.4284   49.2969   24.2866 C.ar      1 UNK         0.0000 
     16 C16        -1.0873   50.3899   24.8459 C.ar      1 UNK         0.0000 
     17 C17        -1.2846   51.5711   24.0966 C.ar      1 UNK         0.0000 
     18 C18        -0.8437   51.5950   22.7676 C.ar      1 UNK         0.0000 
     19 C19        -1.9297   52.8088   24.7198 C.3       1 UNK         0.0000 
     20 H20        -1.2042   53.6144   24.6137 H         1 UNK         0.0000 
     21 C21        -3.2473   53.1895   24.0723 C.2       1 UNK         0.0000 
     22 C22        -4.2920   52.9261   24.8747 C.2       1 UNK         0.0000 
     23 C23        -3.8376   52.3526   26.1969 C.3       1 UNK         0.0000 
     24 C24        -2.3264   52.6188   26.1964 C.3       1 UNK         0.0000 
     25 H25        -2.1883   53.5775   26.6989 H         1 UNK         0.0000 
     26 C26        -1.4935   51.5660   26.9814 C.3       1 UNK         0.0000 
     27 H27        -2.0544   51.3129   27.8849 H         1 UNK         0.0000 
     28 N28        -1.4192   50.3273   26.2088 N.pl3     1 UNK         0.0000 
     29 C29        -0.1401   52.0998   27.4759 C.ar      1 UNK         0.0000 
     30 C30         0.0769   52.2603   28.8486 C.ar      1 UNK         0.0000 
     31 C31         1.3022   52.7273   29.3195 C.ar      1 UNK         0.0000 
     32 C32         2.3354   53.0481   28.4264 C.ar      1 UNK         0.0000 
     33 C33         2.1072   52.8973   27.0515 C.ar      1 UNK         0.0000 
     34 C34         0.8859   52.4264   26.5855 C.ar      1 UNK         0.0000 
     35 C35         3.6559   53.5285   28.9555 C.2       1 UNK         0.0000 
     36 O36         3.8763   53.6966   30.1571 O.2       1 UNK         0.0000 
     37 O37         4.5834   53.7422   27.9859 O.3       1 UNK         0.0000 
     38 C38         5.9027   54.1529   28.3151 C.3       1 UNK         0.0000 
     39 H39         5.1788   55.7635   19.5642 H         1 UNK         0.0000 
     40 H40         5.4757   55.6606   21.2818 H         1 UNK         0.0000 
     41 H41         6.4924   54.7424   20.1556 H         1 UNK         0.0000 
     42 H42         4.4972   53.7699   22.5760 H         1 UNK         0.0000 
     43 H43         2.9968   51.8113   22.6258 H         1 UNK         0.0000 
     44 H44         4.3120   53.7950   18.2912 H         1 UNK         0.0000 
     45 H45         3.3386   51.9660   17.1093 H         1 UNK         0.0000 
     46 H46         2.7040   50.5880   17.9642 H         1 UNK         0.0000 
     47 H47         1.6651   51.9950   17.7168 H         1 UNK         0.0000 
     48 H48         2.5418   49.6221   20.6295 H         1 UNK         0.0000 
     49 H49         0.5129   48.5003   22.5333 H         1 UNK         0.0000 
     50 H50        -0.2368   48.4114   24.8778 H         1 UNK         0.0000 
     51 H51        -0.9931   52.4859   22.1740 H         1 UNK         0.0000 
     52 H52        -3.2958   53.5941   23.0742 H         1 UNK         0.0000 
     53 H53        -5.3371   53.0781   24.6386 H         1 UNK         0.0000 
     54 H54        -4.0738   51.2895   26.2672 H         1 UNK         0.0000 
     55 H55        -4.3234   52.8511   27.0364 H         1 UNK         0.0000 
     56 H56        -1.2949   49.4862   26.7656 H         1 UNK         0.0000 
     57 H57        -0.6966   52.0051   29.5595 H         1 UNK         0.0000 
     58 H58         1.4370   52.8263   30.3879 H         1 UNK         0.0000 
     59 H59         2.8742   53.1281   26.3271 H         1 UNK         0.0000 
     60 H60         0.7577   52.3090   25.5222 H         1 UNK         0.0000 
     61 H61         6.4709   54.3373   27.4040 H         1 UNK         0.0000 
     62 H62         6.4213   53.3794   28.8813 H         1 UNK         0.0000 
     63 H63         5.9009   55.0724   28.9021 H         1 UNK         0.0000 
@<TRIPOS>BOND
     1    1    2 1    
     2    1   39 1    
     3    1   40 1    
     4    1   41 1    
     5    2    7 ar   
     6    2    3 ar   
     7    3    4 ar   
     8    3   42 1    
     9    4    5 ar   
    10    4   43 1    
    11    5    6 ar   
    12    5    9 1    
    13    6    7 ar   
    14    6    8 1    
    15    7   44 1    
    16    8   45 1    
    17    8   46 1    
    18    8   47 1    
    19    9   10 1    
    20    9   48 1    
    21   10   11 2    
    22   10   12 2    
    23   10   13 1    
    24   13   18 ar   
    25   13   14 ar   
    26   14   15 ar   
    27   14   49 1    
    28   15   16 ar   
    29   15   50 1    
    30   16   28 1    
    31   16   17 ar   
    32   17   18 ar   
    33   17   19 1    
    34   18   51 1    
    35   19   20 1    
    36   19   24 1    
    37   19   21 1    
    38   21   22 2    
    39   21   52 1    
    40   22   23 1    
    41   22   53 1    
    42   23   24 1    
    43   23   54 1    
    44   23   55 1    
    45   24   25 1    
    46   24   26 1    
    47   26   27 1    
    48   26   28 1    
    49   26   29 1    
    50   28   56 1    
    51   29   34 ar   
    52   29   30 ar   
    53   30   31 ar   
    54   30   57 1    
    55   31   32 ar   
    56   31   58 1    
    57   32   33 ar   
    58   32   35 1    
    59   33   34 ar   
    60   33   59 1    
    61   34   60 1    
    62   35   36 2    
    63   35   37 1    
    64   37   38 1    
    65   38   61 1    
    66   38   62 1    
    67   38   63 1    
@<TRIPOS>SUBSTRUCTURE
     1 UNK         1 GROUP             0       ****    0 ROOT    
