@<TRIPOS>MOLECULE
ZINC03357084_4362
41   43    1
SMALL
USER_CHARGES


@<TRIPOS>ATOM
      1 C1          6.7283   54.0978   27.3208 C.3       1 UNK         0.0000 
      2 C2          5.5241   54.1589   26.4245 C.2       1 UNK         0.0000 
      3 C3          4.1752   54.3117   26.6644 C.2       1 UNK         0.0000 
      4 C4          3.5491   54.3249   25.4221 C.2       1 UNK         0.0000 
      5 C5          4.5309   54.1065   24.4548 C.2       1 UNK         0.0000 
      6 O6          5.7410   54.0866   25.0835 O.3       1 UNK         0.0000 
      7 C7          4.5227   54.0961   23.0001 C.2       1 UNK         0.0000 
      8 O8          5.5117   54.4851   22.3816 O.2       1 UNK         0.0000 
      9 N9          3.4288   53.6794   22.3205 N.am      1 UNK         0.0000 
     10 C10         2.3054   53.0305   22.8333 C.ar      1 UNK         0.0000 
     11 C11         2.2678   51.6356   22.8675 C.ar      1 UNK         0.0000 
     12 C12         1.1848   50.9904   23.4584 C.ar      1 UNK         0.0000 
     13 C13         0.1347   51.7489   23.9788 C.ar      1 UNK         0.0000 
     14 C14         0.1360   53.1382   23.8646 C.ar      1 UNK         0.0000 
     15 C15         1.2206   53.7811   23.2816 C.ar      1 UNK         0.0000 
     16 S16        -1.1854   50.9435   24.8684 S.o2      1 UNK         0.0000 
     17 O17        -2.2308   51.9395   25.1351 O.2       1 UNK         0.0000 
     18 O18        -1.4869   49.6906   24.1680 O.2       1 UNK         0.0000 
     19 N19        -0.4690   50.4970   26.4196 N.pl3     1 UNK         0.0000 
     20 C20        -0.2958   51.4518   27.4252 C.ar      1 UNK         0.0000 
     21 C21        -1.0161   51.2968   28.6036 C.ar      1 UNK         0.0000 
     22 C22        -0.7788   52.1252   29.6860 C.ar      1 UNK         0.0000 
     23 C23         0.1025   53.1903   29.5516 C.ar      1 UNK         0.0000 
     24 C24         0.8061   53.3846   28.3632 C.ar      1 UNK         0.0000 
     25 C25         0.6252   52.4959   27.3027 C.ar      1 UNK         0.0000 
     26 I26         0.3107   54.5107   31.1532 I         1 UNK         0.0000 
     27 H27         6.4742   53.7266   28.3129 H         1 UNK         0.0000 
     28 H28         7.1629   55.0861   27.4552 H         1 UNK         0.0000 
     29 H29         7.5010   53.4413   26.9213 H         1 UNK         0.0000 
     30 H30         3.7114   54.4301   27.6310 H         1 UNK         0.0000 
     31 H31         2.4973   54.4838   25.2748 H         1 UNK         0.0000 
     32 H32         3.4842   53.7291   21.3130 H         1 UNK         0.0000 
     33 H33         3.0910   51.0529   22.4787 H         1 UNK         0.0000 
     34 H34         1.1779   49.9118   23.5399 H         1 UNK         0.0000 
     35 H35        -0.6886   53.7207   24.2467 H         1 UNK         0.0000 
     36 H36         1.2337   54.8593   23.2106 H         1 UNK         0.0000 
     37 H37        -0.8302   49.6097   26.7541 H         1 UNK         0.0000 
     38 H38        -1.7343   50.4968   28.7052 H         1 UNK         0.0000 
     39 H39        -1.2955   51.9560   30.6203 H         1 UNK         0.0000 
     40 H40         1.4912   54.2134   28.2707 H         1 UNK         0.0000 
     41 H41         1.2049   52.6121   26.4005 H         1 UNK         0.0000 
@<TRIPOS>BOND
     1    1    2 1    
     2    1   27 1    
     3    1   28 1    
     4    1   29 1    
     5    2    6 1    
     6    2    3 2    
     7    3    4 1    
     8    3   30 1    
     9    4    5 2    
    10    4   31 1    
    11    5    6 1    
    12    5    7 1    
    13    7    8 2    
    14    7    9 am   BACKBONE|DICT|INTERRES
    15    9   10 1    
    16    9   32 1    
    17   10   15 ar   
    18   10   11 ar   
    19   11   12 ar   
    20   11   33 1    
    21   12   13 ar   
    22   12   34 1    
    23   13   14 ar   
    24   13   16 1    
    25   14   15 ar   
    26   14   35 1    
    27   15   36 1    
    28   16   17 2    
    29   16   18 2    
    30   16   19 1    
    31   19   20 1    
    32   19   37 1    
    33   20   25 ar   
    34   20   21 ar   
    35   21   22 ar   
    36   21   38 1    
    37   22   23 ar   
    38   22   39 1    
    39   23   24 ar   
    40   23   26 1    
    41   24   25 ar   
    42   24   40 1    
    43   25   41 1    
@<TRIPOS>SUBSTRUCTURE
     1 UNK         1 GROUP             0       ****    0 ROOT    
