@<TRIPOS>MOLECULE
ZINC08855098_5577
68   71    1
SMALL
USER_CHARGES


@<TRIPOS>ATOM
      1 C1         10.4038   53.6405   15.6005 C.3       1 UNK         0.0000 
      2 C2          9.4208   54.2716   16.5694 C.ar      1 UNK         0.0000 
      3 C3          8.1329   54.5983   16.1410 C.ar      1 UNK         0.0000 
      4 C4          7.2239   55.1545   17.0366 C.ar      1 UNK         0.0000 
      5 C5          7.6018   55.3770   18.3629 C.ar      1 UNK         0.0000 
      6 C6          8.8906   55.0559   18.7912 C.ar      1 UNK         0.0000 
      7 C7          9.7995   54.5038   17.8922 C.ar      1 UNK         0.0000 
      8 S8          6.4005   56.0158   19.5249 S.o2      1 UNK         0.0000 
      9 O9          5.4963   56.8954   18.7788 O.2       1 UNK         0.0000 
     10 O10         7.1294   56.5057   20.6996 O.2       1 UNK         0.0000 
     11 N11         5.4948   54.5927   20.0358 N.pl3     1 UNK         0.0000 
     12 C12         5.0852   54.4780   21.4454 C.3       1 UNK         0.0000 
     13 C13         4.9129   52.9875   21.7978 C.3       1 UNK         0.0000 
     14 N14         4.0336   52.2655   20.8434 N.pl3     1 UNK         0.0000 
     15 C15         4.3682   52.5329   19.4283 C.3       1 UNK         0.0000 
     16 C16         4.4734   54.0387   19.1343 C.3       1 UNK         0.0000 
     17 C17         2.9369   51.5062   21.2299 C.ar      1 UNK         0.0000 
     18 C18         2.5485   50.3545   20.5475 C.ar      1 UNK         0.0000 
     19 C19         1.4529   49.6109   20.9848 C.ar      1 UNK         0.0000 
     20 C20         0.7023   49.9943   22.1140 C.ar      1 UNK         0.0000 
     21 C21         1.0906   51.1696   22.8045 C.ar      1 UNK         0.0000 
     22 C22         2.1842   51.8963   22.3307 C.ar      1 UNK         0.0000 
     23 N23         0.3947   51.6313   23.9409 N.pl3     1 UNK         0.0000 
     24 C24         0.4620   53.0107   24.4327 C.3       1 UNK         0.0000 
     25 C25         1.6507   53.2970   25.3508 C.ar      1 UNK         0.0000 
     26 C26         1.6606   52.8200   26.6637 C.ar      1 UNK         0.0000 
     27 C27         2.7102   53.1535   27.5197 C.ar      1 UNK         0.0000 
     28 C28         3.7643   53.9568   27.0653 C.ar      1 UNK         0.0000 
     29 C29         3.7578   54.4215   25.7500 C.ar      1 UNK         0.0000 
     30 C30         2.7025   54.1029   24.9047 C.ar      1 UNK         0.0000 
     31 C31         4.9287   54.3392   27.9809 C.3       1 UNK         0.0000 
     32 C32         4.4733   54.8289   29.3670 C.3       1 UNK         0.0000 
     33 C33         5.9519   53.1986   28.0867 C.3       1 UNK         0.0000 
     34 N34        -0.4847   49.1727   22.4989 N.pl3     1 UNK         0.0000 
     35 O35        -0.7980   48.2272   21.7791 O.co2     1 UNK         0.0000 
     36 O36        -1.1343   49.4562   23.5008 O.co2     1 UNK         0.0000 
     37 H37         9.8865   52.9911   14.8929 H         1 UNK         0.0000 
     38 H38        10.9389   54.4080   15.0409 H         1 UNK         0.0000 
     39 H39        11.1268   53.0143   16.1251 H         1 UNK         0.0000 
     40 H40         7.8346   54.4184   15.1179 H         1 UNK         0.0000 
     41 H41         6.2270   55.4022   16.7006 H         1 UNK         0.0000 
     42 H42         9.1923   55.2238   19.8156 H         1 UNK         0.0000 
     43 H43        10.7948   54.2526   18.2315 H         1 UNK         0.0000 
     44 H44         5.8446   54.9243   22.0867 H         1 UNK         0.0000 
     45 H45         4.1278   54.9770   21.5951 H         1 UNK         0.0000 
     46 H46         4.6066   52.8907   22.8383 H         1 UNK         0.0000 
     47 H47         5.8651   52.4662   21.6868 H         1 UNK         0.0000 
     48 H48         5.3557   52.0967   19.2917 H         1 UNK         0.0000 
     49 H49         3.6833   52.0482   18.7319 H         1 UNK         0.0000 
     50 H50         4.7890   54.1945   18.1034 H         1 UNK         0.0000 
     51 H51         3.5070   54.5172   19.2998 H         1 UNK         0.0000 
     52 H52         3.1055   50.0219   19.6820 H         1 UNK         0.0000 
     53 H53         1.1908   48.7252   20.4236 H         1 UNK         0.0000 
     54 H54         2.4653   52.8062   22.8092 H         1 UNK         0.0000 
     55 H55        -0.4266   51.0928   24.1913 H         1 UNK         0.0000 
     56 H56        -0.4603   53.2190   24.9745 H         1 UNK         0.0000 
     57 H57         0.4616   53.7055   23.5915 H         1 UNK         0.0000 
     58 H58         0.8507   52.2017   27.0241 H         1 UNK         0.0000 
     59 H59         2.7044   52.7772   28.5314 H         1 UNK         0.0000 
     60 H60         4.5570   55.0496   25.3839 H         1 UNK         0.0000 
     61 H61         2.6934   54.5351   23.9153 H         1 UNK         0.0000 
     62 H62         5.4393   55.1909   27.5261 H         1 UNK         0.0000 
     63 H63         3.6922   55.5853   29.2807 H         1 UNK         0.0000 
     64 H64         5.3086   55.2782   29.9059 H         1 UNK         0.0000 
     65 H65         4.0871   54.0152   29.9807 H         1 UNK         0.0000 
     66 H66         6.3160   52.8988   27.1033 H         1 UNK         0.0000 
     67 H67         6.8179   53.4947   28.6808 H         1 UNK         0.0000 
     68 H68         5.5068   52.3202   28.5548 H         1 UNK         0.0000 
@<TRIPOS>BOND
     1    1    2 1    
     2    1   37 1    
     3    1   38 1    
     4    1   39 1    
     5    2    7 ar   
     6    2    3 ar   
     7    3    4 ar   
     8    3   40 1    
     9    4    5 ar   
    10    4   41 1    
    11    5    6 ar   
    12    5    8 1    
    13    6    7 ar   
    14    6   42 1    
    15    7   43 1    
    16    8    9 2    
    17    8   10 2    
    18    8   11 1    
    19   11   16 1    
    20   11   12 1    
    21   12   13 1    
    22   12   44 1    
    23   12   45 1    
    24   13   14 1    
    25   13   46 1    
    26   13   47 1    
    27   14   15 1    
    28   14   17 1    
    29   15   16 1    
    30   15   48 1    
    31   15   49 1    
    32   16   50 1    
    33   16   51 1    
    34   17   22 ar   
    35   17   18 ar   
    36   18   19 ar   
    37   18   52 1    
    38   19   20 ar   
    39   19   53 1    
    40   20   21 ar   
    41   20   34 1    
    42   21   22 ar   
    43   21   23 1    
    44   22   54 1    
    45   23   24 1    
    46   23   55 1    
    47   24   25 1    
    48   24   56 1    
    49   24   57 1    
    50   25   30 ar   
    51   25   26 ar   
    52   26   27 ar   
    53   26   58 1    
    54   27   28 ar   
    55   27   59 1    
    56   28   29 ar   
    57   28   31 1    
    58   29   30 ar   
    59   29   60 1    
    60   30   61 1    
    61   31   32 1    
    62   31   33 1    
    63   31   62 1    
    64   32   63 1    
    65   32   64 1    
    66   32   65 1    
    67   33   66 1    
    68   33   67 1    
    69   33   68 1    
    70   34   35 2    
    71   34   36 1    
@<TRIPOS>SUBSTRUCTURE
     1 UNK         1 GROUP             0       ****    0 ROOT    
