@<TRIPOS>MOLECULE
ZINC62243120_4762
45   46    1
SMALL
USER_CHARGES


@<TRIPOS>ATOM
      1 C1          1.3282   52.5991   30.7038 C.3       1 UNK         0.0000 
      2 C2          0.7252   54.0087   30.5507 C.3       1 UNK         0.0000 
      3 C3          1.1055   54.8035   29.2853 C.3       1 UNK         0.0000 
      4 C4          2.6018   55.0654   29.0815 C.3       1 UNK         0.0000 
      5 C5          3.5539   53.9638   28.4763 C.3       1 UNK         0.0000 
      6 C6          3.3698   52.5410   29.1256 C.3       1 UNK         0.0000 
      7 C7          2.8643   52.4967   30.5768 C.3       1 UNK         0.0000 
      8 C8          5.0771   54.3910   28.6889 C.2       1 UNK         0.0000 
      9 N9          6.0958   53.9899   28.0370 N.2       1 UNK         0.0000 
     10 O10         5.8942   52.9335   27.1632 O.3       1 UNK         0.0000 
     11 N11         5.2966   55.2925   29.6817 N.pl3     1 UNK         0.0000 
     12 N12         3.3624   53.9192   27.0083 N.am      1 UNK         0.0000 
     13 C13         2.3806   53.3929   26.2473 C.2       1 UNK         0.0000 
     14 O14         1.3523   52.9052   26.7069 O.2       1 UNK         0.0000 
     15 C15         2.6332   53.2968   24.7291 C.3       1 UNK         0.0000 
     16 H16         2.7061   52.2122   24.6381 H         1 UNK         0.0000 
     17 C17         1.4372   53.7303   23.8669 C.3       1 UNK         0.0000 
     18 C18         1.7814   53.2854   22.4301 C.3       1 UNK         0.0000 
     19 C19         3.1590   53.8162   21.9655 C.3       1 UNK         0.0000 
     20 O20         4.1920   53.5159   22.9000 O.3       1 UNK         0.0000 
     21 C21         3.9420   53.9683   24.2303 C.3       1 UNK         0.0000 
     22 H22         1.0342   52.2175   31.6822 H         1 UNK         0.0000 
     23 H23         0.8552   51.9278   29.9847 H         1 UNK         0.0000 
     24 H24         0.9925   54.6033   31.4238 H         1 UNK         0.0000 
     25 H25        -0.3621   53.9225   30.5885 H         1 UNK         0.0000 
     26 H26         0.7042   55.8062   29.4089 H         1 UNK         0.0000 
     27 H27         0.6155   54.4067   28.4018 H         1 UNK         0.0000 
     28 H28         2.9207   55.3557   30.0794 H         1 UNK         0.0000 
     29 H29         2.7036   55.9709   28.4818 H         1 UNK         0.0000 
     30 H30         2.6903   51.9243   28.5406 H         1 UNK         0.0000 
     31 H31         4.3000   51.9711   29.0812 H         1 UNK         0.0000 
     32 H32         3.3683   53.2655   31.1605 H         1 UNK         0.0000 
     33 H33         3.1841   51.5587   31.0287 H         1 UNK         0.0000 
     34 H34         4.9612   52.7203   27.2702 H         1 UNK         0.0000 
     35 H35         6.2476   55.6399   29.7806 H         1 UNK         0.0000 
     36 H36         4.5408   55.8506   30.0452 H         1 UNK         0.0000 
     37 H37         4.1225   54.3458   26.4956 H         1 UNK         0.0000 
     38 H38         1.3116   54.8152   23.8583 H         1 UNK         0.0000 
     39 H39         0.5123   53.2195   24.1432 H         1 UNK         0.0000 
     40 H40         1.0157   53.6127   21.7320 H         1 UNK         0.0000 
     41 H41         1.7839   52.1969   22.3733 H         1 UNK         0.0000 
     42 H42         3.1041   54.8969   21.8386 H         1 UNK         0.0000 
     43 H43         3.4205   53.3950   20.9934 H         1 UNK         0.0000 
     44 H44         4.8141   53.6954   24.8231 H         1 UNK         0.0000 
     45 H45         3.8393   55.0540   24.2308 H         1 UNK         0.0000 
@<TRIPOS>BOND
     1    1    7 1    
     2    1    2 1    
     3    1   22 1    
     4    1   23 1    
     5    2    3 1    
     6    2   24 1    
     7    2   25 1    
     8    3    4 1    
     9    3   26 1    
    10    3   27 1    
    11    4    5 1    
    12    4   28 1    
    13    4   29 1    
    14    5    6 1    
    15    5    8 1    
    16    5   12 1    
    17    6    7 1    
    18    6   30 1    
    19    6   31 1    
    20    7   32 1    
    21    7   33 1    
    22    8    9 2    
    23    8   11 1    
    24    9   10 1    
    25   10   34 1    
    26   11   35 1    
    27   11   36 1    
    28   12   13 am   BACKBONE|DICT|INTERRES
    29   12   37 1    
    30   13   14 2    
    31   13   15 1    
    32   15   16 1    
    33   15   21 1    
    34   15   17 1    
    35   17   18 1    
    36   17   38 1    
    37   17   39 1    
    38   18   19 1    
    39   18   40 1    
    40   18   41 1    
    41   19   20 1    
    42   19   42 1    
    43   19   43 1    
    44   20   21 1    
    45   21   44 1    
    46   21   45 1    
@<TRIPOS>SUBSTRUCTURE
     1 UNK         1 GROUP             0       ****    0 ROOT    
