ZINC15087694_4206
                    3D
 Schrodinger Suite 2024-2.
 58 62  0  0  1  0            999 V2000
   -6.0441   48.4719   21.6729 C   0  0  0  0  0  0
   -4.7022   49.1825   21.6800 C   0  0  0  0  0  0
   -4.4852   50.2402   22.5633 C   0  0  0  0  0  0
   -3.2577   50.8952   22.5789 C   0  0  0  0  0  0
   -2.2146   50.4842   21.7299 C   0  0  0  0  0  0
   -2.4459   49.4102   20.8515 C   0  0  0  0  0  0
   -3.6803   48.7663   20.8260 C   0  0  0  0  0  0
   -0.9408   51.1254   21.7737 N   0  0  0  0  0  0
   -0.3189   51.5036   22.9353 C   0  0  0  0  0  0
   -0.7702   51.4667   24.0788 O   0  0  0  0  0  0
    1.1021   51.9320   22.5842 C   0  0  1  0  0  0
    1.6959   51.0232   22.7200 H   0  0  0  0  0  0
    0.9725   52.2649   21.1396 C   0  0  2  0  0  0
    0.6879   53.2965   20.9710 H   0  0  0  0  0  0
   -0.1858   51.4128   20.6685 C   0  0  0  0  0  0
   -0.4208   51.1446   19.4903 O   0  0  0  0  0  0
    2.5455   52.0893   20.2706 S   0  0  0  0  0  0
    3.5516   52.9898   21.4739 C   0  0  0  0  0  0
    3.1797   53.3028   22.7443 C   0  0  0  0  0  0
    4.4941   54.0974   23.5999 S   0  0  0  0  0  0
    5.5045   54.1061   22.1171 C   0  0  0  0  0  0
    6.6281   54.6072   22.0821 O   0  0  0  0  0  0
    4.7677   53.5007   21.0872 N   0  0  0  0  0  0
    5.3194   53.4235   19.7024 C   0  0  0  0  0  0
    5.6330   54.8207   19.1276 C   0  0  0  0  0  0
    4.7102   55.5323   18.7418 O   0  0  0  0  0  0
    6.9420   55.1509   19.0872 N   0  0  0  0  0  0
    7.5555   56.3610   18.7174 C   0  0  0  0  0  0
    8.9385   56.3084   18.5200 C   0  0  0  0  0  0
    9.6481   57.4609   18.1956 C   0  0  0  0  0  0
    8.9803   58.6770   18.0821 C   0  0  0  0  0  0
    7.6024   58.7435   18.2770 C   0  0  0  0  0  0
    6.8843   57.5882   18.5914 C   0  0  0  0  0  0
    9.6840   59.8175   17.8085 O   0  0  0  0  0  0
    1.8130   53.0389   23.4262 C   0  0  0  0  0  0
    2.0693   52.5806   24.8793 C   0  0  0  0  0  0
    1.1048   54.4090   23.4510 C   0  0  0  0  0  0
   -6.4307   48.3816   22.6882 H   0  0  0  0  0  0
   -6.7713   49.0294   21.0813 H   0  0  0  0  0  0
   -5.9603   47.4591   21.2771 H   0  0  0  0  0  0
   -5.2706   50.5666   23.2303 H   0  0  0  0  0  0
   -3.1247   51.7198   23.2638 H   0  0  0  0  0  0
   -1.6693   49.0550   20.1880 H   0  0  0  0  0  0
   -3.8405   47.9431   20.1435 H   0  0  0  0  0  0
    4.6402   52.9353   19.0058 H   0  0  0  0  0  0
    6.2114   52.8017   19.6815 H   0  0  0  0  0  0
    7.5901   54.4320   19.3687 H   0  0  0  0  0  0
    9.4761   55.3779   18.6257 H   0  0  0  0  0  0
   10.7173   57.4029   18.0591 H   0  0  0  0  0  0
    7.1001   59.6966   18.1892 H   0  0  0  0  0  0
    5.8211   57.6776   18.7505 H   0  0  0  0  0  0
   10.5737   59.6246   17.5069 H   0  0  0  0  0  0
    1.1523   52.3273   25.4053 H   0  0  0  0  0  0
    2.7001   51.7050   24.8726 H   0  0  0  0  0  0
    2.5684   53.3376   25.4845 H   0  0  0  0  0  0
    0.0741   54.3208   23.7969 H   0  0  0  0  0  0
    1.6175   55.1022   24.1126 H   0  0  0  0  0  0
    1.1047   54.8958   22.4819 H   0  0  0  0  0  0
  1  2  1  0  0  0
  1 38  1  0  0  0
  1 39  1  0  0  0
  1 40  1  0  0  0
  2  7  2  0  0  0
  2  3  1  0  0  0
  3  4  2  0  0  0
  3 41  1  0  0  0
  4  5  1  0  0  0
  4 42  1  0  0  0
  5  6  2  0  0  0
  5  8  1  0  0  0
  6  7  1  0  0  0
  6 43  1  0  0  0
  7 44  1  0  0  0
  8 15  1  0  0  0
  8  9  1  0  0  0
  9 10  2  0  0  0
  9 11  1  0  0  0
 11 12  1  0  0  0
 11 35  1  0  0  0
 11 13  1  0  0  0
 13 14  1  0  0  0
 13 15  1  0  0  0
 13 17  1  0  0  0
 15 16  2  0  0  0
 17 18  1  0  0  0
 18 23  1  0  0  0
 18 19  2  0  0  0
 19 20  1  0  0  0
 19 35  1  0  0  0
 20 21  1  0  0  0
 21 22  2  0  0  0
 21 23  1  0  0  0
 23 24  1  0  0  0
 24 25  1  0  0  0
 24 45  1  0  0  0
 24 46  1  0  0  0
 25 26  2  0  0  0
 25 27  1  0  0  0
 27 28  1  0  0  0
 27 47  1  0  0  0
 28 33  2  0  0  0
 28 29  1  0  0  0
 29 30  2  0  0  0
 29 48  1  0  0  0
 30 31  1  0  0  0
 30 49  1  0  0  0
 31 32  2  0  0  0
 31 34  1  0  0  0
 32 33  1  0  0  0
 32 50  1  0  0  0
 33 51  1  0  0  0
 34 52  1  0  0  0
 35 36  1  0  0  0
 35 37  1  0  0  0
 36 53  1  0  0  0
 36 54  1  0  0  0
 36 55  1  0  0  0
 37 56  1  0  0  0
 37 57  1  0  0  0
 37 58  1  0  0  0
M  END
> <i_i_glide_confnum>
72

> <i_i_glide_lignum>
4207

> <i_i_glide_posenum>
386

> <i_i_glide_rotatable_bonds>
6

> <i_m_Source_File_Index>
3677

> <b_m_subgroup_collapsed>
0

> <r_i_docking_score>
-2.81988

> <r_i_glide_ecoul>
-1.99569

> <r_i_glide_eff_state_penalty>
0

> <r_i_glide_einternal>
7.53018

> <r_i_glide_emodel>
-38.7567

> <r_i_glide_energy>
-33.5691

> <r_i_glide_erotb>
0.394333

> <r_i_glide_esite>
-0.00859103

> <r_i_glide_evdw>
-31.5734

> <r_i_glide_gscore>
-2.81988

> <r_i_glide_hbond>
0

> <r_i_glide_ligand_efficiency>
-0.080568

> <r_i_glide_ligand_efficiency_ln>
-0.619027

> <r_i_glide_ligand_efficiency_sa>
-0.263543

> <r_i_glide_lipo>
-1.11807

> <r_i_glide_metal>
0

> <r_i_glide_rewards>
-0.209525

> <s_i_glide_gridfile>
wee1_glide-grid

> <s_m_Source_File>
wee1_decoys_glide_SP.sdf

> <s_m_Source_Path>
/Users/zhangxujun/Desktop

> <s_m_entry_id>
3952

> <s_m_entry_name>
wee1_decoys_glide_SP.3677

> <s_m_subgroup_title>
wee1_decoys_glide_SP

> <s_m_subgroupid>
wee1_decoys_glide_SP


$$$$
