ZINC02506497_662
                    3D
 Schrodinger Suite 2024-2.
 50 53  0  0  1  0            999 V2000
    0.3057   53.7485   30.8759 C   0  0  0  0  0  0
    0.1877   52.5282   30.2150 C   0  0  0  0  0  0
    0.6919   52.3876   28.9246 C   0  0  0  0  0  0
    1.2980   53.4737   28.2797 C   0  0  0  0  0  0
    1.4232   54.6915   28.9629 C   0  0  0  0  0  0
    0.9261   54.8295   30.2555 C   0  0  0  0  0  0
    1.8093   53.3489   26.8704 C   0  0  0  0  0  0
    1.2497   52.6418   25.7740 C   0  0  0  0  0  0
    2.1350   52.9231   24.7422 C   0  0  0  0  0  0
    3.1503   53.6963   25.2331 N   0  0  0  0  0  0
    2.9357   53.9570   26.5331 N   0  0  0  0  0  0
    4.3210   54.1164   24.5471 C   0  0  0  0  0  0
    4.3556   54.0967   23.1420 C   0  0  0  0  0  0
    5.5158   54.4542   22.4621 C   0  0  0  0  0  0
    6.6434   54.8432   23.1788 C   0  0  0  0  0  0
    6.6207   54.8729   24.5702 C   0  0  0  0  0  0
    5.4646   54.5101   25.2583 C   0  0  0  0  0  0
    0.0512   51.8107   25.6646 C   0  0  0  0  0  0
   -0.1263   51.1587   24.5916 N   0  0  0  0  0  0
   -1.2370   50.3931   24.5460 N   0  0  0  0  0  0
   -1.5892   49.5797   23.5156 C   0  0  0  0  0  0
   -2.5404   48.8023   23.6527 O   0  0  0  0  0  0
   -0.8140   49.6302   22.2211 C   0  0  0  0  0  0
   -0.1967   50.6249   21.8282 O   0  0  0  0  0  0
   -0.8925   48.4678   21.5357 N   0  0  0  0  0  0
   -0.2076   48.0915   20.3651 C   0  0  0  0  0  0
   -0.8025   47.0937   19.5900 C   0  0  0  0  0  0
   -0.1667   46.6279   18.4446 C   0  0  0  0  0  0
    1.0725   47.1476   18.0762 C   0  0  0  0  0  0
    1.6828   48.1363   18.8473 C   0  0  0  0  0  0
    1.0463   48.6109   19.9933 C   0  0  0  0  0  0
    1.9309   46.4973   16.5038 Br  0  0  0  0  0  0
   -0.0868   53.8501   31.8790 H   0  0  0  0  0  0
   -0.2942   51.6967   30.7108 H   0  0  0  0  0  0
    0.6076   51.4265   28.4356 H   0  0  0  0  0  0
    1.8926   55.5387   28.4853 H   0  0  0  0  0  0
    1.0183   55.7729   30.7753 H   0  0  0  0  0  0
    2.1315   52.5870   23.7169 H   0  0  0  0  0  0
    3.4961   53.8101   22.5534 H   0  0  0  0  0  0
    5.5407   54.4321   21.3819 H   0  0  0  0  0  0
    7.5405   55.1251   22.6487 H   0  0  0  0  0  0
    7.5039   55.1726   25.1126 H   0  0  0  0  0  0
    5.4734   54.5250   26.3404 H   0  0  0  0  0  0
   -0.6071   51.8100   26.5286 H   0  0  0  0  0  0
   -1.7695   50.3579   25.4039 H   0  0  0  0  0  0
   -1.5264   47.7805   21.9219 H   0  0  0  0  0  0
   -1.7632   46.6807   19.8665 H   0  0  0  0  0  0
   -0.6329   45.8639   17.8403 H   0  0  0  0  0  0
    2.6467   48.5339   18.5515 H   0  0  0  0  0  0
    1.5480   49.3587   20.5881 H   0  0  0  0  0  0
  1  6  2  0  0  0
  1  2  1  0  0  0
  1 33  1  0  0  0
  2  3  2  0  0  0
  2 34  1  0  0  0
  3  4  1  0  0  0
  3 35  1  0  0  0
  4  5  2  0  0  0
  4  7  1  0  0  0
  5  6  1  0  0  0
  5 36  1  0  0  0
  6 37  1  0  0  0
  7 11  2  0  0  0
  7  8  1  0  0  0
  8  9  2  0  0  0
  8 18  1  0  0  0
  9 10  1  0  0  0
  9 38  1  0  0  0
 10 11  1  0  0  0
 10 12  1  0  0  0
 12 17  2  0  0  0
 12 13  1  0  0  0
 13 14  2  0  0  0
 13 39  1  0  0  0
 14 15  1  0  0  0
 14 40  1  0  0  0
 15 16  2  0  0  0
 15 41  1  0  0  0
 16 17  1  0  0  0
 16 42  1  0  0  0
 17 43  1  0  0  0
 18 19  2  0  0  0
 18 44  1  0  0  0
 19 20  1  0  0  0
 20 21  1  0  0  0
 20 45  1  0  0  0
 21 22  2  0  0  0
 21 23  1  0  0  0
 23 24  2  0  0  0
 23 25  1  0  0  0
 25 26  1  0  0  0
 25 46  1  0  0  0
 26 31  2  0  0  0
 26 27  1  0  0  0
 27 28  2  0  0  0
 27 47  1  0  0  0
 28 29  1  0  0  0
 28 48  1  0  0  0
 29 30  2  0  0  0
 29 32  1  0  0  0
 30 31  1  0  0  0
 30 49  1  0  0  0
 31 50  1  0  0  0
M  END
> <i_i_glide_confnum>
134

> <i_i_glide_lignum>
663

> <i_i_glide_posenum>
221

> <i_i_glide_rotatable_bonds>
8

> <i_m_Source_File_Index>
1781

> <b_m_subgroup_collapsed>
0

> <r_i_docking_score>
-5.39274

> <r_i_glide_ecoul>
-2.00129

> <r_i_glide_eff_state_penalty>
0

> <r_i_glide_einternal>
8.26468

> <r_i_glide_emodel>
-57.1879

> <r_i_glide_energy>
-46.5305

> <r_i_glide_erotb>
0.596925

> <r_i_glide_esite>
-0.0183395

> <r_i_glide_evdw>
-44.5292

> <r_i_glide_gscore>
-5.39274

> <r_i_glide_hbond>
0

> <r_i_glide_ligand_efficiency>
-0.168523

> <r_i_glide_ligand_efficiency_ln>
-1.20758

> <r_i_glide_ligand_efficiency_sa>
-0.535027

> <r_i_glide_lipo>
-2.96908

> <r_i_glide_metal>
0

> <r_i_glide_rewards>
-0.475585

> <s_i_glide_gridfile>
wee1_glide-grid

> <s_m_Source_File>
wee1_decoys_glide_SP.sdf

> <s_m_Source_Path>
/Users/zhangxujun/Desktop

> <s_m_entry_id>
2056

> <s_m_entry_name>
wee1_decoys_glide_SP.1781

> <s_m_subgroup_title>
wee1_decoys_glide_SP

> <s_m_subgroupid>
wee1_decoys_glide_SP


$$$$
