@<TRIPOS>MOLECULE
ZINC59844913_2128
50   53    1
SMALL
USER_CHARGES


@<TRIPOS>ATOM
      1 C1          6.9192   54.5860   27.2816 C.ar      1 UNK         0.0000 
      2 C2          6.0598   53.6587   27.8635 C.ar      1 UNK         0.0000 
      3 C3          4.8242   53.4070   27.2767 C.ar      1 UNK         0.0000 
      4 C4          4.4477   54.0967   26.1183 C.ar      1 UNK         0.0000 
      5 C5          5.2983   55.0613   25.5764 C.ar      1 UNK         0.0000 
      6 C6          6.5379   55.2967   26.1479 C.ar      1 UNK         0.0000 
      7 N7          3.2282   53.7902   25.4648 N.pl3     1 UNK         0.0000 
      8 C8          1.9848   53.5466   26.0287 C.ar      1 UNK         0.0000 
      9 N9          1.1049   53.2728   25.0961 N.2       1 UNK         0.0000 
     10 N10         1.7567   53.3297   23.8757 N.2       1 UNK         0.0000 
     11 C11         3.0156   53.6181   24.1028 C.ar      1 UNK         0.0000 
     12 S12         4.2714   53.6966   22.8405 S.3       1 UNK         0.0000 
     13 C13         3.3114   53.4267   21.3132 C.3       1 UNK         0.0000 
     14 C14         3.1971   51.9815   20.8220 C.2       1 UNK         0.0000 
     15 O15         3.5033   51.0379   21.5522 O.2       1 UNK         0.0000 
     16 N16         2.6965   51.8505   19.5762 N.am      1 UNK         0.0000 
     17 N17         2.4469   50.5823   19.0563 N.am      1 UNK         0.0000 
     18 C18         1.1891   50.0876   19.1130 C.2       1 UNK         0.0000 
     19 O19         0.2355   50.6918   19.6120 O.2       1 UNK         0.0000 
     20 C20         0.9274   48.6856   18.5310 C.3       1 UNK         0.0000 
     21 C21         1.1567   48.5868   17.0124 C.3       1 UNK         0.0000 
     22 C22         1.7458   47.1899   17.2803 C.3       1 UNK         0.0000 
     23 C23         2.0663   47.6624   18.7087 C.3       1 UNK         0.0000 
     24 C24         1.6318   53.6053   27.4866 C.ar      1 UNK         0.0000 
     25 C25         1.9312   54.7695   28.2053 C.ar      1 UNK         0.0000 
     26 C26         1.5710   54.8978   29.5456 C.ar      1 UNK         0.0000 
     27 C27         0.9091   53.8526   30.1895 C.ar      1 UNK         0.0000 
     28 C28         0.6207   52.6807   29.4934 C.ar      1 UNK         0.0000 
     29 C29         0.9826   52.5494   28.1514 C.ar      1 UNK         0.0000 
     30 Br30        0.5965   50.8975   27.2794 Br        1 UNK         0.0000 
     31 H31         7.8915   54.7671   27.7197 H         1 UNK         0.0000 
     32 H32         6.3592   53.1279   28.7517 H         1 UNK         0.0000 
     33 H33         4.1845   52.6483   27.7087 H         1 UNK         0.0000 
     34 H34         5.0244   55.6183   24.6956 H         1 UNK         0.0000 
     35 H35         7.1799   56.0357   25.6972 H         1 UNK         0.0000 
     36 H36         3.7791   54.0274   20.5331 H         1 UNK         0.0000 
     37 H37         2.3047   53.8074   21.4461 H         1 UNK         0.0000 
     38 H38         2.5287   52.6017   18.9233 H         1 UNK         0.0000 
     39 H39         3.2336   50.1757   18.5599 H         1 UNK         0.0000 
     40 H40        -0.0514   48.3003   18.8338 H         1 UNK         0.0000 
     41 H41         1.9044   49.2739   16.6062 H         1 UNK         0.0000 
     42 H42         0.2623   48.6212   16.3904 H         1 UNK         0.0000 
     43 H43         2.6114   46.9216   16.6728 H         1 UNK         0.0000 
     44 H44         1.0086   46.3866   17.2366 H         1 UNK         0.0000 
     45 H45         1.9048   46.9276   19.4978 H         1 UNK         0.0000 
     46 H46         3.0785   48.0704   18.7786 H         1 UNK         0.0000 
     47 H47         2.4372   55.5905   27.7181 H         1 UNK         0.0000 
     48 H48         1.7985   55.8092   30.0810 H         1 UNK         0.0000 
     49 H49         0.6200   53.9470   31.2252 H         1 UNK         0.0000 
     50 H50         0.1129   51.8684   29.9961 H         1 UNK         0.0000 
@<TRIPOS>BOND
     1    1    6 ar   
     2    1    2 ar   
     3    1   31 1    
     4    2    3 ar   
     5    2   32 1    
     6    3    4 ar   
     7    3   33 1    
     8    4    5 ar   
     9    4    7 1    
    10    5    6 ar   
    11    5   34 1    
    12    6   35 1    
    13    7   11 ar   
    14    7    8 ar   
    15    8    9 ar   
    16    8   24 1    
    17    9   10 ar   
    18   10   11 ar   
    19   11   12 1    
    20   12   13 1    
    21   13   14 1    
    22   13   36 1    
    23   13   37 1    
    24   14   15 2    
    25   14   16 am   BACKBONE|DICT|INTERRES
    26   16   17 1    
    27   16   38 1    
    28   17   18 am   BACKBONE|DICT|INTERRES
    29   17   39 1    
    30   18   19 2    
    31   18   20 1    
    32   20   23 1    
    33   20   21 1    
    34   20   40 1    
    35   21   22 1    
    36   21   41 1    
    37   21   42 1    
    38   22   23 1    
    39   22   43 1    
    40   22   44 1    
    41   23   45 1    
    42   23   46 1    
    43   24   29 ar   
    44   24   25 ar   
    45   25   26 ar   
    46   25   47 1    
    47   26   27 ar   
    48   26   48 1    
    49   27   28 ar   
    50   27   49 1    
    51   28   29 ar   
    52   28   50 1    
    53   29   30 1    
@<TRIPOS>SUBSTRUCTURE
     1 UNK         1 GROUP             0       ****    0 ROOT    
