@<TRIPOS>MOLECULE
ZINC12659089_2952
58   60    1
SMALL
USER_CHARGES


@<TRIPOS>ATOM
      1 C1         -1.0545   48.3158   24.0249 C.3       1 UNK         0.0000 
      2 C2         -0.1687   49.5696   24.0452 C.3       1 UNK         0.0000 
      3 C3          0.5481   49.7135   25.4023 C.3       1 UNK         0.0000 
      4 O4          0.7505   49.4303   22.9586 O.3       1 UNK         0.0000 
      5 C5          1.5405   50.4859   22.5406 C.ar      1 UNK         0.0000 
      6 C6          2.4774   50.1940   21.5512 C.ar      1 UNK         0.0000 
      7 C7          3.3436   51.1759   21.0792 C.ar      1 UNK         0.0000 
      8 C8          3.2939   52.4683   21.6037 C.ar      1 UNK         0.0000 
      9 C9          2.3204   52.7838   22.5598 C.ar      1 UNK         0.0000 
     10 C10         1.4483   51.7998   23.0258 C.ar      1 UNK         0.0000 
     11 C11         4.2913   53.4524   21.1247 C.2       1 UNK         0.0000 
     12 C12         5.0592   54.2925   21.8766 C.2       1 UNK         0.0000 
     13 C13         5.9845   55.2575   21.2446 C.2       1 UNK         0.0000 
     14 O14         6.7634   55.9451   21.9078 O.2       1 UNK         0.0000 
     15 N15         5.9240   55.3881   19.8971 N.am      1 UNK         0.0000 
     16 C16         6.7238   56.2612   19.1483 C.ar      1 UNK         0.0000 
     17 C17         6.0981   57.2001   18.3305 C.ar      1 UNK         0.0000 
     18 C18         6.8686   58.1049   17.6029 C.ar      1 UNK         0.0000 
     19 C19         8.2704   58.0632   17.6769 C.ar      1 UNK         0.0000 
     20 C20         8.8839   57.1013   18.4800 C.ar      1 UNK         0.0000 
     21 C21         8.1201   56.1982   19.2123 C.ar      1 UNK         0.0000 
     22 O22         9.1110   58.9252   16.9999 O.3       1 UNK         0.0000 
     23 C23         8.5447   59.9016   16.1316 C.3       1 UNK         0.0000 
     24 N24         4.9389   54.2614   23.2522 N.am      1 UNK         0.0000 
     25 C25         5.9158   54.0969   24.1775 C.2       1 UNK         0.0000 
     26 O26         7.1043   53.9247   23.8921 O.2       1 UNK         0.0000 
     27 C27         5.4810   54.1102   25.6322 C.ar      1 UNK         0.0000 
     28 C28         6.4537   54.1007   26.6461 C.ar      1 UNK         0.0000 
     29 C29         6.0946   54.0956   27.9919 C.ar      1 UNK         0.0000 
     30 C30         4.7512   54.0948   28.3538 C.ar      1 UNK         0.0000 
     31 C31         3.7671   54.0986   27.3685 C.ar      1 UNK         0.0000 
     32 C32         4.1256   54.1082   26.0193 C.ar      1 UNK         0.0000 
     33 Br33        1.9319   54.0948   27.8678 Br        1 UNK         0.0000 
     34 H34        -1.7947   48.3401   24.8260 H         1 UNK         0.0000 
     35 H35        -1.5883   48.2309   23.0775 H         1 UNK         0.0000 
     36 H36        -0.4571   47.4125   24.1532 H         1 UNK         0.0000 
     37 H37        -0.8179   50.4319   23.8750 H         1 UNK         0.0000 
     38 H38        -0.1643   49.7030   26.2277 H         1 UNK         0.0000 
     39 H39         1.2505   48.8954   25.5652 H         1 UNK         0.0000 
     40 H40         1.1011   50.6466   25.4772 H         1 UNK         0.0000 
     41 H41         2.5465   49.1913   21.1566 H         1 UNK         0.0000 
     42 H42         4.0690   50.9195   20.3179 H         1 UNK         0.0000 
     43 H43         2.2296   53.7914   22.9380 H         1 UNK         0.0000 
     44 H44         0.7142   52.0735   23.7659 H         1 UNK         0.0000 
     45 H45         4.3673   53.4620   20.0466 H         1 UNK         0.0000 
     46 H46         5.1724   54.9355   19.4022 H         1 UNK         0.0000 
     47 H47         5.0201   57.2533   18.2740 H         1 UNK         0.0000 
     48 H48         6.3587   58.8409   16.9998 H         1 UNK         0.0000 
     49 H49         9.9620   57.0581   18.5430 H         1 UNK         0.0000 
     50 H50         8.6129   55.4688   19.8405 H         1 UNK         0.0000 
     51 H51         9.3454   60.4813   15.6709 H         1 UNK         0.0000 
     52 H52         7.9050   60.5976   16.6760 H         1 UNK         0.0000 
     53 H53         7.9671   59.4404   15.3291 H         1 UNK         0.0000 
     54 H54         4.0185   54.0228   23.5849 H         1 UNK         0.0000 
     55 H55         7.5045   54.0945   26.3982 H         1 UNK         0.0000 
     56 H56         6.8613   54.0961   28.7549 H         1 UNK         0.0000 
     57 H57         4.4725   54.0931   29.3962 H         1 UNK         0.0000 
     58 H58         3.3276   54.1024   25.2910 H         1 UNK         0.0000 
@<TRIPOS>BOND
     1    1    2 1    
     2    1   34 1    
     3    1   35 1    
     4    1   36 1    
     5    2    3 1    
     6    2    4 1    
     7    2   37 1    
     8    3   38 1    
     9    3   39 1    
    10    3   40 1    
    11    4    5 1    
    12    5   10 ar   
    13    5    6 ar   
    14    6    7 ar   
    15    6   41 1    
    16    7    8 ar   
    17    7   42 1    
    18    8    9 ar   
    19    8   11 1    
    20    9   10 ar   
    21    9   43 1    
    22   10   44 1    
    23   11   12 2    
    24   11   45 1    
    25   12   13 1    
    26   12   24 1    
    27   13   14 2    
    28   13   15 am   BACKBONE|DICT|INTERRES
    29   15   16 1    
    30   15   46 1    
    31   16   21 ar   
    32   16   17 ar   
    33   17   18 ar   
    34   17   47 1    
    35   18   19 ar   
    36   18   48 1    
    37   19   20 ar   
    38   19   22 1    
    39   20   21 ar   
    40   20   49 1    
    41   21   50 1    
    42   22   23 1    
    43   23   51 1    
    44   23   52 1    
    45   23   53 1    
    46   24   25 am   BACKBONE|DICT|INTERRES
    47   24   54 1    
    48   25   26 2    
    49   25   27 1    
    50   27   32 ar   
    51   27   28 ar   
    52   28   29 ar   
    53   28   55 1    
    54   29   30 ar   
    55   29   56 1    
    56   30   31 ar   
    57   30   57 1    
    58   31   32 ar   
    59   31   33 1    
    60   32   58 1    
@<TRIPOS>SUBSTRUCTURE
     1 UNK         1 GROUP             0       ****    0 ROOT    
