ZINC39637477_4079
                    3D
 Schrodinger Suite 2024-2.
 69 72  0  0  1  0            999 V2000
    5.4237   55.1807   14.3718 C   0  0  0  0  0  0
    4.8274   54.0233   15.1957 C   0  0  2  0  0  0
    5.6129   53.2733   15.3068 H   0  0  0  0  0  0
    3.6473   53.3572   14.4583 C   0  0  0  0  0  0
    3.1635   52.1067   15.2108 C   0  0  0  0  0  0
    2.7874   52.4249   16.6727 C   0  0  0  0  0  0
    3.8833   53.2116   17.4338 C   0  0  1  0  0  0
    4.7094   52.4968   17.4545 H   0  0  0  0  0  0
    4.3982   54.4481   16.6306 C   0  0  2  0  0  0
    5.3257   54.7524   17.1180 H   0  0  0  0  0  0
    3.4244   55.6493   16.7068 C   0  0  0  0  0  0
    3.5042   53.4660   18.8247 N   0  0  0  0  0  0
    4.3630   53.6802   19.8301 C   0  0  0  0  0  0
    5.5830   53.6529   19.6654 O   0  0  0  0  0  0
    3.7285   53.8817   21.2332 C   0  0  2  0  0  0
    3.2235   54.8480   21.2602 H   0  0  0  0  0  0
    4.8804   54.0182   22.2402 C   0  0  0  0  0  0
    4.2428   53.7536   23.5274 N   0  0  0  0  0  0
    2.9860   53.0319   23.3370 C   0  0  0  0  0  0
    2.8816   52.7171   21.8283 C   0  0  0  0  0  0
    3.4354   51.3028   21.4531 C   0  0  0  0  0  0
    2.6849   50.1541   22.1646 C   0  0  0  0  0  0
    1.1877   50.2579   21.8020 N   0  3  0  0  0  0
    0.5650   51.6439   22.0891 C   0  0  0  0  0  0
    1.4074   52.7209   21.3709 C   0  0  0  0  0  0
    4.7776   54.2835   24.6600 C   0  0  0  0  0  0
    5.8428   54.9096   24.5966 O   0  0  0  0  0  0
    4.1467   54.1113   26.0370 C   0  0  0  0  0  0
    4.9414   54.4356   27.1411 C   0  0  0  0  0  0
    4.4573   54.3587   28.4341 C   0  0  0  0  0  0
    3.1648   53.9012   28.6900 C   0  0  0  0  0  0
    2.3408   53.5856   27.6049 C   0  0  0  0  0  0
    2.8232   53.7006   26.2980 C   0  0  0  0  0  0
    0.7069   53.0792   27.8545 Cl  0  0  0  0  0  0
    2.7101   53.7984   29.9846 O   0  0  0  0  0  0
    2.8507   52.4979   30.5448 C   0  0  0  0  0  0
    5.4933   54.8968   29.6816 Cl  0  0  0  0  0  0
    4.6784   55.9387   14.1321 H   0  0  0  0  0  0
    6.2362   55.6689   14.9093 H   0  0  0  0  0  0
    5.8311   54.8193   13.4274 H   0  0  0  0  0  0
    2.8360   54.0687   14.3028 H   0  0  0  0  0  0
    3.9599   53.0719   13.4528 H   0  0  0  0  0  0
    2.3122   51.6622   14.6946 H   0  0  0  0  0  0
    3.9483   51.3482   15.2014 H   0  0  0  0  0  0
    1.8639   53.0045   16.6700 H   0  0  0  0  0  0
    2.5732   51.4890   17.1926 H   0  0  0  0  0  0
    2.4693   55.4271   16.2337 H   0  0  0  0  0  0
    3.8361   56.5330   16.2214 H   0  0  0  0  0  0
    3.2195   55.9316   17.7399 H   0  0  0  0  0  0
    2.5290   53.6549   18.9964 H   0  0  0  0  0  0
    5.6103   53.2197   22.0914 H   0  0  0  0  0  0
    5.3574   54.9961   22.1486 H   0  0  0  0  0  0
    2.2158   53.7804   23.5278 H   0  0  0  0  0  0
    2.7597   52.1930   23.9928 H   0  0  0  0  0  0
    3.4255   51.1382   20.3732 H   0  0  0  0  0  0
    4.4880   51.2387   21.7284 H   0  0  0  0  0  0
    3.0125   49.1715   21.8198 H   0  0  0  0  0  0
    2.7302   50.1709   23.2537 H   0  0  0  0  0  0
    1.0861   50.0565   20.8159 H   0  0  0  0  0  0
   -0.4608   51.6029   21.7186 H   0  0  0  0  0  0
    0.5427   51.7596   23.1741 H   0  0  0  0  0  0
    0.9995   53.6922   21.6572 H   0  0  0  0  0  0
    1.3115   52.6528   20.2870 H   0  0  0  0  0  0
    5.9573   54.7848   27.0131 H   0  0  0  0  0  0
    2.1049   53.4873   25.5322 H   0  0  0  0  0  0
    2.4411   52.4912   31.5549 H   0  0  0  0  0  0
    2.3118   51.7450   29.9661 H   0  0  0  0  0  0
    3.8999   52.2033   30.6086 H   0  0  0  0  0  0
    0.6710   49.5425   22.2961 H   0  0  0  0  0  0
  1  2  1  0  0  0
  1 38  1  0  0  0
  1 39  1  0  0  0
  1 40  1  0  0  0
  2  3  1  0  0  0
  2  9  1  0  0  0
  2  4  1  0  0  0
  4  5  1  0  0  0
  4 41  1  0  0  0
  4 42  1  0  0  0
  5  6  1  0  0  0
  5 43  1  0  0  0
  5 44  1  0  0  0
  6  7  1  0  0  0
  6 45  1  0  0  0
  6 46  1  0  0  0
  7  8  1  0  0  0
  7  9  1  0  0  0
  7 12  1  0  0  0
  9 10  1  0  0  0
  9 11  1  0  0  0
 11 47  1  0  0  0
 11 48  1  0  0  0
 11 49  1  0  0  0
 12 13  1  0  0  0
 12 50  1  0  0  0
 13 14  2  0  0  0
 13 15  1  0  0  0
 15 16  1  0  0  0
 15 20  1  0  0  0
 15 17  1  0  0  0
 17 18  1  0  0  0
 17 51  1  0  0  0
 17 52  1  0  0  0
 18 19  1  0  0  0
 18 26  1  0  0  0
 19 20  1  0  0  0
 19 53  1  0  0  0
 19 54  1  0  0  0
 20 25  1  0  0  0
 20 21  1  0  0  0
 21 22  1  0  0  0
 21 55  1  0  0  0
 21 56  1  0  0  0
 22 23  1  0  0  0
 22 57  1  0  0  0
 22 58  1  0  0  0
 23 24  1  0  0  0
 23 59  1  0  0  0
 23 69  1  0  0  0
 24 25  1  0  0  0
 24 60  1  0  0  0
 24 61  1  0  0  0
 25 62  1  0  0  0
 25 63  1  0  0  0
 26 27  2  0  0  0
 26 28  1  0  0  0
 28 33  2  0  0  0
 28 29  1  0  0  0
 29 30  2  0  0  0
 29 64  1  0  0  0
 30 31  1  0  0  0
 30 37  1  0  0  0
 31 32  2  0  0  0
 31 35  1  0  0  0
 32 33  1  0  0  0
 32 34  1  0  0  0
 33 65  1  0  0  0
 35 36  1  0  0  0
 36 66  1  0  0  0
 36 67  1  0  0  0
 36 68  1  0  0  0
M  CHG  1  23   1
M  END
> <i_i_glide_confnum>
35

> <i_i_glide_lignum>
4080

> <i_i_glide_posenum>
314

> <i_i_glide_rotatable_bonds>
6

> <i_m_Source_File_Index>
2282

> <b_m_subgroup_collapsed>
0

> <r_i_docking_score>
-5.16066

> <r_i_glide_ecoul>
-3.7092

> <r_i_glide_eff_state_penalty>
0

> <r_i_glide_einternal>
7.15042

> <r_i_glide_emodel>
-49.8534

> <r_i_glide_energy>
-38.8792

> <r_i_glide_erotb>
0.412137

> <r_i_glide_esite>
-0.0289341

> <r_i_glide_evdw>
-35.17

> <r_i_glide_gscore>
-5.16066

> <r_i_glide_hbond>
-0.434114

> <r_i_glide_ligand_efficiency>
-0.156384

> <r_i_glide_ligand_efficiency_ln>
-1.1477

> <r_i_glide_ligand_efficiency_sa>
-0.501606

> <r_i_glide_lipo>
-2.16981

> <r_i_glide_metal>
0

> <r_i_glide_rewards>
-0.625064

> <s_i_glide_gridfile>
wee1_glide-grid

> <s_m_Source_File>
wee1_decoys_glide_SP.sdf

> <s_m_Source_Path>
/Users/zhangxujun/Desktop

> <s_m_entry_id>
2557

> <s_m_entry_name>
wee1_decoys_glide_SP.2282

> <s_m_subgroup_title>
wee1_decoys_glide_SP

> <s_m_subgroupid>
wee1_decoys_glide_SP


$$$$
