ZINC24123455_483
                    3D
 Schrodinger Suite 2024-2.
 53 56  0  0  1  0            999 V2000
    2.7025   54.0952   26.2653 C   0  0  0  0  0  0
    3.0552   53.9089   24.9278 C   0  0  0  0  0  0
    4.3753   54.1106   24.5235 C   0  0  0  0  0  0
    5.3402   54.4956   25.4570 C   0  0  0  0  0  0
    4.9868   54.6765   26.7942 C   0  0  0  0  0  0
    3.6599   54.4911   27.2021 C   0  0  0  0  0  0
    3.1887   54.8495   28.9011 S   0  0  0  0  0  0
    2.3047   56.0213   28.8792 O   0  0  0  0  0  0
    4.4303   54.8861   29.6805 O   0  0  0  0  0  0
    2.2507   53.4816   29.5080 N   0  0  0  0  0  0
    2.7245   52.1062   29.3719 C   0  0  0  0  0  0
    1.9132   51.4061   28.2635 C   0  0  0  0  0  0
    0.3743   51.6637   28.3313 C   0  0  0  0  0  0
   -0.0952   53.0279   28.9294 C   0  0  0  0  0  0
    0.8640   53.6136   29.9788 C   0  0  0  0  0  0
   -0.3214   51.2961   26.9951 C   0  0  0  0  0  0
   -1.1668   52.0493   26.5013 O   0  0  0  0  0  0
    0.0052   50.0902   26.4823 N   0  0  0  0  0  0
   -0.7747   49.5236   25.4873 N   0  0  0  0  0  0
   -0.2337   49.3871   24.2590 C   0  0  0  0  0  0
    0.7903   49.9519   23.8624 O   0  0  0  0  0  0
   -0.9923   48.5343   23.3836 C   0  0  0  0  0  0
   -1.9225   47.5313   23.6732 C   0  0  0  0  0  0
   -2.3101   46.9046   22.4813 C   0  0  0  0  0  0
   -1.6111   47.5362   21.4652 C   0  0  0  0  0  0
   -0.8086   48.4978   22.0232 N   0  0  0  0  0  0
   -0.1674   49.0944   21.5178 H   0  0  0  0  0  0
   -3.5325   45.4592   22.2945 Br  0  0  0  0  0  0
    6.6654   54.7589   24.7808 C   0  0  0  0  0  0
    6.4709   54.2339   23.3574 C   0  0  0  0  0  0
    4.9659   54.0620   23.1321 C   0  0  0  0  0  0
    1.6737   53.9610   26.5669 H   0  0  0  0  0  0
    2.2955   53.6274   24.2128 H   0  0  0  0  0  0
    5.7295   54.9992   27.5108 H   0  0  0  0  0  0
    2.6118   51.6193   30.3385 H   0  0  0  0  0  0
    3.7881   52.1149   29.1270 H   0  0  0  0  0  0
    2.1618   50.3493   28.3084 H   0  0  0  0  0  0
    2.3104   51.8194   27.3408 H   0  0  0  0  0  0
    0.0580   50.8970   29.0407 H   0  0  0  0  0  0
   -0.1363   53.7928   28.1519 H   0  0  0  0  0  0
   -1.0610   52.8975   29.4135 H   0  0  0  0  0  0
    0.7710   53.0929   30.9335 H   0  0  0  0  0  0
    0.6415   54.6644   30.1660 H   0  0  0  0  0  0
    0.5308   49.3992   26.9991 H   0  0  0  0  0  0
   -1.4775   48.9012   25.8614 H   0  0  0  0  0  0
   -2.2762   47.2620   24.6588 H   0  0  0  0  0  0
   -1.6001   47.3684   20.3986 H   0  0  0  0  0  0
    6.8834   55.8276   24.7526 H   0  0  0  0  0  0
    7.4976   54.2551   25.2690 H   0  0  0  0  0  0
    6.9642   53.2651   23.2664 H   0  0  0  0  0  0
    6.9301   54.8836   22.6108 H   0  0  0  0  0  0
    4.7566   53.1272   22.6112 H   0  0  0  0  0  0
    4.5857   54.8803   22.5193 H   0  0  0  0  0  0
  1  6  2  0  0  0
  1  2  1  0  0  0
  1 32  1  0  0  0
  2  3  2  0  0  0
  2 33  1  0  0  0
  3 31  1  0  0  0
  3  4  1  0  0  0
  4  5  2  0  0  0
  4 29  1  0  0  0
  5  6  1  0  0  0
  5 34  1  0  0  0
  6  7  1  0  0  0
  7  8  2  0  0  0
  7  9  2  0  0  0
  7 10  1  0  0  0
 10 15  1  0  0  0
 10 11  1  0  0  0
 11 12  1  0  0  0
 11 35  1  0  0  0
 11 36  1  0  0  0
 12 13  1  0  0  0
 12 37  1  0  0  0
 12 38  1  0  0  0
 13 14  1  0  0  0
 13 16  1  0  0  0
 13 39  1  0  0  0
 14 15  1  0  0  0
 14 40  1  0  0  0
 14 41  1  0  0  0
 15 42  1  0  0  0
 15 43  1  0  0  0
 16 17  2  0  0  0
 16 18  1  0  0  0
 18 19  1  0  0  0
 18 44  1  0  0  0
 19 20  1  0  0  0
 19 45  1  0  0  0
 20 21  2  0  0  0
 20 22  1  0  0  0
 22 26  1  0  0  0
 22 23  2  0  0  0
 23 24  1  0  0  0
 23 46  1  0  0  0
 24 25  2  0  0  0
 24 28  1  0  0  0
 25 26  1  0  0  0
 25 47  1  0  0  0
 26 27  1  0  0  0
 29 30  1  0  0  0
 29 48  1  0  0  0
 29 49  1  0  0  0
 30 31  1  0  0  0
 30 50  1  0  0  0
 30 51  1  0  0  0
 31 52  1  0  0  0
 31 53  1  0  0  0
M  END
> <i_i_glide_confnum>
46

> <i_i_glide_lignum>
484

> <i_i_glide_posenum>
158

> <i_i_glide_rotatable_bonds>
7

> <i_m_Source_File_Index>
344

> <b_m_subgroup_collapsed>
0

> <r_i_docking_score>
-4.83128

> <r_i_glide_ecoul>
-1.8971

> <r_i_glide_eff_state_penalty>
0

> <r_i_glide_einternal>
5.80512

> <r_i_glide_emodel>
-59.6177

> <r_i_glide_energy>
-48.3337

> <r_i_glide_erotb>
0.498387

> <r_i_glide_esite>
-0.221607

> <r_i_glide_evdw>
-46.4366

> <r_i_glide_gscore>
-4.83128

> <r_i_glide_hbond>
0

> <r_i_glide_ligand_efficiency>
-0.161043

> <r_i_glide_ligand_efficiency_ln>
-1.09772

> <r_i_glide_ligand_efficiency_sa>
-0.500397

> <r_i_glide_lipo>
-2.9022

> <r_i_glide_metal>
0

> <r_i_glide_rewards>
0.400535

> <s_i_glide_gridfile>
wee1_glide-grid

> <s_m_Source_File>
wee1_decoys_glide_SP.sdf

> <s_m_Source_Path>
/Users/zhangxujun/Desktop

> <s_m_entry_id>
619

> <s_m_entry_name>
wee1_decoys_glide_SP.344

> <s_m_subgroup_title>
wee1_decoys_glide_SP

> <s_m_subgroupid>
wee1_decoys_glide_SP


$$$$
