@<TRIPOS>MOLECULE
ZINC20521026_3791
34   36    1
SMALL
USER_CHARGES


@<TRIPOS>ATOM
      1 C1          3.4526   54.2257   25.3115 C.ar      1 UNK         0.0000 
      2 C2          3.4494   54.0970   23.9236 C.ar      1 UNK         0.0000 
      3 C3          4.6538   54.0471   23.1987 C.ar      1 UNK         0.0000 
      4 C4          5.8681   54.1506   23.9171 C.ar      1 UNK         0.0000 
      5 C5          5.8597   54.2982   25.3054 C.ar      1 UNK         0.0000 
      6 C6          4.6558   54.3292   26.0025 C.ar      1 UNK         0.0000 
      7 Br7         4.6575   54.4967   27.8981 Br        1 UNK         0.0000 
      8 N8          7.1044   54.0969   23.2817 N.pl3     1 UNK         0.0000 
      9 N9          4.5960   53.8784   21.7808 N.am      1 UNK         0.0000 
     10 C10         3.8790   52.8829   21.1654 C.2       1 UNK         0.0000 
     11 O11         3.1577   52.0281   21.6818 O.2       1 UNK         0.0000 
     12 C12         4.1824   52.9765   19.6818 C.3       1 UNK         0.0000 
     13 H13         5.0103   52.2860   19.5003 H         1 UNK         0.0000 
     14 C14         3.1023   52.6227   18.6368 C.3       1 UNK         0.0000 
     15 C15         3.6807   52.8965   17.2176 C.3       1 UNK         0.0000 
     16 C16         4.3609   54.2890   17.0640 C.3       1 UNK         0.0000 
     17 C17         5.3434   54.6274   18.2191 C.3       1 UNK         0.0000 
     18 C18         4.5777   54.4006   19.5347 C.3       1 UNK         0.0000 
     19 H19         3.7199   55.0750   19.4702 H         1 UNK         0.0000 
     20 C20         5.2023   54.7123   20.8757 C.2       1 UNK         0.0000 
     21 O21         6.0360   55.5985   21.0736 O.2       1 UNK         0.0000 
     22 H22         2.5187   54.2410   25.8528 H         1 UNK         0.0000 
     23 H23         2.4996   54.0219   23.4126 H         1 UNK         0.0000 
     24 H24         6.7862   54.3673   25.8546 H         1 UNK         0.0000 
     25 H25         7.9309   54.3156   23.8276 H         1 UNK         0.0000 
     26 H26         7.0889   54.4873   22.3458 H         1 UNK         0.0000 
     27 H27         2.2203   53.2571   18.7457 H         1 UNK         0.0000 
     28 H28         2.8426   51.5631   18.6752 H         1 UNK         0.0000 
     29 H29         4.4115   52.1218   16.9797 H         1 UNK         0.0000 
     30 H30         2.8925   52.7852   16.4721 H         1 UNK         0.0000 
     31 H31         4.8827   54.3407   16.1074 H         1 UNK         0.0000 
     32 H32         3.5838   55.0546   17.0189 H         1 UNK         0.0000 
     33 H33         6.2004   53.9575   18.1253 H         1 UNK         0.0000 
     34 H34         5.6345   55.6714   18.0945 H         1 UNK         0.0000 
@<TRIPOS>BOND
     1    1    6 ar   
     2    1    2 ar   
     3    1   22 1    
     4    2    3 ar   
     5    2   23 1    
     6    3    4 ar   
     7    3    9 1    
     8    4    5 ar   
     9    4    8 1    
    10    5    6 ar   
    11    5   24 1    
    12    6    7 1    
    13    8   25 1    
    14    8   26 1    
    15    9   20 am   BACKBONE|DICT|INTERRES
    16    9   10 am   BACKBONE|DICT|INTERRES
    17   10   11 2    
    18   10   12 1    
    19   12   13 1    
    20   12   18 1    
    21   12   14 1    
    22   14   15 1    
    23   14   27 1    
    24   14   28 1    
    25   15   16 1    
    26   15   29 1    
    27   15   30 1    
    28   16   17 1    
    29   16   31 1    
    30   16   32 1    
    31   17   18 1    
    32   17   33 1    
    33   17   34 1    
    34   18   19 1    
    35   18   20 1    
    36   20   21 2    
@<TRIPOS>SUBSTRUCTURE
     1 UNK         1 GROUP             0       ****    0 ROOT    
