ZINC22346562_5743
                    3D
 Schrodinger Suite 2024-2.
 75 78  0  0  1  0            999 V2000
   -1.4885   56.9989   17.4120 C   0  0  0  0  0  0
   -0.8686   55.6335   17.1009 C   0  0  0  0  0  0
   -1.8208   54.6245   17.4320 O   0  0  0  0  0  0
   -1.3836   53.3373   17.6828 C   0  0  0  0  0  0
   -2.3132   52.4755   18.2641 C   0  0  0  0  0  0
   -1.9371   51.2007   18.6767 C   0  0  0  0  0  0
   -0.6224   50.7742   18.4924 C   0  0  0  0  0  0
    0.2966   51.5998   17.8433 C   0  0  0  0  0  0
   -0.0810   52.8782   17.4405 C   0  0  0  0  0  0
   -0.0710   49.2202   19.1978 S   0  0  0  0  0  0
   -1.2584   48.4241   19.5318 O   0  0  0  0  0  0
    0.9629   48.6950   18.3009 O   0  0  0  0  0  0
    0.7466   49.7300   20.7177 N   0  0  0  0  0  0
    2.0671   50.3341   20.5915 C   0  0  0  0  0  0
    2.0915   51.8010   21.0660 C   0  0  0  0  0  0
    1.0745   52.4966   20.9995 O   0  0  0  0  0  0
    3.2617   52.2677   21.5353 N   0  0  0  0  0  0
    3.4840   53.5978   22.1191 C   0  0  2  0  0  0
    2.7946   54.3155   21.6727 H   0  0  0  0  0  0
    4.8994   54.0674   21.7216 C   0  0  0  0  0  0
    3.1680   53.6616   23.6276 C   0  0  0  0  0  0
    4.1072   54.0968   24.5730 C   0  0  0  0  0  0
    3.7863   54.1197   25.9287 C   0  0  0  0  0  0
    2.5269   53.6964   26.3680 C   0  0  0  0  0  0
    1.5949   53.2622   25.4248 C   0  0  0  0  0  0
    1.9057   53.2588   24.0744 C   0  0  0  0  0  0
    2.1453   53.7518   27.7003 N   0  0  0  0  0  0
    1.6032   52.5465   28.3588 C   0  0  0  0  0  0
    0.6006   52.9239   29.4658 C   0  0  0  0  0  0
    1.2490   53.8340   30.5192 C   0  0  0  0  0  0
    1.8217   55.0567   29.7853 C   0  0  0  0  0  0
    2.8054   54.6410   28.6732 C   0  0  0  0  0  0
    0.2518   54.2328   31.6167 C   0  0  0  0  0  0
    0.1286   49.5763   21.9872 C   0  0  0  0  0  0
   -1.2517   49.7658   22.1468 C   0  0  0  0  0  0
   -1.8495   49.6418   23.3995 C   0  0  0  0  0  0
   -1.0705   49.3366   24.5111 C   0  0  0  0  0  0
    0.3040   49.1679   24.3781 C   0  0  0  0  0  0
    0.8983   49.2970   23.1259 C   0  0  0  0  0  0
   -0.8092   57.8054   17.1358 H   0  0  0  0  0  0
   -1.6958   57.0949   18.4778 H   0  0  0  0  0  0
   -2.4234   57.1424   16.8683 H   0  0  0  0  0  0
   -0.6013   55.5583   16.0461 H   0  0  0  0  0  0
    0.0486   55.5392   17.6827 H   0  0  0  0  0  0
   -3.3249   52.8142   18.4278 H   0  0  0  0  0  0
   -2.6601   50.5621   19.1634 H   0  0  0  0  0  0
    1.3156   51.2746   17.6893 H   0  0  0  0  0  0
    0.6618   53.5058   16.9716 H   0  0  0  0  0  0
    2.8241   49.7500   21.1157 H   0  0  0  0  0  0
    2.4421   50.3589   19.5690 H   0  0  0  0  0  0
    4.0550   51.6430   21.5382 H   0  0  0  0  0  0
    5.0799   55.0993   22.0193 H   0  0  0  0  0  0
    5.6731   53.4451   22.1736 H   0  0  0  0  0  0
    5.0377   54.0258   20.6392 H   0  0  0  0  0  0
    5.0943   54.4175   24.2781 H   0  0  0  0  0  0
    4.5310   54.4593   26.6324 H   0  0  0  0  0  0
    0.6068   52.9504   25.7302 H   0  0  0  0  0  0
    1.1393   52.9380   23.3883 H   0  0  0  0  0  0
    1.0931   51.9018   27.6424 H   0  0  0  0  0  0
    2.4321   51.9628   28.7644 H   0  0  0  0  0  0
   -0.2760   53.3993   29.0208 H   0  0  0  0  0  0
    0.2031   52.0260   29.9413 H   0  0  0  0  0  0
    2.0797   53.2840   30.9610 H   0  0  0  0  0  0
    2.3042   55.7311   30.4893 H   0  0  0  0  0  0
    1.0270   55.6682   29.3549 H   0  0  0  0  0  0
    3.6908   54.1495   29.0806 H   0  0  0  0  0  0
    3.1338   55.5493   28.1691 H   0  0  0  0  0  0
   -0.4956   54.8958   31.1942 H   0  0  0  0  0  0
   -0.2479   53.3625   32.0450 H   0  0  0  0  0  0
    0.7044   54.7818   32.4384 H   0  0  0  0  0  0
   -1.8750   50.0282   21.3081 H   0  0  0  0  0  0
   -2.9141   49.7866   23.5090 H   0  0  0  0  0  0
   -1.5278   49.2340   25.4849 H   0  0  0  0  0  0
    0.9083   48.9324   25.2428 H   0  0  0  0  0  0
    1.9658   49.1570   23.0555 H   0  0  0  0  0  0
  1  2  1  0  0  0
  1 40  1  0  0  0
  1 41  1  0  0  0
  1 42  1  0  0  0
  2  3  1  0  0  0
  2 43  1  0  0  0
  2 44  1  0  0  0
  3  4  1  0  0  0
  4  9  2  0  0  0
  4  5  1  0  0  0
  5  6  2  0  0  0
  5 45  1  0  0  0
  6  7  1  0  0  0
  6 46  1  0  0  0
  7  8  2  0  0  0
  7 10  1  0  0  0
  8  9  1  0  0  0
  8 47  1  0  0  0
  9 48  1  0  0  0
 10 11  2  0  0  0
 10 12  2  0  0  0
 10 13  1  0  0  0
 13 14  1  0  0  0
 13 34  1  0  0  0
 14 15  1  0  0  0
 14 49  1  0  0  0
 14 50  1  0  0  0
 15 16  2  0  0  0
 15 17  1  0  0  0
 17 18  1  0  0  0
 17 51  1  0  0  0
 18 19  1  0  0  0
 18 20  1  0  0  0
 18 21  1  0  0  0
 20 52  1  0  0  0
 20 53  1  0  0  0
 20 54  1  0  0  0
 21 26  2  0  0  0
 21 22  1  0  0  0
 22 23  2  0  0  0
 22 55  1  0  0  0
 23 24  1  0  0  0
 23 56  1  0  0  0
 24 25  2  0  0  0
 24 27  1  0  0  0
 25 26  1  0  0  0
 25 57  1  0  0  0
 26 58  1  0  0  0
 27 32  1  0  0  0
 27 28  1  0  0  0
 28 29  1  0  0  0
 28 59  1  0  0  0
 28 60  1  0  0  0
 29 30  1  0  0  0
 29 61  1  0  0  0
 29 62  1  0  0  0
 30 31  1  0  0  0
 30 33  1  0  0  0
 30 63  1  0  0  0
 31 32  1  0  0  0
 31 64  1  0  0  0
 31 65  1  0  0  0
 32 66  1  0  0  0
 32 67  1  0  0  0
 33 68  1  0  0  0
 33 69  1  0  0  0
 33 70  1  0  0  0
 34 39  2  0  0  0
 34 35  1  0  0  0
 35 36  2  0  0  0
 35 71  1  0  0  0
 36 37  1  0  0  0
 36 72  1  0  0  0
 37 38  2  0  0  0
 37 73  1  0  0  0
 38 39  1  0  0  0
 38 74  1  0  0  0
 39 75  1  0  0  0
M  END
> <i_i_glide_confnum>
344

> <i_i_glide_lignum>
5744

> <i_i_glide_posenum>
247

> <i_i_glide_rotatable_bonds>
11

> <i_m_Source_File_Index>
3695

> <b_m_subgroup_collapsed>
0

> <r_i_docking_score>
-4.4886

> <r_i_glide_ecoul>
-1.24373

> <r_i_glide_eff_state_penalty>
0

> <r_i_glide_einternal>
5.53283

> <r_i_glide_emodel>
-54.9649

> <r_i_glide_energy>
-45.3549

> <r_i_glide_erotb>
0.71944

> <r_i_glide_esite>
-0.0466631

> <r_i_glide_evdw>
-44.1111

> <r_i_glide_gscore>
-4.4886

> <r_i_glide_hbond>
0

> <r_i_glide_ligand_efficiency>
-0.118121

> <r_i_glide_ligand_efficiency_ln>
-0.967873

> <r_i_glide_ligand_efficiency_sa>
-0.39712

> <r_i_glide_lipo>
-2.63974

> <r_i_glide_metal>
0

> <r_i_glide_rewards>
-0.129518

> <s_i_glide_gridfile>
wee1_glide-grid

> <s_m_Source_File>
wee1_decoys_glide_SP.sdf

> <s_m_Source_Path>
/Users/zhangxujun/Desktop

> <s_m_entry_id>
3970

> <s_m_entry_name>
wee1_decoys_glide_SP.3695

> <s_m_subgroup_title>
wee1_decoys_glide_SP

> <s_m_subgroupid>
wee1_decoys_glide_SP


$$$$
