@<TRIPOS>MOLECULE
ZINC38743417_3231
49   53    1
SMALL
USER_CHARGES


@<TRIPOS>ATOM
      1 C1          5.1398   54.1355   18.3158 C.3       1 UNK         0.0000 
      2 O2          6.0151   54.8273   19.2023 O.3       1 UNK         0.0000 
      3 C3          5.8355   54.6924   20.5633 C.ar      1 UNK         0.0000 
      4 C4          6.7897   55.2972   21.3786 C.ar      1 UNK         0.0000 
      5 C5          6.7051   55.1957   22.7645 C.ar      1 UNK         0.0000 
      6 C6          5.6515   54.4971   23.3696 C.ar      1 UNK         0.0000 
      7 C7          4.6977   53.8858   22.5435 C.ar      1 UNK         0.0000 
      8 C8          4.7844   53.9803   21.1583 C.ar      1 UNK         0.0000 
      9 C9          5.5314   54.4320   24.8506 C.2       1 UNK         0.0000 
     10 C10         4.6564   53.6970   25.5314 C.2       1 UNK         0.0000 
     11 C11         5.0601   53.8576   26.9550 C.3       1 UNK         0.0000 
     12 H12         5.5674   52.9556   27.3098 H         1 UNK         0.0000 
     13 N13         6.0534   54.8966   26.8907 N.2       1 UNK         0.0000 
     14 N14         6.3107   55.1753   25.6710 N.2       1 UNK         0.0000 
     15 C15         3.8471   54.1389   27.8727 C.3       1 UNK         0.0000 
     16 H16         3.2315   54.9170   27.4150 H         1 UNK         0.0000 
     17 N17         4.1565   54.6095   29.2160 N.3       1 UNK         0.0000 
     18 N18         3.1177   54.0539   30.0510 N.3       1 UNK         0.0000 
     19 C19         2.8562   52.7584   29.4637 C.3       1 UNK         0.0000 
     20 H20         3.5725   52.0192   29.8285 H         1 UNK         0.0000 
     21 N21         3.0500   52.9296   28.0499 N.pl3     1 UNK         0.0000 
     22 N22         1.8880   52.8166   27.2754 N.2       1 UNK         0.0000 
     23 C23         0.8900   52.3984   27.9392 C.2       1 UNK         0.0000 
     24 S24         1.1830   52.1347   29.6851 S.3       1 UNK         0.0000 
     25 C25        -0.4936   52.1396   27.3385 C.3       1 UNK         0.0000 
     26 O26        -0.6056   52.4966   25.9557 O.3       1 UNK         0.0000 
     27 C27        -0.0217   51.7243   24.9739 C.ar      1 UNK         0.0000 
     28 C28         0.2337   52.3554   23.7555 C.ar      1 UNK         0.0000 
     29 C29         0.8135   51.6515   22.7023 C.ar      1 UNK         0.0000 
     30 C30         1.1216   50.3026   22.8667 C.ar      1 UNK         0.0000 
     31 C31         0.8577   49.6619   24.0748 C.ar      1 UNK         0.0000 
     32 C32         0.2944   50.3685   25.1313 C.ar      1 UNK         0.0000 
     33 Br33        1.9002   49.3166   21.4371 Br        1 UNK         0.0000 
     34 H34         5.4490   54.3232   17.2877 H         1 UNK         0.0000 
     35 H35         5.1749   53.0568   18.4767 H         1 UNK         0.0000 
     36 H36         4.1092   54.4778   18.4185 H         1 UNK         0.0000 
     37 H37         7.6149   55.8312   20.9322 H         1 UNK         0.0000 
     38 H38         7.4667   55.6730   23.3631 H         1 UNK         0.0000 
     39 H39         3.8682   53.3385   22.9662 H         1 UNK         0.0000 
     40 H40         4.0265   53.4993   20.5604 H         1 UNK         0.0000 
     41 H41         3.8847   53.0271   25.1860 H         1 UNK         0.0000 
     42 H42         5.0229   54.2236   29.5687 H         1 UNK         0.0000 
     43 H43         2.3314   54.6742   29.8975 H         1 UNK         0.0000 
     44 H44        -0.8165   51.1148   27.5266 H         1 UNK         0.0000 
     45 H45        -1.2203   52.7532   27.8638 H         1 UNK         0.0000 
     46 H46        -0.0062   53.4020   23.6401 H         1 UNK         0.0000 
     47 H47         1.0188   52.1440   21.7636 H         1 UNK         0.0000 
     48 H48         1.0971   48.6165   24.1989 H         1 UNK         0.0000 
     49 H49         0.1013   49.8411   26.0541 H         1 UNK         0.0000 
@<TRIPOS>BOND
     1    1    2 1    
     2    1   34 1    
     3    1   35 1    
     4    1   36 1    
     5    2    3 1    
     6    3    8 ar   
     7    3    4 ar   
     8    4    5 ar   
     9    4   37 1    
    10    5    6 ar   
    11    5   38 1    
    12    6    7 ar   
    13    6    9 1    
    14    7    8 ar   
    15    7   39 1    
    16    8   40 1    
    17    9   14 1    
    18    9   10 2    
    19   10   11 1    
    20   10   41 1    
    21   11   12 1    
    22   11   13 1    
    23   11   15 1    
    24   13   14 2    
    25   15   16 1    
    26   15   21 1    
    27   15   17 1    
    28   17   18 1    
    29   17   42 1    
    30   18   19 1    
    31   18   43 1    
    32   19   20 1    
    33   19   24 1    
    34   19   21 1    
    35   21   22 1    
    36   22   23 2    
    37   23   24 1    
    38   23   25 1    
    39   25   26 1    
    40   25   44 1    
    41   25   45 1    
    42   26   27 1    
    43   27   32 ar   
    44   27   28 ar   
    45   28   29 ar   
    46   28   46 1    
    47   29   30 ar   
    48   29   47 1    
    49   30   31 ar   
    50   30   33 1    
    51   31   32 ar   
    52   31   48 1    
    53   32   49 1    
@<TRIPOS>SUBSTRUCTURE
     1 UNK         1 GROUP             0       ****    0 ROOT    
