ZINC04565435_1719
                    3D
 Schrodinger Suite 2024-2.
 39 41  0  0  1  0            999 V2000
    2.3092   54.8228   28.8105 C   0  0  0  0  0  0
    3.7218   54.6099   28.3130 C   0  0  0  0  0  0
    4.1950   54.4862   26.9838 C   0  0  0  0  0  0
    5.5621   54.3921   27.1479 C   0  0  0  0  0  0
    5.8285   54.4460   28.4794 N   0  0  0  0  0  0
    6.7496   54.4508   28.8962 H   0  0  0  0  0  0
    4.7047   54.5584   29.1962 N   0  0  0  0  0  0
    6.5360   54.2978   26.1870 O   0  0  0  0  0  0
    6.0349   54.1864   24.9225 C   0  0  0  0  0  0
    4.7214   54.1977   24.5628 C   0  0  0  0  0  0
    3.5697   54.4211   25.5782 C   0  0  1  0  0  0
    3.1978   55.4140   25.3454 H   0  0  0  0  0  0
    2.3045   53.5522   25.4095 C   0  0  0  0  0  0
    1.5047   53.6967   24.2711 C   0  0  0  0  0  0
    0.3341   52.9548   24.1237 C   0  0  0  0  0  0
   -0.0926   52.0608   25.1191 C   0  0  0  0  0  0
    0.7089   51.9311   26.2618 C   0  0  0  0  0  0
    1.8916   52.6532   26.3978 C   0  0  0  0  0  0
   -1.3006   51.3195   24.9836 N   0  0  0  0  0  0
   -1.6093   50.2418   25.9302 C   0  0  0  0  0  0
   -1.9751   51.2555   23.6869 C   0  0  0  0  0  0
    4.3993   54.0966   23.1757 C   0  0  0  0  0  0
    4.1815   54.0255   22.0426 N   0  0  0  0  0  0
    7.1002   54.0965   24.0632 N   0  0  0  0  0  0
    1.6075   54.9924   27.9942 H   0  0  0  0  0  0
    1.9449   53.9641   29.3736 H   0  0  0  0  0  0
    2.2391   55.6928   29.4639 H   0  0  0  0  0  0
    1.7784   54.3946   23.4933 H   0  0  0  0  0  0
   -0.2387   53.1029   23.2240 H   0  0  0  0  0  0
    0.4450   51.2554   27.0603 H   0  0  0  0  0  0
    2.4854   52.4902   27.2832 H   0  0  0  0  0  0
   -1.6043   50.5991   26.9604 H   0  0  0  0  0  0
   -0.8660   49.4461   25.8602 H   0  0  0  0  0  0
   -2.5879   49.7979   25.7455 H   0  0  0  0  0  0
   -2.2140   52.2514   23.3136 H   0  0  0  0  0  0
   -1.3308   50.7714   22.9520 H   0  0  0  0  0  0
   -2.9064   50.6903   23.7388 H   0  0  0  0  0  0
    6.9326   53.9125   23.0849 H   0  0  0  0  0  0
    8.0040   54.4929   24.2926 H   0  0  0  0  0  0
  1  2  1  0  0  0
  1 25  1  0  0  0
  1 26  1  0  0  0
  1 27  1  0  0  0
  2  7  2  0  0  0
  2  3  1  0  0  0
  3 11  1  0  0  0
  3  4  2  0  0  0
  4  5  1  0  0  0
  4  8  1  0  0  0
  5  6  1  0  0  0
  5  7  1  0  0  0
  8  9  1  0  0  0
  9 10  2  0  0  0
  9 24  1  0  0  0
 10 11  1  0  0  0
 10 22  1  0  0  0
 11 12  1  0  0  0
 11 13  1  0  0  0
 13 18  2  0  0  0
 13 14  1  0  0  0
 14 15  2  0  0  0
 14 28  1  0  0  0
 15 16  1  0  0  0
 15 29  1  0  0  0
 16 17  2  0  0  0
 16 19  1  0  0  0
 17 18  1  0  0  0
 17 30  1  0  0  0
 18 31  1  0  0  0
 19 20  1  0  0  0
 19 21  1  0  0  0
 20 32  1  0  0  0
 20 33  1  0  0  0
 20 34  1  0  0  0
 21 35  1  0  0  0
 21 36  1  0  0  0
 21 37  1  0  0  0
 22 23  3  0  0  0
 24 38  1  0  0  0
 24 39  1  0  0  0
M  END
> <i_i_glide_confnum>
2

> <i_i_glide_lignum>
1720

> <i_i_glide_posenum>
20

> <i_i_glide_rotatable_bonds>
3

> <i_m_Source_File_Index>
2652

> <b_m_subgroup_collapsed>
0

> <r_i_docking_score>
-6.74634

> <r_i_glide_ecoul>
-3.22015

> <r_i_glide_eff_state_penalty>
0

> <r_i_glide_einternal>
4.02212

> <r_i_glide_emodel>
-45.9688

> <r_i_glide_energy>
-34.8477

> <r_i_glide_erotb>
0.209834

> <r_i_glide_esite>
-0.0098716

> <r_i_glide_evdw>
-31.6276

> <r_i_glide_gscore>
-6.74634

> <r_i_glide_hbond>
-0.417262

> <r_i_glide_ligand_efficiency>
-0.306652

> <r_i_glide_ligand_efficiency_ln>
-1.64905

> <r_i_glide_ligand_efficiency_sa>
-0.85925

> <r_i_glide_lipo>
-2.74651

> <r_i_glide_metal>
0

> <r_i_glide_rewards>
-1.71813

> <s_i_glide_gridfile>
wee1_glide-grid

> <s_m_Source_File>
wee1_decoys_glide_SP.sdf

> <s_m_Source_Path>
/Users/zhangxujun/Desktop

> <s_m_entry_id>
2927

> <s_m_entry_name>
wee1_decoys_glide_SP.2652

> <s_m_subgroup_title>
wee1_decoys_glide_SP

> <s_m_subgroupid>
wee1_decoys_glide_SP


$$$$
