@<TRIPOS>MOLECULE
ZINC08833062_3405
51   53    1
SMALL
USER_CHARGES


@<TRIPOS>ATOM
      1 C1          9.1004   50.6313   13.4158 C.3       1 UNK         0.0000 
      2 C2          7.9183   51.2965   14.1034 C.ar      1 UNK         0.0000 
      3 C3          6.6444   51.1578   13.5511 C.ar      1 UNK         0.0000 
      4 C4          5.5438   51.7476   14.1650 C.ar      1 UNK         0.0000 
      5 C5          5.7125   52.4966   15.3265 C.ar      1 UNK         0.0000 
      6 C6          6.9817   52.6603   15.9014 C.ar      1 UNK         0.0000 
      7 C7          8.0901   52.0351   15.2875 C.ar      1 UNK         0.0000 
      8 O8          9.3542   52.1301   15.8227 O.3       1 UNK         0.0000 
      9 C9          9.6287   51.1722   16.8390 C.3       1 UNK         0.0000 
     10 C10         7.1409   53.5203   17.1360 C.2       1 UNK         0.0000 
     11 O11         8.0759   54.3207   17.2104 O.2       1 UNK         0.0000 
     12 N12         6.2205   53.2964   18.1107 N.am      1 UNK         0.0000 
     13 C13         5.8756   53.9982   19.2408 C.2       1 UNK         0.0000 
     14 S14         6.3049   55.5936   19.5828 S.2       1 UNK         0.0000 
     15 N15         5.1053   53.2232   20.0669 N.pl3     1 UNK         0.0000 
     16 C16         4.5931   53.4662   21.3561 C.ar      1 UNK         0.0000 
     17 C17         5.4067   53.9104   22.4057 C.ar      1 UNK         0.0000 
     18 C18         4.8691   54.0956   23.6760 C.ar      1 UNK         0.0000 
     19 C19         3.5174   53.8014   23.9174 C.ar      1 UNK         0.0000 
     20 C20         2.7092   53.3638   22.8648 C.ar      1 UNK         0.0000 
     21 C21         3.2460   53.1887   21.5914 C.ar      1 UNK         0.0000 
     22 N22         2.8964   53.8951   25.1768 N.am      1 UNK         0.0000 
     23 C23         3.4589   53.9966   26.4004 C.2       1 UNK         0.0000 
     24 O24         4.6657   54.0981   26.6185 O.2       1 UNK         0.0000 
     25 C25         2.4943   54.0297   27.5615 C.ar      1 UNK         0.0000 
     26 C26         2.7056   54.9886   28.5619 C.ar      1 UNK         0.0000 
     27 C27         1.8851   55.0551   29.6815 C.ar      1 UNK         0.0000 
     28 C28         0.8658   54.1229   29.8501 C.ar      1 UNK         0.0000 
     29 C29         0.6432   53.1507   28.8783 C.ar      1 UNK         0.0000 
     30 C30         1.4477   53.0929   27.7363 C.ar      1 UNK         0.0000 
     31 Cl31        1.1032   51.8299   26.5997 Cl        1 UNK         0.0000 
     32 Cl32       -0.0956   54.1663   31.2814 Cl        1 UNK         0.0000 
     33 H33         9.9560   51.3092   13.3796 H         1 UNK         0.0000 
     34 H34         9.4091   49.7357   13.9594 H         1 UNK         0.0000 
     35 H35         8.8747   50.3562   12.3842 H         1 UNK         0.0000 
     36 H36         6.4997   50.5789   12.6502 H         1 UNK         0.0000 
     37 H37         4.5592   51.6279   13.7398 H         1 UNK         0.0000 
     38 H38         4.8389   52.9565   15.7698 H         1 UNK         0.0000 
     39 H39        10.6401   51.3252   17.2189 H         1 UNK         0.0000 
     40 H40         8.9400   51.2653   17.6817 H         1 UNK         0.0000 
     41 H41         9.5672   50.1494   16.4590 H         1 UNK         0.0000 
     42 H42         5.6478   52.4801   17.9289 H         1 UNK         0.0000 
     43 H43         4.7863   52.3503   19.6667 H         1 UNK         0.0000 
     44 H44         6.4554   54.1068   22.2440 H         1 UNK         0.0000 
     45 H45         5.5271   54.4535   24.4506 H         1 UNK         0.0000 
     46 H46         1.6658   53.1342   23.0278 H         1 UNK         0.0000 
     47 H47         2.6096   52.8392   20.7906 H         1 UNK         0.0000 
     48 H48         1.8954   53.7819   25.1694 H         1 UNK         0.0000 
     49 H49         3.5170   55.6968   28.4810 H         1 UNK         0.0000 
     50 H50         2.0577   55.8125   30.4336 H         1 UNK         0.0000 
     51 H51        -0.1437   52.4237   29.0198 H         1 UNK         0.0000 
@<TRIPOS>BOND
     1    1    2 1    
     2    1   33 1    
     3    1   34 1    
     4    1   35 1    
     5    2    7 ar   
     6    2    3 ar   
     7    3    4 ar   
     8    3   36 1    
     9    4    5 ar   
    10    4   37 1    
    11    5    6 ar   
    12    5   38 1    
    13    6    7 ar   
    14    6   10 1    
    15    7    8 1    
    16    8    9 1    
    17    9   39 1    
    18    9   40 1    
    19    9   41 1    
    20   10   11 2    
    21   10   12 am   BACKBONE|DICT|INTERRES
    22   12   13 am   BACKBONE|DICT|INTERRES
    23   12   42 1    
    24   13   14 2    
    25   13   15 1    
    26   15   16 1    
    27   15   43 1    
    28   16   21 ar   
    29   16   17 ar   
    30   17   18 ar   
    31   17   44 1    
    32   18   19 ar   
    33   18   45 1    
    34   19   20 ar   
    35   19   22 1    
    36   20   21 ar   
    37   20   46 1    
    38   21   47 1    
    39   22   23 am   BACKBONE|DICT|INTERRES
    40   22   48 1    
    41   23   24 2    
    42   23   25 1    
    43   25   30 ar   
    44   25   26 ar   
    45   26   27 ar   
    46   26   49 1    
    47   27   28 ar   
    48   27   50 1    
    49   28   29 ar   
    50   28   32 1    
    51   29   30 ar   
    52   29   51 1    
    53   30   31 1    
@<TRIPOS>SUBSTRUCTURE
     1 UNK         1 GROUP             0       ****    0 ROOT    
