ZINC03187039_5274
                    3D
 Schrodinger Suite 2024-2.
 45 47  0  0  1  0            999 V2000
    0.5252   54.0177   31.6486 C   0  0  0  0  0  0
    0.8655   53.8820   30.1764 C   0  0  0  0  0  0
    1.5092   54.9186   29.4950 C   0  0  0  0  0  0
    1.9045   54.7438   28.1677 C   0  0  0  0  0  0
    1.6678   53.5317   27.5008 C   0  0  0  0  0  0
    0.9954   52.5147   28.1910 C   0  0  0  0  0  0
    0.5742   52.6944   29.5028 C   0  0  0  0  0  0
   -0.0966   51.6987   30.1193 F   0  0  0  0  0  0
    2.2565   53.2205   26.1087 C   0  0  1  0  0  0
    2.6858   52.2402   26.2965 H   0  0  0  0  0  0
    1.2559   53.0113   24.9089 C   0  0  0  0  0  0
    1.9037   51.7437   23.8306 Cl  0  0  0  0  0  0
   -0.3863   52.4962   25.3926 Cl  0  0  0  0  0  0
    1.1039   54.4966   23.9275 Cl  0  0  0  0  0  0
    3.4055   54.0349   25.6843 N   0  0  0  0  0  0
    4.6308   54.0968   26.2275 C   0  0  0  0  0  0
    4.8439   53.8637   27.4134 O   0  0  0  0  0  0
    5.6429   54.4628   25.4137 N   0  0  0  0  0  0
    5.7035   54.5584   24.0259 C   0  0  0  0  0  0
    6.7313   55.1378   23.4876 N   0  0  0  0  0  0
    6.6651   55.1446   22.1299 C   0  0  0  0  0  0
    7.6378   55.6908   21.2818 C   0  0  0  0  0  0
    7.4277   55.6346   19.9037 C   0  0  0  0  0  0
    6.2724   55.0540   19.3729 C   0  0  0  0  0  0
    5.2924   54.4968   20.1983 C   0  0  0  0  0  0
    5.5038   54.5419   21.5809 C   0  0  0  0  0  0
    4.5075   53.9347   22.8880 S   0  0  0  0  0  0
    6.0309   55.0046   17.6038 S   0  0  0  0  0  0
    4.6043   55.2450   17.3625 O   0  0  0  0  0  0
    7.0503   55.8633   16.9920 O   0  0  0  0  0  0
    6.4180   53.2194   17.1624 C   0  0  0  0  0  0
   -0.5107   53.7632   31.8302 H   0  0  0  0  0  0
    1.1046   53.3015   32.2326 H   0  0  0  0  0  0
    0.7041   55.0242   32.0280 H   0  0  0  0  0  0
    1.7358   55.8484   29.9979 H   0  0  0  0  0  0
    2.4404   55.5441   27.6815 H   0  0  0  0  0  0
    0.8080   51.5591   27.7218 H   0  0  0  0  0  0
    3.3305   54.3856   24.7411 H   0  0  0  0  0  0
    6.4988   54.7048   25.8863 H   0  0  0  0  0  0
    8.5443   56.1164   21.6861 H   0  0  0  0  0  0
    8.1793   56.0438   19.2417 H   0  0  0  0  0  0
    4.3989   54.0497   19.7808 H   0  0  0  0  0  0
    6.3041   53.0970   16.0871 H   0  0  0  0  0  0
    7.4405   52.9956   17.4602 H   0  0  0  0  0  0
    5.7221   52.5616   17.6824 H   0  0  0  0  0  0
  1  2  1  0  0  0
  1 32  1  0  0  0
  1 33  1  0  0  0
  1 34  1  0  0  0
  2  7  2  0  0  0
  2  3  1  0  0  0
  3  4  2  0  0  0
  3 35  1  0  0  0
  4  5  1  0  0  0
  4 36  1  0  0  0
  5  6  2  0  0  0
  5  9  1  0  0  0
  6  7  1  0  0  0
  6 37  1  0  0  0
  7  8  1  0  0  0
  9 10  1  0  0  0
  9 11  1  0  0  0
  9 15  1  0  0  0
 11 12  1  0  0  0
 11 13  1  0  0  0
 11 14  1  0  0  0
 15 16  1  0  0  0
 15 38  1  0  0  0
 16 17  2  0  0  0
 16 18  1  0  0  0
 18 19  1  0  0  0
 18 39  1  0  0  0
 19 27  1  0  0  0
 19 20  2  0  0  0
 20 21  1  0  0  0
 21 26  2  0  0  0
 21 22  1  0  0  0
 22 23  2  0  0  0
 22 40  1  0  0  0
 23 24  1  0  0  0
 23 41  1  0  0  0
 24 25  2  0  0  0
 24 28  1  0  0  0
 25 26  1  0  0  0
 25 42  1  0  0  0
 26 27  1  0  0  0
 28 29  2  0  0  0
 28 30  2  0  0  0
 28 31  1  0  0  0
 31 43  1  0  0  0
 31 44  1  0  0  0
 31 45  1  0  0  0
M  END
> <i_i_glide_confnum>
26

> <i_i_glide_lignum>
5275

> <i_i_glide_posenum>
68

> <i_i_glide_rotatable_bonds>
7

> <i_m_Source_File_Index>
3796

> <b_m_subgroup_collapsed>
0

> <r_i_docking_score>
-4.49559

> <r_i_glide_ecoul>
-0.548868

> <r_i_glide_eff_state_penalty>
0

> <r_i_glide_einternal>
7.10779

> <r_i_glide_emodel>
-51.3443

> <r_i_glide_energy>
-45.1847

> <r_i_glide_erotb>
0.392606

> <r_i_glide_esite>
-0.0501761

> <r_i_glide_evdw>
-44.6358

> <r_i_glide_gscore>
-4.49559

> <r_i_glide_hbond>
0

> <r_i_glide_ligand_efficiency>
-0.149853

> <r_i_glide_ligand_efficiency_ln>
-1.02145

> <r_i_glide_ligand_efficiency_sa>
-0.465629

> <r_i_glide_lipo>
-3.15983

> <r_i_glide_metal>
0

> <r_i_glide_rewards>
0.635928

> <s_i_glide_gridfile>
wee1_glide-grid

> <s_m_Source_File>
wee1_decoys_glide_SP.sdf

> <s_m_Source_Path>
/Users/zhangxujun/Desktop

> <s_m_entry_id>
4071

> <s_m_entry_name>
wee1_decoys_glide_SP.3796

> <s_m_subgroup_title>
wee1_decoys_glide_SP

> <s_m_subgroupid>
wee1_decoys_glide_SP


$$$$
