@<TRIPOS>MOLECULE
ZINC10348987_1426
51   54    1
SMALL
USER_CHARGES


@<TRIPOS>ATOM
      1 C1          1.6965   52.2849   20.4501 C.3       1 UNK         0.0000 
      2 C2          1.3974   50.8116   20.2113 C.ar      1 UNK         0.0000 
      3 C3          2.2477   50.0670   19.3865 C.ar      1 UNK         0.0000 
      4 C4          1.9972   48.7176   19.1429 C.ar      1 UNK         0.0000 
      5 C5          0.8897   48.0973   19.7186 C.ar      1 UNK         0.0000 
      6 C6          0.0297   48.8272   20.5402 C.ar      1 UNK         0.0000 
      7 C7          0.2778   50.1836   20.7856 C.ar      1 UNK         0.0000 
      8 N8         -0.6329   50.9071   21.5806 N.pl3     1 UNK         0.0000 
      9 C9         -1.8098   51.4959   21.1716 C.ar      1 UNK         0.0000 
     10 N10        -2.4043   52.0969   22.1687 N.2       1 UNK         0.0000 
     11 N11        -1.5932   51.9377   23.2831 N.2       1 UNK         0.0000 
     12 C12        -0.5600   51.2105   22.9267 C.ar      1 UNK         0.0000 
     13 S13         0.7390   50.6838   24.0018 S.3       1 UNK         0.0000 
     14 C14         0.4348   51.6743   25.5136 C.3       1 UNK         0.0000 
     15 C15         1.3979   52.8713   25.6599 C.2       1 UNK         0.0000 
     16 O16         1.7563   53.4589   24.6371 O.2       1 UNK         0.0000 
     17 N17         1.8425   53.2059   26.9100 N.am      1 UNK         0.0000 
     18 C18         0.8491   53.1605   28.0129 C.3       1 UNK         0.0000 
     19 C19         1.5967   53.0320   29.3634 C.3       1 UNK         0.0000 
     20 H20         2.0650   52.0498   29.4580 H         1 UNK         0.0000 
     21 O21         2.5716   54.0745   29.5022 O.3       1 UNK         0.0000 
     22 C22         3.4930   54.0845   28.4777 C.ar      1 UNK         0.0000 
     23 C23         3.1639   53.6961   27.1640 C.ar      1 UNK         0.0000 
     24 C24         4.2010   53.7113   26.2074 C.ar      1 UNK         0.0000 
     25 C25         5.4912   54.1146   26.5400 C.ar      1 UNK         0.0000 
     26 C26         5.7826   54.5027   27.8406 C.ar      1 UNK         0.0000 
     27 C27         4.7834   54.4961   28.8108 C.ar      1 UNK         0.0000 
     28 C28         0.5857   53.1844   30.5224 C.2       1 UNK         0.0000 
     29 O29         0.4056   54.2586   31.0931 O.2       1 UNK         0.0000 
     30 N30        -0.0957   52.0979   30.8817 N.am      1 UNK         0.0000 
     31 C31        -2.3422   51.4602   19.7533 C.3       1 UNK         0.0000 
     32 H32         2.5915   52.6191   19.9227 H         1 UNK         0.0000 
     33 H33         0.8569   52.8957   20.1148 H         1 UNK         0.0000 
     34 H34         1.8366   52.4786   21.5145 H         1 UNK         0.0000 
     35 H35         3.1048   50.5289   18.9173 H         1 UNK         0.0000 
     36 H36         2.6662   48.1623   18.4995 H         1 UNK         0.0000 
     37 H37         0.6965   47.0522   19.5244 H         1 UNK         0.0000 
     38 H38        -0.8320   48.3424   20.9744 H         1 UNK         0.0000 
     39 H39         0.6187   50.9752   26.3283 H         1 UNK         0.0000 
     40 H40        -0.5978   52.0034   25.6060 H         1 UNK         0.0000 
     41 H41         0.1206   52.3559   27.9126 H         1 UNK         0.0000 
     42 H42         0.2853   54.0947   27.9894 H         1 UNK         0.0000 
     43 H43         4.0507   53.3786   25.1948 H         1 UNK         0.0000 
     44 H44         6.2663   54.1108   25.7902 H         1 UNK         0.0000 
     45 H45         6.7848   54.8193   28.0876 H         1 UNK         0.0000 
     46 H46         5.0121   54.8064   29.8192 H         1 UNK         0.0000 
     47 H47        -0.0574   51.2488   30.3391 H         1 UNK         0.0000 
     48 H48        -0.6892   52.1038   31.7204 H         1 UNK         0.0000 
     49 H49        -3.3053   51.9594   19.6568 H         1 UNK         0.0000 
     50 H50        -1.6555   51.9445   19.0575 H         1 UNK         0.0000 
     51 H51        -2.4794   50.4349   19.4053 H         1 UNK         0.0000 
@<TRIPOS>BOND
     1    1    2 1    
     2    1   32 1    
     3    1   33 1    
     4    1   34 1    
     5    2    7 ar   
     6    2    3 ar   
     7    3    4 ar   
     8    3   35 1    
     9    4    5 ar   
    10    4   36 1    
    11    5    6 ar   
    12    5   37 1    
    13    6    7 ar   
    14    6   38 1    
    15    7    8 1    
    16    8   12 ar   
    17    8    9 ar   
    18    9   10 ar   
    19    9   31 1    
    20   10   11 ar   
    21   11   12 ar   
    22   12   13 1    
    23   13   14 1    
    24   14   15 1    
    25   14   39 1    
    26   14   40 1    
    27   15   16 2    
    28   15   17 am   BACKBONE|DICT|INTERRES
    29   17   23 1    
    30   17   18 1    
    31   18   19 1    
    32   18   41 1    
    33   18   42 1    
    34   19   20 1    
    35   19   21 1    
    36   19   28 1    
    37   21   22 1    
    38   22   27 ar   
    39   22   23 ar   
    40   23   24 ar   
    41   24   25 ar   
    42   24   43 1    
    43   25   26 ar   
    44   25   44 1    
    45   26   27 ar   
    46   26   45 1    
    47   27   46 1    
    48   28   29 2    
    49   28   30 am   BACKBONE|DICT|INTERRES
    50   30   47 1    
    51   30   48 1    
    52   31   49 1    
    53   31   50 1    
    54   31   51 1    
@<TRIPOS>SUBSTRUCTURE
     1 UNK         1 GROUP             0       ****    0 ROOT    
