@<TRIPOS>MOLECULE
ZINC39442270_6055
63   66    1
SMALL
USER_CHARGES


@<TRIPOS>ATOM
      1 C1         -6.2672   49.9666   30.1210 C.3       1 UNK         0.0000 
      2 C2         -4.8499   49.4244   29.8472 C.3       1 UNK         0.0000 
      3 C3         -4.8641   47.8898   29.6957 C.3       1 UNK         0.0000 
      4 C4         -4.2555   50.0722   28.6618 C.1       1 UNK         0.0000 
      5 C5         -3.7167   50.5345   27.6683 C.1       1 UNK         0.0000 
      6 C6         -3.0041   50.9407   26.4694 C.ar      1 UNK         0.0000 
      7 C7         -3.3235   52.1324   25.8179 C.ar      1 UNK         0.0000 
      8 C8         -2.6391   52.4883   24.6565 C.ar      1 UNK         0.0000 
      9 C9         -1.6405   51.6480   24.1535 C.ar      1 UNK         0.0000 
     10 C10        -1.3269   50.4557   24.8084 C.ar      1 UNK         0.0000 
     11 C11        -2.0039   50.1075   25.9701 C.ar      1 UNK         0.0000 
     12 C12        -0.8863   52.0160   22.8887 C.3       1 UNK         0.0000 
     13 N13         0.6144   52.3006   23.1262 N.4       1 UNK         0.0000 
     14 C14         1.3578   52.4642   21.7779 C.3       1 UNK         0.0000 
     15 C15         2.8544   52.6588   22.0728 C.3       1 UNK         0.0000 
     16 C16         3.1185   53.8826   22.9859 C.3       1 UNK         0.0000 
     17 C17         2.3390   53.6598   24.3119 C.3       1 UNK         0.0000 
     18 C18         0.8292   53.5012   24.0832 C.3       1 UNK         0.0000 
     19 C19         4.6261   54.0956   23.2624 C.2       1 UNK         0.0000 
     20 N20         5.1127   54.4967   24.3688 N.2       1 UNK         0.0000 
     21 N21         6.3789   54.4991   24.3851 N.2       1 UNK         0.0000 
     22 C22         6.8319   54.0980   23.2823 C.2       1 UNK         0.0000 
     23 C23         5.7509   53.8078   22.2815 C.3       1 UNK         0.0000 
     24 H24         5.7704   52.7438   22.0458 H         1 UNK         0.0000 
     25 C25         5.7929   54.6339   20.9772 C.ar      1 UNK         0.0000 
     26 C26         6.3035   55.9420   20.9278 C.ar      1 UNK         0.0000 
     27 C27         6.3061   56.6592   19.7309 C.ar      1 UNK         0.0000 
     28 C28         5.8118   56.0799   18.5666 C.ar      1 UNK         0.0000 
     29 C29         5.3230   54.7708   18.5830 C.ar      1 UNK         0.0000 
     30 C30         5.3366   54.0547   19.7849 C.ar      1 UNK         0.0000 
     31 C31         4.7724   54.1354   17.3077 C.3       1 UNK         0.0000 
     32 F32         3.8186   53.2440   17.5847 F         1 UNK         0.0000 
     33 F33         4.2470   55.0549   16.4966 F         1 UNK         0.0000 
     34 F34         5.7610   53.5166   16.6637 F         1 UNK         0.0000 
     35 O35        -4.0956   49.6970   31.0015 O.3       1 UNK         0.0000 
     36 H36        -6.9398   49.7748   29.2838 H         1 UNK         0.0000 
     37 H37        -6.2623   51.0427   30.2990 H         1 UNK         0.0000 
     38 H38        -6.7083   49.4972   31.0011 H         1 UNK         0.0000 
     39 H39        -5.4713   47.5771   28.8447 H         1 UNK         0.0000 
     40 H40        -3.8597   47.4855   29.5430 H         1 UNK         0.0000 
     41 H41        -5.2766   47.4041   30.5820 H         1 UNK         0.0000 
     42 H42        -4.0985   52.7802   26.2037 H         1 UNK         0.0000 
     43 H43        -2.8897   53.4114   24.1539 H         1 UNK         0.0000 
     44 H44        -0.5588   49.7991   24.4273 H         1 UNK         0.0000 
     45 H45        -1.7497   49.1890   26.4817 H         1 UNK         0.0000 
     46 H46        -0.9220   51.1869   22.1785 H         1 UNK         0.0000 
     47 H47        -1.3009   52.8965   22.4013 H         1 UNK         0.0000 
     48 H48         1.2118   51.5387   21.2159 H         1 UNK         0.0000 
     49 H49         0.9101   53.2966   21.2361 H         1 UNK         0.0000 
     50 H50         3.2904   51.7477   22.4817 H         1 UNK         0.0000 
     51 H51         3.3768   52.7746   21.1298 H         1 UNK         0.0000 
     52 H52         2.7495   54.7842   22.4919 H         1 UNK         0.0000 
     53 H53         2.5090   54.4964   24.9916 H         1 UNK         0.0000 
     54 H54         2.7471   52.8102   24.8644 H         1 UNK         0.0000 
     55 H55         0.3596   54.3895   23.6627 H         1 UNK         0.0000 
     56 H56         0.3449   53.2438   25.0254 H         1 UNK         0.0000 
     57 H57         7.8992   53.9897   23.0912 H         1 UNK         0.0000 
     58 H58         6.6793   56.4169   21.8209 H         1 UNK         0.0000 
     59 H59         6.6807   57.6720   19.6959 H         1 UNK         0.0000 
     60 H60         5.8113   56.6534   17.6507 H         1 UNK         0.0000 
     61 H61         4.9996   53.0288   19.7757 H         1 UNK         0.0000 
     62 H62        -3.2060   49.3118   30.8811 H         1 UNK         0.0000 
     63 H63         1.0068   51.4893   23.5845 H         1 UNK         0.0000 
@<TRIPOS>BOND
     1    1    2 1    
     2    1   36 1    
     3    1   37 1    
     4    1   38 1    
     5    2    3 1    
     6    2    4 1    
     7    2   35 1    
     8    3   39 1    
     9    3   40 1    
    10    3   41 1    
    11    4    5 3    
    12    5    6 1    
    13    6   11 ar   
    14    6    7 ar   
    15    7    8 ar   
    16    7   42 1    
    17    8    9 ar   
    18    8   43 1    
    19    9   10 ar   
    20    9   12 1    
    21   10   11 ar   
    22   10   44 1    
    23   11   45 1    
    24   12   13 1    
    25   12   46 1    
    26   12   47 1    
    27   13   18 1    
    28   13   14 1    
    29   13   63 1    
    30   14   15 1    
    31   14   48 1    
    32   14   49 1    
    33   15   16 1    
    34   15   50 1    
    35   15   51 1    
    36   16   17 1    
    37   16   19 1    
    38   16   52 1    
    39   17   18 1    
    40   17   53 1    
    41   17   54 1    
    42   18   55 1    
    43   18   56 1    
    44   19   23 1    
    45   19   20 2    
    46   20   21 1    
    47   21   22 2    
    48   22   23 1    
    49   22   57 1    
    50   23   24 1    
    51   23   25 1    
    52   25   30 ar   
    53   25   26 ar   
    54   26   27 ar   
    55   26   58 1    
    56   27   28 ar   
    57   27   59 1    
    58   28   29 ar   
    59   28   60 1    
    60   29   30 ar   
    61   29   31 1    
    62   30   61 1    
    63   31   32 1    
    64   31   33 1    
    65   31   34 1    
    66   35   62 1    
@<TRIPOS>SUBSTRUCTURE
     1 UNK         1 GROUP             0       ****    0 ROOT    
