@<TRIPOS>MOLECULE
ZINC13417349_5892
57   60    1
SMALL
USER_CHARGES


@<TRIPOS>ATOM
      1 C1          7.1475   53.7815   23.2826 C.3       1 UNK         0.0000 
      2 C2          6.1075   54.8959   23.4016 C.3       1 UNK         0.0000 
      3 N3          4.8621   54.4389   24.0542 N.pl3     1 UNK         0.0000 
      4 C4          4.8717   54.4972   25.4492 C.ar      1 UNK         0.0000 
      5 O5          5.8315   54.9241   26.0998 O.2       1 UNK         0.0000 
      6 C6          3.6165   53.9869   26.0141 C.ar      1 UNK         0.0000 
      7 C7          3.2307   53.8544   27.3675 C.2       1 UNK         0.0000 
      8 C8          1.9560   53.2650   27.4864 C.2       1 UNK         0.0000 
      9 S9          1.2506   52.8966   25.9451 S.3       1 UNK         0.0000 
     10 C10         2.6222   53.5636   25.1383 C.ar      1 UNK         0.0000 
     11 N11         2.6999   53.5892   23.7862 N.2       1 UNK         0.0000 
     12 C12         3.8071   53.9708   23.2597 C.ar      1 UNK         0.0000 
     13 S13         3.9045   53.8307   21.4559 S.3       1 UNK         0.0000 
     14 C14         4.3209   52.0635   21.2609 C.3       1 UNK         0.0000 
     15 C15         3.1028   51.1330   21.2409 C.2       1 UNK         0.0000 
     16 O16         2.4849   50.9476   22.2902 O.2       1 UNK         0.0000 
     17 N17         2.8227   50.4964   20.0812 N.am      1 UNK         0.0000 
     18 C18         1.8548   49.4920   19.9039 C.ar      1 UNK         0.0000 
     19 C19         0.6255   49.4780   20.5773 C.ar      1 UNK         0.0000 
     20 C20        -0.2249   48.3827   20.4507 C.ar      1 UNK         0.0000 
     21 C21         0.1438   47.2949   19.6548 C.ar      1 UNK         0.0000 
     22 C22         1.3297   47.3542   18.9148 C.ar      1 UNK         0.0000 
     23 C23         2.1752   48.4518   19.0320 C.ar      1 UNK         0.0000 
     24 C24        -0.6856   46.0754   19.7005 C.2       1 UNK         0.0000 
     25 C25        -0.2275   44.8183   19.5080 C.2       1 UNK         0.0000 
     26 C26        -1.0871   43.5546   19.6222 C.2       1 UNK         0.0000 
     27 O27        -2.3229   43.7217   19.7228 O.co2     1 UNK         0.0000 
     28 C28         1.2675   52.9197   28.8033 C.3       1 UNK         0.0000 
     29 C29         1.9495   53.7073   29.9482 C.3       1 UNK         0.0000 
     30 H30         1.6509   53.2172   30.8775 H         1 UNK         0.0000 
     31 C31         3.4856   53.5377   29.8512 C.3       1 UNK         0.0000 
     32 C32         4.0735   54.2167   28.5936 C.3       1 UNK         0.0000 
     33 C33         1.4508   55.1654   30.0489 C.3       1 UNK         0.0000 
     34 H34         7.9357   54.0969   22.6055 H         1 UNK         0.0000 
     35 H35         7.5971   53.5484   24.2471 H         1 UNK         0.0000 
     36 H36         6.7158   52.8695   22.8823 H         1 UNK         0.0000 
     37 H37         5.9046   55.2978   22.4090 H         1 UNK         0.0000 
     38 H38         6.5447   55.7392   23.9399 H         1 UNK         0.0000 
     39 H39         4.9686   51.7387   22.0754 H         1 UNK         0.0000 
     40 H40         4.8890   51.9491   20.3358 H         1 UNK         0.0000 
     41 H41         3.4707   50.6099   19.3096 H         1 UNK         0.0000 
     42 H42         0.3332   50.2892   21.2281 H         1 UNK         0.0000 
     43 H43        -1.1417   48.3590   21.0205 H         1 UNK         0.0000 
     44 H44         1.6240   46.5370   18.2726 H         1 UNK         0.0000 
     45 H45         3.1044   48.4621   18.4816 H         1 UNK         0.0000 
     46 H46        -1.7357   46.2229   19.9139 H         1 UNK         0.0000 
     47 H47         0.8158   44.6717   19.2797 H         1 UNK         0.0000 
     48 H48         0.2021   53.1495   28.7594 H         1 UNK         0.0000 
     49 H49         1.3367   51.8490   28.9994 H         1 UNK         0.0000 
     50 H50         3.9797   53.9691   30.7207 H         1 UNK         0.0000 
     51 H51         3.7430   52.4771   29.8434 H         1 UNK         0.0000 
     52 H52         5.1134   53.9128   28.4671 H         1 UNK         0.0000 
     53 H53         4.0933   55.2968   28.7255 H         1 UNK         0.0000 
     54 H54         1.6638   55.7303   29.1411 H         1 UNK         0.0000 
     55 H55         0.3720   55.1962   30.2059 H         1 UNK         0.0000 
     56 H56         1.9066   55.6991   30.8816 H         1 UNK         0.0000 
     57 O57        -0.4205   42.4967   19.6814 O.co2     1 UNK         0.0000 
@<TRIPOS>BOND
     1    1    2 1    
     2    1   34 1    
     3    1   35 1    
     4    1   36 1    
     5    2    3 1    
     6    2   37 1    
     7    2   38 1    
     8    3   12 ar   
     9    3    4 ar   
    10    4    5 2    
    11    4    6 ar   
    12    6   10 ar   
    13    6    7 1    
    14    7   32 1    
    15    7    8 2    
    16    8    9 1    
    17    8   28 1    
    18    9   10 1    
    19   10   11 ar   
    20   11   12 ar   
    21   12   13 1    
    22   13   14 1    
    23   14   15 1    
    24   14   39 1    
    25   14   40 1    
    26   15   16 2    
    27   15   17 am   BACKBONE|DICT|INTERRES
    28   17   18 1    
    29   17   41 1    
    30   18   23 ar   
    31   18   19 ar   
    32   19   20 ar   
    33   19   42 1    
    34   20   21 ar   
    35   20   43 1    
    36   21   22 ar   
    37   21   24 1    
    38   22   23 ar   
    39   22   44 1    
    40   23   45 1    
    41   24   25 2    
    42   24   46 1    
    43   25   26 1    
    44   25   47 1    
    45   26   27 2    
    46   26   57 1    
    47   28   29 1    
    48   28   48 1    
    49   28   49 1    
    50   29   30 1    
    51   29   31 1    
    52   29   33 1    
    53   31   32 1    
    54   31   50 1    
    55   31   51 1    
    56   32   52 1    
    57   32   53 1    
    58   33   54 1    
    59   33   55 1    
    60   33   56 1    
@<TRIPOS>SUBSTRUCTURE
     1 UNK         1 GROUP             0       ****    0 ROOT    
