ZINC58903563_2533
                    3D
 Schrodinger Suite 2024-2.
 58 62  0  0  1  0            999 V2000
    0.9740   53.5026   23.7873 C   0  0  0  0  0  0
    1.7153   52.7424   22.7131 C   0  0  0  0  0  0
    2.9141   53.0507   22.0417 C   0  0  0  0  0  0
    3.0018   52.0537   21.0910 C   0  0  0  0  0  0
    1.9540   51.1722   21.2615 N   0  0  0  0  0  0
    1.1948   51.6121   22.2834 N   0  0  0  0  0  0
    1.5747   49.9974   20.5399 C   0  0  0  0  0  0
    0.3520   49.3539   20.8114 C   0  0  0  0  0  0
   -0.0238   48.2123   20.1078 C   0  0  0  0  0  0
    0.8196   47.6960   19.1299 C   0  0  0  0  0  0
    2.0305   48.3182   18.8476 C   0  0  0  0  0  0
    2.4036   49.4635   19.5438 C   0  0  0  0  0  0
    3.9255   51.9631   20.0817 O   0  0  0  0  0  0
    4.6995   53.0737   19.9188 C   0  0  0  0  0  0
    4.7838   54.1350   20.7700 C   0  0  0  0  0  0
    3.9683   54.1652   22.0989 C   0  0  2  0  0  0
    3.4121   55.1036   22.1297 H   0  0  0  0  0  0
    4.7548   54.1753   23.4224 C   0  0  0  0  0  0
    6.1331   53.9461   23.4719 C   0  0  0  0  0  0
    6.8349   54.0967   24.6620 C   0  0  0  0  0  0
    6.1659   54.3920   25.8489 C   0  0  0  0  0  0
    4.7791   54.5776   25.8286 C   0  0  0  0  0  0
    4.1010   54.4967   24.6158 C   0  0  0  0  0  0
    4.0239   54.8832   26.9357 O   0  0  0  0  0  0
    4.4147   54.3488   28.1961 C   0  0  0  0  0  0
    3.1553   54.1869   29.0332 C   0  0  0  0  0  0
    2.7376   52.9166   29.4417 C   0  0  0  0  0  0
    1.5553   52.7740   30.1647 C   0  0  0  0  0  0
    0.7987   53.9003   30.4816 C   0  0  0  0  0  0
    1.2130   55.1694   30.0817 C   0  0  0  0  0  0
    2.3898   55.3120   29.3527 C   0  0  0  0  0  0
    5.6018   55.3011   20.4575 C   0  0  0  0  0  0
    6.3107   55.8893   21.2679 O   0  0  0  0  0  0
    5.5044   55.7692   19.2125 N   0  0  0  0  0  0
    5.3898   52.8967   18.7510 N   0  0  0  0  0  0
    1.1042   54.5787   23.6805 H   0  0  0  0  0  0
   -0.1017   53.3264   23.7503 H   0  0  0  0  0  0
    1.3047   53.2172   24.7862 H   0  0  0  0  0  0
   -0.3233   49.7287   21.5669 H   0  0  0  0  0  0
   -0.9653   47.7287   20.3227 H   0  0  0  0  0  0
    0.5321   46.8114   18.5813 H   0  0  0  0  0  0
    2.6858   47.9259   18.0820 H   0  0  0  0  0  0
    3.3525   49.9041   19.2818 H   0  0  0  0  0  0
    6.6865   53.6979   22.5805 H   0  0  0  0  0  0
    7.9043   53.9819   24.6344 H   0  0  0  0  0  0
    6.7227   54.4894   26.7687 H   0  0  0  0  0  0
    3.0524   54.7256   24.6161 H   0  0  0  0  0  0
    4.9177   53.3840   28.0926 H   0  0  0  0  0  0
    5.1095   55.0242   28.6976 H   0  0  0  0  0  0
    3.3144   52.0403   29.1830 H   0  0  0  0  0  0
    1.2185   51.7955   30.4740 H   0  0  0  0  0  0
   -0.1125   53.7852   31.0504 H   0  0  0  0  0  0
    0.6296   56.0407   30.3397 H   0  0  0  0  0  0
    2.7043   56.2954   29.0334 H   0  0  0  0  0  0
    4.8854   55.3223   18.5534 H   0  0  0  0  0  0
    6.0255   56.5905   18.9479 H   0  0  0  0  0  0
    6.0968   53.5515   18.4541 H   0  0  0  0  0  0
    5.4205   51.9495   18.3582 H   0  0  0  0  0  0
  1  2  1  0  0  0
  1 36  1  0  0  0
  1 37  1  0  0  0
  1 38  1  0  0  0
  2  6  2  0  0  0
  2  3  1  0  0  0
  3 16  1  0  0  0
  3  4  2  0  0  0
  4  5  1  0  0  0
  4 13  1  0  0  0
  5  6  1  0  0  0
  5  7  1  0  0  0
  7 12  2  0  0  0
  7  8  1  0  0  0
  8  9  2  0  0  0
  8 39  1  0  0  0
  9 10  1  0  0  0
  9 40  1  0  0  0
 10 11  2  0  0  0
 10 41  1  0  0  0
 11 12  1  0  0  0
 11 42  1  0  0  0
 12 43  1  0  0  0
 13 14  1  0  0  0
 14 15  2  0  0  0
 14 35  1  0  0  0
 15 16  1  0  0  0
 15 32  1  0  0  0
 16 17  1  0  0  0
 16 18  1  0  0  0
 18 23  2  0  0  0
 18 19  1  0  0  0
 19 20  2  0  0  0
 19 44  1  0  0  0
 20 21  1  0  0  0
 20 45  1  0  0  0
 21 22  2  0  0  0
 21 46  1  0  0  0
 22 23  1  0  0  0
 22 24  1  0  0  0
 23 47  1  0  0  0
 24 25  1  0  0  0
 25 26  1  0  0  0
 25 48  1  0  0  0
 25 49  1  0  0  0
 26 31  2  0  0  0
 26 27  1  0  0  0
 27 28  2  0  0  0
 27 50  1  0  0  0
 28 29  1  0  0  0
 28 51  1  0  0  0
 29 30  2  0  0  0
 29 52  1  0  0  0
 30 31  1  0  0  0
 30 53  1  0  0  0
 31 54  1  0  0  0
 32 33  2  0  0  0
 32 34  1  0  0  0
 34 55  1  0  0  0
 34 56  1  0  0  0
 35 57  1  0  0  0
 35 58  1  0  0  0
M  END
> <i_i_glide_confnum>
233

> <i_i_glide_lignum>
2534

> <i_i_glide_posenum>
301

> <i_i_glide_rotatable_bonds>
6

> <i_m_Source_File_Index>
1122

> <b_m_subgroup_collapsed>
0

> <r_i_docking_score>
-7.0938

> <r_i_glide_ecoul>
-6.14789

> <r_i_glide_eff_state_penalty>
0

> <r_i_glide_einternal>
11.4828

> <r_i_glide_emodel>
-71.4755

> <r_i_glide_energy>
-54.2344

> <r_i_glide_erotb>
0.489979

> <r_i_glide_esite>
-0.1

> <r_i_glide_evdw>
-48.0865

> <r_i_glide_gscore>
-7.0938

> <r_i_glide_hbond>
-0.16

> <r_i_glide_ligand_efficiency>
-0.208641

> <r_i_glide_ligand_efficiency_ln>
-1.56722

> <r_i_glide_ligand_efficiency_sa>
-0.675916

> <r_i_glide_lipo>
-3.63289

> <r_i_glide_metal>
0

> <r_i_glide_rewards>
-0.36437

> <s_i_glide_gridfile>
wee1_glide-grid

> <s_m_Source_File>
wee1_decoys_glide_SP.sdf

> <s_m_Source_Path>
/Users/zhangxujun/Desktop

> <s_m_entry_id>
1397

> <s_m_entry_name>
wee1_decoys_glide_SP.1122

> <s_m_subgroup_title>
wee1_decoys_glide_SP

> <s_m_subgroupid>
wee1_decoys_glide_SP


$$$$
