@<TRIPOS>MOLECULE
ZINC13640959_3966
69   73    1
SMALL
USER_CHARGES


@<TRIPOS>ATOM
      1 C1          3.6824   53.1661   17.0235 C.3       1 UNK         0.0000 
      2 C2          2.2837   52.7499   17.4369 C.ar      1 UNK         0.0000 
      3 C3          1.2092   53.6270   17.2825 C.ar      1 UNK         0.0000 
      4 C4         -0.0742   53.2439   17.6814 C.ar      1 UNK         0.0000 
      5 C5         -0.2799   51.9757   18.2321 C.ar      1 UNK         0.0000 
      6 C6          0.7883   51.0792   18.3783 C.ar      1 UNK         0.0000 
      7 C7          2.0673   51.4839   17.9852 C.ar      1 UNK         0.0000 
      8 N8          0.6566   49.7627   18.8448 N.pl3     1 UNK         0.0000 
      9 S9         -0.6661   49.1017   19.8343 S.o2      1 UNK         0.0000 
     10 O10        -1.9405   49.6749   19.3860 O.2       1 UNK         0.0000 
     11 O11        -0.4643   47.6496   19.8415 O.2       1 UNK         0.0000 
     12 C12        -0.3662   49.6342   21.5167 C.ar      1 UNK         0.0000 
     13 C13         0.8908   49.4184   22.0833 C.ar      1 UNK         0.0000 
     14 C14         1.1018   49.6966   23.4286 C.ar      1 UNK         0.0000 
     15 C15         0.0529   50.1567   24.2238 C.ar      1 UNK         0.0000 
     16 C16        -1.2029   50.4485   23.6504 C.ar      1 UNK         0.0000 
     17 C17        -1.3988   50.1730   22.2923 C.ar      1 UNK         0.0000 
     18 C18        -2.2868   50.9790   24.5767 C.3       1 UNK         0.0000 
     19 H19        -2.6868   50.1108   25.1038 H         1 UNK         0.0000 
     20 C20        -3.4349   51.8166   24.0592 C.2       1 UNK         0.0000 
     21 C21        -3.7695   52.7354   24.9898 C.2       1 UNK         0.0000 
     22 C22        -2.8010   52.7007   26.1652 C.3       1 UNK         0.0000 
     23 C23        -1.6287   51.9574   25.5410 C.3       1 UNK         0.0000 
     24 H24        -1.0664   52.7004   24.9686 H         1 UNK         0.0000 
     25 C25        -0.5920   51.2286   26.4365 C.3       1 UNK         0.0000 
     26 H26        -1.1168   50.5264   27.0893 H         1 UNK         0.0000 
     27 N27         0.3048   50.4172   25.5902 N.pl3     1 UNK         0.0000 
     28 C28         0.1640   52.2014   27.3491 C.ar      1 UNK         0.0000 
     29 C29         1.2917   52.8959   26.8888 C.ar      1 UNK         0.0000 
     30 C30         1.9824   53.7976   27.7139 C.ar      1 UNK         0.0000 
     31 C31         1.5190   54.0122   29.0191 C.ar      1 UNK         0.0000 
     32 C32         0.3984   53.3141   29.4927 C.ar      1 UNK         0.0000 
     33 C33        -0.2729   52.4190   28.6576 C.ar      1 UNK         0.0000 
     34 O34        -0.0676   53.5208   30.7660 O.3       1 UNK         0.0000 
     35 C35         0.6168   52.7682   31.7598 C.3       1 UNK         0.0000 
     36 O36         2.1872   54.8927   29.8403 O.3       1 UNK         0.0000 
     37 C37         1.6302   56.2012   29.8691 C.3       1 UNK         0.0000 
     38 O38         3.1005   54.5095   27.3149 O.3       1 UNK         0.0000 
     39 C39         3.6418   54.2978   26.0164 C.3       1 UNK         0.0000 
     40 C40        -1.2340   54.2088   17.5198 C.3       1 UNK         0.0000 
     41 H41         4.4288   52.7155   17.6791 H         1 UNK         0.0000 
     42 H42         3.8111   54.2467   17.0947 H         1 UNK         0.0000 
     43 H43         3.8895   52.8470   16.0017 H         1 UNK         0.0000 
     44 H44         1.3724   54.6104   16.8606 H         1 UNK         0.0000 
     45 H45        -1.2787   51.7015   18.5156 H         1 UNK         0.0000 
     46 H46         2.9082   50.8085   18.0831 H         1 UNK         0.0000 
     47 H47         1.4781   49.1810   18.7762 H         1 UNK         0.0000 
     48 H48         1.6952   49.0068   21.4909 H         1 UNK         0.0000 
     49 H49         2.0749   49.5135   23.8642 H         1 UNK         0.0000 
     50 H50        -2.3694   50.3347   21.8482 H         1 UNK         0.0000 
     51 H51        -3.9663   51.6026   23.1424 H         1 UNK         0.0000 
     52 H52        -4.5987   53.4279   24.9419 H         1 UNK         0.0000 
     53 H53        -3.2086   52.1854   27.0347 H         1 UNK         0.0000 
     54 H54        -2.5002   53.6958   26.4821 H         1 UNK         0.0000 
     55 H55         1.0842   49.9912   26.0706 H         1 UNK         0.0000 
     56 H56         1.6194   52.7200   25.8763 H         1 UNK         0.0000 
     57 H57        -1.1365   51.8896   29.0342 H         1 UNK         0.0000 
     58 H58         0.3059   53.1053   32.7498 H         1 UNK         0.0000 
     59 H59         0.3756   51.7055   31.6815 H         1 UNK         0.0000 
     60 H60         1.6997   52.8918   31.6975 H         1 UNK         0.0000 
     61 H61         2.2993   56.8785   30.4007 H         1 UNK         0.0000 
     62 H62         1.4850   56.6063   28.8657 H         1 UNK         0.0000 
     63 H63         0.6737   56.2075   30.3925 H         1 UNK         0.0000 
     64 H64         4.4807   54.9770   25.8673 H         1 UNK         0.0000 
     65 H65         4.0168   53.2802   25.9048 H         1 UNK         0.0000 
     66 H66         2.9132   54.4986   25.2295 H         1 UNK         0.0000 
     67 H67        -2.0841   53.9310   18.1460 H         1 UNK         0.0000 
     68 H68        -0.9328   55.2161   17.8143 H         1 UNK         0.0000 
     69 H69        -1.5599   54.2473   16.4775 H         1 UNK         0.0000 
@<TRIPOS>BOND
     1    1    2 1    
     2    1   41 1    
     3    1   42 1    
     4    1   43 1    
     5    2    7 ar   
     6    2    3 ar   
     7    3    4 ar   
     8    3   44 1    
     9    4    5 ar   
    10    4   40 1    
    11    5    6 ar   
    12    5   45 1    
    13    6    7 ar   
    14    6    8 1    
    15    7   46 1    
    16    8    9 1    
    17    8   47 1    
    18    9   10 2    
    19    9   11 2    
    20    9   12 1    
    21   12   17 ar   
    22   12   13 ar   
    23   13   14 ar   
    24   13   48 1    
    25   14   15 ar   
    26   14   49 1    
    27   15   27 1    
    28   15   16 ar   
    29   16   17 ar   
    30   16   18 1    
    31   17   50 1    
    32   18   19 1    
    33   18   23 1    
    34   18   20 1    
    35   20   21 2    
    36   20   51 1    
    37   21   22 1    
    38   21   52 1    
    39   22   23 1    
    40   22   53 1    
    41   22   54 1    
    42   23   24 1    
    43   23   25 1    
    44   25   26 1    
    45   25   27 1    
    46   25   28 1    
    47   27   55 1    
    48   28   33 ar   
    49   28   29 ar   
    50   29   30 ar   
    51   29   56 1    
    52   30   31 ar   
    53   30   38 1    
    54   31   32 ar   
    55   31   36 1    
    56   32   33 ar   
    57   32   34 1    
    58   33   57 1    
    59   34   35 1    
    60   35   58 1    
    61   35   59 1    
    62   35   60 1    
    63   36   37 1    
    64   37   61 1    
    65   37   62 1    
    66   37   63 1    
    67   38   39 1    
    68   39   64 1    
    69   39   65 1    
    70   39   66 1    
    71   40   67 1    
    72   40   68 1    
    73   40   69 1    
@<TRIPOS>SUBSTRUCTURE
     1 UNK         1 GROUP             0       ****    0 ROOT    
