ZINC66107044_2892
                    3D
 Schrodinger Suite 2024-2.
 63 66  0  0  1  0            999 V2000
    6.5475   55.2821   20.5384 C   0  0  0  0  0  0
    6.7040   55.3543   21.9226 C   0  0  0  0  0  0
    5.9641   54.5145   22.7694 C   0  0  0  0  0  0
    5.0975   53.5713   22.1904 C   0  0  0  0  0  0
    4.9621   53.4713   20.8040 C   0  0  0  0  0  0
    5.6842   54.3372   19.9808 C   0  0  0  0  0  0
    4.1193   52.5154   20.2192 N   0  0  0  0  0  0
    2.7251   52.4412   20.5994 C   0  0  0  0  0  0
    2.3874   51.4025   21.6808 C   0  0  0  0  0  0
    2.7639   50.2382   21.5598 O   0  0  0  0  0  0
    1.6235   51.8516   22.6992 N   0  0  0  0  0  0
    0.9643   51.1044   23.6888 C   0  0  0  0  0  0
    0.6020   51.7721   24.8606 C   0  0  0  0  0  0
   -0.1113   51.1066   25.8583 C   0  0  0  0  0  0
   -0.4881   49.7744   25.6816 C   0  0  0  0  0  0
   -0.1442   49.0866   24.5062 C   0  0  0  0  0  0
    0.5885   49.7614   23.5258 C   0  0  0  0  0  0
   -0.4859   47.7824   24.2064 O   0  0  0  0  0  0
   -1.3139   47.0083   25.0754 C   0  0  0  0  0  0
   -2.7552   46.9692   24.5403 C   0  0  1  0  0  0
   -3.1865   47.9660   24.6563 H   0  0  0  0  0  0
   -2.9083   46.4481   23.1092 C   0  0  0  0  0  0
   -4.2880   45.8171   23.0760 C   0  0  0  0  0  0
   -4.6830   45.6890   24.5488 C   0  0  0  0  0  0
   -3.5029   46.0054   25.2820 O   0  0  0  0  0  0
    6.0938   54.6533   24.2694 C   0  0  0  0  0  0
    7.1018   55.1569   24.7726 O   0  0  0  0  0  0
    5.0109   54.2652   24.9762 N   0  0  0  0  0  0
    4.8600   54.2405   26.3705 C   0  0  0  0  0  0
    5.9427   54.0999   27.2478 C   0  0  0  0  0  0
    5.7299   54.1027   28.6176 C   0  0  0  0  0  0
    4.4408   54.2285   29.1321 C   0  0  0  0  0  0
    3.3428   54.3441   28.2719 C   0  0  0  0  0  0
    3.5645   54.3382   26.8874 C   0  0  0  0  0  0
    1.9317   54.4852   28.8365 C   0  0  0  0  0  0
    1.8468   53.9992   30.0765 F   0  0  0  0  0  0
    1.6032   55.7776   28.8712 F   0  0  0  0  0  0
    1.0450   53.8363   28.0803 F   0  0  0  0  0  0
    7.1155   55.9395   19.8931 H   0  0  0  0  0  0
    7.3855   56.0871   22.3333 H   0  0  0  0  0  0
    4.5325   52.8967   22.8122 H   0  0  0  0  0  0
    5.5850   54.2769   18.9065 H   0  0  0  0  0  0
    4.2339   52.5503   19.2146 H   0  0  0  0  0  0
    2.1376   52.1088   19.7428 H   0  0  0  0  0  0
    2.3057   53.4048   20.8752 H   0  0  0  0  0  0
    1.4585   52.8451   22.7342 H   0  0  0  0  0  0
    0.8693   52.8091   25.0096 H   0  0  0  0  0  0
   -0.3831   51.6226   26.7672 H   0  0  0  0  0  0
   -1.0453   49.3070   26.4767 H   0  0  0  0  0  0
    0.8303   49.2228   22.6232 H   0  0  0  0  0  0
   -1.2932   47.2939   26.1230 H   0  0  0  0  0  0
   -0.8980   46.0050   25.0500 H   0  0  0  0  0  0
   -2.1438   45.6971   22.9039 H   0  0  0  0  0  0
   -2.7418   47.2323   22.3686 H   0  0  0  0  0  0
   -4.2677   44.8472   22.5744 H   0  0  0  0  0  0
   -5.0002   46.4490   22.5416 H   0  0  0  0  0  0
   -5.0372   44.6908   24.8081 H   0  0  0  0  0  0
   -5.4776   46.3834   24.8275 H   0  0  0  0  0  0
    4.2020   53.9879   24.4464 H   0  0  0  0  0  0
    6.9551   53.9811   26.8913 H   0  0  0  0  0  0
    6.5773   54.0246   29.2817 H   0  0  0  0  0  0
    4.3058   54.2388   30.2033 H   0  0  0  0  0  0
    2.7242   54.4302   26.2131 H   0  0  0  0  0  0
  1  6  2  0  0  0
  1  2  1  0  0  0
  1 39  1  0  0  0
  2  3  2  0  0  0
  2 40  1  0  0  0
  3  4  1  0  0  0
  3 26  1  0  0  0
  4  5  2  0  0  0
  4 41  1  0  0  0
  5  6  1  0  0  0
  5  7  1  0  0  0
  6 42  1  0  0  0
  7  8  1  0  0  0
  7 43  1  0  0  0
  8  9  1  0  0  0
  8 44  1  0  0  0
  8 45  1  0  0  0
  9 10  2  0  0  0
  9 11  1  0  0  0
 11 12  1  0  0  0
 11 46  1  0  0  0
 12 17  2  0  0  0
 12 13  1  0  0  0
 13 14  2  0  0  0
 13 47  1  0  0  0
 14 15  1  0  0  0
 14 48  1  0  0  0
 15 16  2  0  0  0
 15 49  1  0  0  0
 16 17  1  0  0  0
 16 18  1  0  0  0
 17 50  1  0  0  0
 18 19  1  0  0  0
 19 20  1  0  0  0
 19 51  1  0  0  0
 19 52  1  0  0  0
 20 21  1  0  0  0
 20 25  1  0  0  0
 20 22  1  0  0  0
 22 23  1  0  0  0
 22 53  1  0  0  0
 22 54  1  0  0  0
 23 24  1  0  0  0
 23 55  1  0  0  0
 23 56  1  0  0  0
 24 25  1  0  0  0
 24 57  1  0  0  0
 24 58  1  0  0  0
 26 27  2  0  0  0
 26 28  1  0  0  0
 28 29  1  0  0  0
 28 59  1  0  0  0
 29 34  2  0  0  0
 29 30  1  0  0  0
 30 31  2  0  0  0
 30 60  1  0  0  0
 31 32  1  0  0  0
 31 61  1  0  0  0
 32 33  2  0  0  0
 32 62  1  0  0  0
 33 34  1  0  0  0
 33 35  1  0  0  0
 34 63  1  0  0  0
 35 36  1  0  0  0
 35 37  1  0  0  0
 35 38  1  0  0  0
M  END
> <i_i_glide_confnum>
601

> <i_i_glide_lignum>
2893

> <i_i_glide_posenum>
235

> <i_i_glide_rotatable_bonds>
12

> <i_m_Source_File_Index>
5671

> <b_m_subgroup_collapsed>
0

> <r_i_docking_score>
-6.30239

> <r_i_glide_ecoul>
-4.53986

> <r_i_glide_eff_state_penalty>
0

> <r_i_glide_einternal>
19.0351

> <r_i_glide_emodel>
-65.6862

> <r_i_glide_energy>
-54.7477

> <r_i_glide_erotb>
0.855443

> <r_i_glide_esite>
-0.033432

> <r_i_glide_evdw>
-50.2079

> <r_i_glide_gscore>
-6.30239

> <r_i_glide_hbond>
-0.366855

> <r_i_glide_ligand_efficiency>
-0.170335

> <r_i_glide_ligand_efficiency_ln>
-1.36684

> <r_i_glide_ligand_efficiency_sa>
-0.567594

> <r_i_glide_lipo>
-2.8043

> <r_i_glide_metal>
0

> <r_i_glide_rewards>
-0.761879

> <s_i_glide_gridfile>
wee1_glide-grid

> <s_m_Source_File>
wee1_decoys_glide_SP.sdf

> <s_m_Source_Path>
/Users/zhangxujun/Desktop

> <s_m_entry_id>
5946

> <s_m_entry_name>
wee1_decoys_glide_SP.5671

> <s_m_subgroup_title>
wee1_decoys_glide_SP

> <s_m_subgroupid>
wee1_decoys_glide_SP


$$$$
