@<TRIPOS>MOLECULE
ZINC39633648_633
72   76    1
SMALL
USER_CHARGES


@<TRIPOS>ATOM
      1 C1          4.5638   54.0968   22.5057 C.ar      1 UNK         0.0000 
      2 C2          5.2992   54.2679   23.6758 C.ar      1 UNK         0.0000 
      3 C3          4.6569   54.2131   24.9098 C.ar      1 UNK         0.0000 
      4 C4          3.2780   53.9501   24.9843 C.ar      1 UNK         0.0000 
      5 C5          2.5528   53.8249   23.7968 C.ar      1 UNK         0.0000 
      6 C6          3.1888   53.8915   22.5618 C.ar      1 UNK         0.0000 
      7 O7          2.5261   53.7887   26.1395 O.3       1 UNK         0.0000 
      8 C8          2.9513   53.2977   27.3696 C.ar      1 UNK         0.0000 
      9 C9          2.0005   52.8413   28.3030 C.ar      1 UNK         0.0000 
     10 C10         2.4545   52.4139   29.5589 C.ar      1 UNK         0.0000 
     11 C11         3.8161   52.4323   29.8579 C.ar      1 UNK         0.0000 
     12 C12         4.6963   52.8867   28.8807 C.ar      1 UNK         0.0000 
     13 N13         4.2812   53.2973   27.6594 N.ar      1 UNK         0.0000 
     14 C14         0.5185   52.9533   28.0712 C.2       1 UNK         0.0000 
     15 O15        -0.0956   53.6968   28.8343 O.2       1 UNK         0.0000 
     16 N16        -0.0907   52.2745   27.0600 N.am      1 UNK         0.0000 
     17 C17        -1.4927   52.5137   26.7268 C.3       1 UNK         0.0000 
     18 C18        -1.5481   52.2377   25.2168 C.3       1 UNK         0.0000 
     19 H19        -1.1392   53.1053   24.6957 H         1 UNK         0.0000 
     20 C20        -0.6136   51.0142   25.0648 C.3       1 UNK         0.0000 
     21 C21         0.5234   51.3798   26.0735 C.3       1 UNK         0.0000 
     22 C22        -1.3311   49.6873   25.4604 C.3       1 UNK         0.0000 
     23 C23        -0.3686   48.4967   25.4680 C.3       1 UNK         0.0000 
     24 N24         0.3043   48.3924   24.0835 N.4       1 UNK         0.0000 
     25 C25         0.9219   49.6956   23.5256 C.3       1 UNK         0.0000 
     26 C26        -0.1354   50.8056   23.6080 C.3       1 UNK         0.0000 
     27 C27        -3.0165   52.0911   24.7265 C.2       1 UNK         0.0000 
     28 O28        -3.2346   51.6007   23.6172 O.2       1 UNK         0.0000 
     29 N29        -4.0035   52.5771   25.4996 N.am      1 UNK         0.0000 
     30 C30        -5.4413   52.5414   25.2139 C.3       1 UNK         0.0000 
     31 C31        -6.1107   51.3691   25.9682 C.3       1 UNK         0.0000 
     32 C32        -6.4016   51.6002   27.4656 C.3       1 UNK         0.0000 
     33 C33        -7.7393   52.3147   27.7443 C.3       1 UNK         0.0000 
     34 C34        -7.8403   53.7799   27.2814 C.3       1 UNK         0.0000 
     35 C35        -7.5450   54.0358   25.7900 C.3       1 UNK         0.0000 
     36 C36        -6.0481   53.9476   25.4332 C.3       1 UNK         0.0000 
     37 H37         5.0585   54.1427   21.5471 H         1 UNK         0.0000 
     38 H38         6.3631   54.4520   23.6269 H         1 UNK         0.0000 
     39 H39         5.2662   54.3788   25.7816 H         1 UNK         0.0000 
     40 H40         1.4872   53.6592   23.8395 H         1 UNK         0.0000 
     41 H41         2.6190   53.7800   21.6510 H         1 UNK         0.0000 
     42 H42         1.7498   52.0937   30.3138 H         1 UNK         0.0000 
     43 H43         4.1786   52.1128   30.8237 H         1 UNK         0.0000 
     44 H44         5.7620   52.9194   29.0483 H         1 UNK         0.0000 
     45 H45        -1.8224   53.5395   26.8828 H         1 UNK         0.0000 
     46 H46        -2.1073   51.7984   27.2785 H         1 UNK         0.0000 
     47 H47         1.0667   50.5337   26.4888 H         1 UNK         0.0000 
     48 H48         1.2424   51.9686   25.5114 H         1 UNK         0.0000 
     49 H49        -1.7395   49.7593   26.4705 H         1 UNK         0.0000 
     50 H50        -2.1889   49.4727   24.8220 H         1 UNK         0.0000 
     51 H51         0.4226   48.5664   26.2151 H         1 UNK         0.0000 
     52 H52        -0.8961   47.5564   25.6421 H         1 UNK         0.0000 
     53 H53         1.0410   47.6974   24.1412 H         1 UNK         0.0000 
     54 H54         1.8227   49.8992   24.1028 H         1 UNK         0.0000 
     55 H55         1.2164   49.4776   22.4981 H         1 UNK         0.0000 
     56 H56        -0.9661   50.6109   22.9289 H         1 UNK         0.0000 
     57 H57         0.3232   51.7236   23.2404 H         1 UNK         0.0000 
     58 H58        -3.7461   53.0468   26.3550 H         1 UNK         0.0000 
     59 H59        -5.5771   52.3145   24.1527 H         1 UNK         0.0000 
     60 H60        -5.4868   50.4787   25.8591 H         1 UNK         0.0000 
     61 H61        -7.0448   51.1110   25.4651 H         1 UNK         0.0000 
     62 H62        -5.5771   52.1369   27.9364 H         1 UNK         0.0000 
     63 H63        -6.4368   50.6282   27.9601 H         1 UNK         0.0000 
     64 H64        -7.9327   52.2817   28.8183 H         1 UNK         0.0000 
     65 H65        -8.5507   51.7407   27.2890 H         1 UNK         0.0000 
     66 H66        -7.1799   54.3986   27.8931 H         1 UNK         0.0000 
     67 H67        -8.8510   54.1320   27.4987 H         1 UNK         0.0000 
     68 H68        -7.8921   55.0422   25.5475 H         1 UNK         0.0000 
     69 H69        -8.1306   53.3644   25.1575 H         1 UNK         0.0000 
     70 H70        -5.8920   54.4986   24.5055 H         1 UNK         0.0000 
     71 H71        -5.4688   54.5074   26.1698 H         1 UNK         0.0000 
     72 H72        -0.3812   48.0574   23.4204 H         1 UNK         0.0000 
@<TRIPOS>BOND
     1    1    6 ar   
     2    1    2 ar   
     3    1   37 1    
     4    2    3 ar   
     5    2   38 1    
     6    3    4 ar   
     7    3   39 1    
     8    4    5 ar   
     9    4    7 1    
    10    5    6 ar   
    11    5   40 1    
    12    6   41 1    
    13    7    8 1    
    14    8   13 ar   
    15    8    9 ar   
    16    9   10 ar   
    17    9   14 1    
    18   10   11 ar   
    19   10   42 1    
    20   11   12 ar   
    21   11   43 1    
    22   12   13 ar   
    23   12   44 1    
    24   14   15 2    
    25   14   16 am   BACKBONE|DICT|INTERRES
    26   16   21 1    
    27   16   17 1    
    28   17   18 1    
    29   17   45 1    
    30   17   46 1    
    31   18   19 1    
    32   18   20 1    
    33   18   27 1    
    34   20   26 1    
    35   20   21 1    
    36   20   22 1    
    37   21   47 1    
    38   21   48 1    
    39   22   23 1    
    40   22   49 1    
    41   22   50 1    
    42   23   24 1    
    43   23   51 1    
    44   23   52 1    
    45   24   25 1    
    46   24   53 1    
    47   24   72 1    
    48   25   26 1    
    49   25   54 1    
    50   25   55 1    
    51   26   56 1    
    52   26   57 1    
    53   27   28 2    
    54   27   29 am   BACKBONE|DICT|INTERRES
    55   29   30 1    
    56   29   58 1    
    57   30   36 1    
    58   30   31 1    
    59   30   59 1    
    60   31   32 1    
    61   31   60 1    
    62   31   61 1    
    63   32   33 1    
    64   32   62 1    
    65   32   63 1    
    66   33   34 1    
    67   33   64 1    
    68   33   65 1    
    69   34   35 1    
    70   34   66 1    
    71   34   67 1    
    72   35   36 1    
    73   35   68 1    
    74   35   69 1    
    75   36   70 1    
    76   36   71 1    
@<TRIPOS>SUBSTRUCTURE
     1 UNK         1 GROUP             0       ****    0 ROOT    
