@<TRIPOS>MOLECULE
ZINC35226237_840
58   61    1
SMALL
USER_CHARGES


@<TRIPOS>ATOM
      1 C1          1.6329   50.5553   22.0042 C.3       1 UNK         0.0000 
      2 C2          2.6547   51.6453   21.7360 C.ar      1 UNK         0.0000 
      3 C3          3.7490   51.3890   20.9095 C.ar      1 UNK         0.0000 
      4 C4          4.7042   52.3767   20.6934 C.ar      1 UNK         0.0000 
      5 C5          4.5599   53.6299   21.2958 C.ar      1 UNK         0.0000 
      6 C6          3.4523   53.8951   22.1029 C.ar      1 UNK         0.0000 
      7 C7          2.5072   52.8981   22.3329 C.ar      1 UNK         0.0000 
      8 N8          5.5080   54.6497   21.0663 N.pl3     1 UNK         0.0000 
      9 C9          6.4614   55.1676   21.9369 C.ar      1 UNK         0.0000 
     10 N10         7.1728   56.0911   21.3411 N.2       1 UNK         0.0000 
     11 N11         6.7238   56.1885   20.0352 N.2       1 UNK         0.0000 
     12 C12         5.7857   55.2917   19.8738 C.ar      1 UNK         0.0000 
     13 S13         4.9811   55.0167   18.3290 S.3       1 UNK         0.0000 
     14 C14         6.1769   53.8293   17.6241 C.3       1 UNK         0.0000 
     15 C15         7.4446   54.5059   17.1214 C.ar      1 UNK         0.0000 
     16 C16         7.4696   55.0794   15.8475 C.ar      1 UNK         0.0000 
     17 C17         8.6349   55.6827   15.3815 C.ar      1 UNK         0.0000 
     18 C18         9.7713   55.7075   16.1876 C.ar      1 UNK         0.0000 
     19 C19         9.7540   55.1358   17.4578 C.ar      1 UNK         0.0000 
     20 C20         8.5901   54.5303   17.9219 C.ar      1 UNK         0.0000 
     21 C21         6.7315   54.7291   23.3771 C.3       1 UNK         0.0000 
     22 H22         7.4731   55.4002   23.8172 H         1 UNK         0.0000 
     23 C23         7.3266   53.3040   23.3917 C.3       1 UNK         0.0000 
     24 N24         5.5216   54.8960   24.1846 N.am      1 UNK         0.0000 
     25 C25         5.2903   54.4958   25.4419 C.2       1 UNK         0.0000 
     26 O26         6.1724   54.2803   26.2720 O.2       1 UNK         0.0000 
     27 N27         3.9701   54.2879   25.5914 N.am      1 UNK         0.0000 
     28 C28         3.2534   53.6969   26.6427 C.ar      1 UNK         0.0000 
     29 C29         1.9201   53.3858   26.3596 C.ar      1 UNK         0.0000 
     30 C30         1.1153   52.7617   27.3101 C.ar      1 UNK         0.0000 
     31 C31         1.6379   52.4451   28.5612 C.ar      1 UNK         0.0000 
     32 C32         2.9668   52.7580   28.8645 C.ar      1 UNK         0.0000 
     33 C33         3.7788   53.3859   27.9091 C.ar      1 UNK         0.0000 
     34 C34         3.4953   52.3960   30.1689 C.1       1 UNK         0.0000 
     35 N35         3.9044   52.0970   31.2085 N.1       1 UNK         0.0000 
     36 H36         0.7389   50.7157   21.4021 H         1 UNK         0.0000 
     37 H37         2.0360   49.5659   21.7848 H         1 UNK         0.0000 
     38 H38         1.3455   50.5527   23.0574 H         1 UNK         0.0000 
     39 H39         3.8613   50.4303   20.4255 H         1 UNK         0.0000 
     40 H40         5.5441   52.1494   20.0556 H         1 UNK         0.0000 
     41 H41         3.3030   54.8734   22.5332 H         1 UNK         0.0000 
     42 H42         1.6491   53.1074   22.9542 H         1 UNK         0.0000 
     43 H43         6.4377   53.0608   18.3504 H         1 UNK         0.0000 
     44 H44         5.6894   53.2834   16.8120 H         1 UNK         0.0000 
     45 H45         6.5861   55.0638   15.2252 H         1 UNK         0.0000 
     46 H46         8.6566   56.1313   14.3985 H         1 UNK         0.0000 
     47 H47        10.6746   56.1763   15.8245 H         1 UNK         0.0000 
     48 H48        10.6379   55.1633   18.0801 H         1 UNK         0.0000 
     49 H49         8.5774   54.0965   18.9099 H         1 UNK         0.0000 
     50 H50         8.2930   53.2967   22.8880 H         1 UNK         0.0000 
     51 H51         7.5113   52.9654   24.4081 H         1 UNK         0.0000 
     52 H52         6.6751   52.5942   22.8817 H         1 UNK         0.0000 
     53 H53         4.8047   55.4576   23.7548 H         1 UNK         0.0000 
     54 H54         3.4051   54.4876   24.7823 H         1 UNK         0.0000 
     55 H55         1.4966   53.6115   25.3903 H         1 UNK         0.0000 
     56 H56         0.0895   52.5136   27.0764 H         1 UNK         0.0000 
     57 H57         0.9986   51.9563   29.2842 H         1 UNK         0.0000 
     58 H58         4.8076   53.6137   28.1501 H         1 UNK         0.0000 
@<TRIPOS>BOND
     1    1    2 1    
     2    1   36 1    
     3    1   37 1    
     4    1   38 1    
     5    2    7 ar   
     6    2    3 ar   
     7    3    4 ar   
     8    3   39 1    
     9    4    5 ar   
    10    4   40 1    
    11    5    6 ar   
    12    5    8 1    
    13    6    7 ar   
    14    6   41 1    
    15    7   42 1    
    16    8   12 ar   
    17    8    9 ar   
    18    9   10 ar   
    19    9   21 1    
    20   10   11 ar   
    21   11   12 ar   
    22   12   13 1    
    23   13   14 1    
    24   14   15 1    
    25   14   43 1    
    26   14   44 1    
    27   15   20 ar   
    28   15   16 ar   
    29   16   17 ar   
    30   16   45 1    
    31   17   18 ar   
    32   17   46 1    
    33   18   19 ar   
    34   18   47 1    
    35   19   20 ar   
    36   19   48 1    
    37   20   49 1    
    38   21   22 1    
    39   21   23 1    
    40   21   24 1    
    41   23   50 1    
    42   23   51 1    
    43   23   52 1    
    44   24   25 am   BACKBONE|DICT|INTERRES
    45   24   53 1    
    46   25   26 2    
    47   25   27 am   BACKBONE|DICT|INTERRES
    48   27   28 1    
    49   27   54 1    
    50   28   33 ar   
    51   28   29 ar   
    52   29   30 ar   
    53   29   55 1    
    54   30   31 ar   
    55   30   56 1    
    56   31   32 ar   
    57   31   57 1    
    58   32   33 ar   
    59   32   34 1    
    60   33   58 1    
    61   34   35 3    
@<TRIPOS>SUBSTRUCTURE
     1 UNK         1 GROUP             0       ****    0 ROOT    
