ZINC40532897_1641
                    3D
 Schrodinger Suite 2024-2.
 36 37  0  0  1  0            999 V2000
    0.8409   52.5955   24.3082 C   0  0  0  0  0  0
    1.3116   52.6958   25.7546 C   0  0  0  0  0  0
    2.3035   53.6356   26.0515 C   0  0  0  0  0  0
    2.8464   53.7178   27.3312 C   0  0  0  0  0  0
    2.4308   52.8428   28.3416 C   0  0  0  0  0  0
    1.4262   51.9078   28.0502 C   0  0  0  0  0  0
    0.8457   51.8401   26.7786 C   0  0  0  0  0  0
   -0.1160   50.8332   26.5949 N   0  0  0  0  0  0
   -1.3511   50.9773   26.0818 C   0  0  0  0  0  0
   -1.8309   52.0287   25.6521 O   0  0  0  0  0  0
   -2.0018   49.8030   26.0816 N   0  0  0  0  0  0
   -3.2266   49.4824   25.3411 C   0  0  2  0  0  0
   -3.7022   50.4314   25.0770 H   0  0  0  0  0  0
   -4.2031   48.6530   26.2021 C   0  0  0  0  0  0
   -3.6674   47.2121   26.3027 C   0  0  0  0  0  0
   -2.8286   46.8962   24.6530 S   0  0  0  0  0  0
   -1.4361   46.5046   24.8808 O   0  0  0  0  0  0
   -3.6888   46.0576   23.8148 O   0  0  0  0  0  0
   -2.9304   48.6785   24.0638 C   0  0  0  0  0  0
    3.0596   52.8973   29.6974 C   0  0  0  0  0  0
    3.5045   54.0048   30.0818 O   0  0  0  0  0  0
    3.1038   51.8381   30.3684 O   0  5  0  0  0  0
    1.5977   52.9710   23.6146 H   0  0  0  0  0  0
    0.6591   51.5564   24.0257 H   0  0  0  0  0  0
   -0.0768   53.1671   24.1629 H   0  0  0  0  0  0
    2.6730   54.2998   25.2814 H   0  0  0  0  0  0
    3.6198   54.4466   27.5257 H   0  0  0  0  0  0
    1.0928   51.2281   28.8237 H   0  0  0  0  0  0
    0.0828   49.9476   27.0365 H   0  0  0  0  0  0
   -1.6971   49.1072   26.7577 H   0  0  0  0  0  0
   -4.3348   49.0951   27.1903 H   0  0  0  0  0  0
   -5.1924   48.6596   25.7401 H   0  0  0  0  0  0
   -2.8952   47.1810   27.0702 H   0  0  0  0  0  0
   -4.3858   46.4261   26.5294 H   0  0  0  0  0  0
   -3.8129   48.7227   23.4248 H   0  0  0  0  0  0
   -2.0480   48.9369   23.4803 H   0  0  0  0  0  0
  1  2  1  0  0  0
  1 23  1  0  0  0
  1 24  1  0  0  0
  1 25  1  0  0  0
  2  7  2  0  0  0
  2  3  1  0  0  0
  3  4  2  0  0  0
  3 26  1  0  0  0
  4  5  1  0  0  0
  4 27  1  0  0  0
  5  6  2  0  0  0
  5 20  1  0  0  0
  6  7  1  0  0  0
  6 28  1  0  0  0
  7  8  1  0  0  0
  8  9  1  0  0  0
  8 29  1  0  0  0
  9 10  2  0  0  0
  9 11  1  0  0  0
 11 12  1  0  0  0
 11 30  1  0  0  0
 12 13  1  0  0  0
 12 19  1  0  0  0
 12 14  1  0  0  0
 14 15  1  0  0  0
 14 31  1  0  0  0
 14 32  1  0  0  0
 15 16  1  0  0  0
 15 33  1  0  0  0
 15 34  1  0  0  0
 16 17  2  0  0  0
 16 18  2  0  0  0
 16 19  1  0  0  0
 19 35  1  0  0  0
 19 36  1  0  0  0
 20 21  2  0  0  0
 20 22  1  0  0  0
M  CHG  1  22  -1
M  END
> <i_i_glide_confnum>
18

> <i_i_glide_lignum>
1642

> <i_i_glide_posenum>
306

> <i_i_glide_rotatable_bonds>
5

> <i_m_Source_File_Index>
1459

> <b_m_subgroup_collapsed>
0

> <r_i_docking_score>
-5.94695

> <r_i_glide_ecoul>
-12.8836

> <r_i_glide_eff_state_penalty>
0

> <r_i_glide_einternal>
6.49715

> <r_i_glide_emodel>
-48.5418

> <r_i_glide_energy>
-34.7016

> <r_i_glide_erotb>
0.573938

> <r_i_glide_esite>
-0.398236

> <r_i_glide_evdw>
-21.818

> <r_i_glide_gscore>
-5.94695

> <r_i_glide_hbond>
-0.48

> <r_i_glide_ligand_efficiency>
-0.283188

> <r_i_glide_ligand_efficiency_ln>
-1.47037

> <r_i_glide_ligand_efficiency_sa>
-0.781294

> <r_i_glide_lipo>
-1.07672

> <r_i_glide_metal>
0

> <r_i_glide_rewards>
-1.5425

> <s_i_glide_gridfile>
wee1_glide-grid

> <s_m_Source_File>
wee1_decoys_glide_SP.sdf

> <s_m_Source_Path>
/Users/zhangxujun/Desktop

> <s_m_entry_id>
1734

> <s_m_entry_name>
wee1_decoys_glide_SP.1459

> <s_m_subgroup_title>
wee1_decoys_glide_SP

> <s_m_subgroupid>
wee1_decoys_glide_SP


$$$$
