@<TRIPOS>MOLECULE
ZINC13391450_1940
53   56    1
SMALL
USER_CHARGES


@<TRIPOS>ATOM
      1 C1          6.7372   54.9314   26.1755 C.3       1 UNK         0.0000 
      2 C2          5.3573   54.3662   26.4927 C.ar      1 UNK         0.0000 
      3 C3          5.0799   53.9870   27.8124 C.ar      1 UNK         0.0000 
      4 C4          3.8490   53.4145   28.1561 C.ar      1 UNK         0.0000 
      5 C5          2.8634   53.2964   27.1727 C.ar      1 UNK         0.0000 
      6 C6          3.1173   53.6970   25.8622 C.ar      1 UNK         0.0000 
      7 C7          4.3815   54.1888   25.4919 C.ar      1 UNK         0.0000 
      8 N8          4.7340   54.4958   24.1555 N.am      1 UNK         0.0000 
      9 C9          4.1683   54.0703   22.9993 C.2       1 UNK         0.0000 
     10 O10         3.1263   53.4145   22.9449 O.2       1 UNK         0.0000 
     11 C11         4.8952   54.4134   21.7103 C.ar      1 UNK         0.0000 
     12 C12         6.1632   55.0233   21.6907 C.ar      1 UNK         0.0000 
     13 C13         6.8043   55.2969   20.4808 C.ar      1 UNK         0.0000 
     14 C14         6.2070   54.9413   19.2725 C.ar      1 UNK         0.0000 
     15 C15         4.9561   54.3224   19.2697 C.ar      1 UNK         0.0000 
     16 C16         4.3032   54.0826   20.4802 C.ar      1 UNK         0.0000 
     17 S17         4.1761   53.7991   17.7390 S.o2      1 UNK         0.0000 
     18 O18         5.1968   53.7921   16.6840 O.2       1 UNK         0.0000 
     19 O19         3.3968   52.5983   18.0622 O.2       1 UNK         0.0000 
     20 N20         2.9841   55.0520   17.2938 N.pl3     1 UNK         0.0000 
     21 C21         3.2895   56.3264   16.7887 C.ar      1 UNK         0.0000 
     22 C22         4.4903   57.0398   16.8301 C.ar      1 UNK         0.0000 
     23 C23         4.5555   58.3196   16.2757 C.ar      1 UNK         0.0000 
     24 C24         3.4211   58.8911   15.6967 C.ar      1 UNK         0.0000 
     25 C25         2.2132   58.1954   15.6853 C.ar      1 UNK         0.0000 
     26 C26         2.1609   56.9067   16.2155 C.ar      1 UNK         0.0000 
     27 C27         0.9915   55.9988   16.4450 C.3       1 UNK         0.0000 
     28 C28         1.6670   54.6633   16.7761 C.3       1 UNK         0.0000 
     29 H29         1.1123   54.1283   17.5492 H         1 UNK         0.0000 
     30 C30         1.7700   53.7612   15.5246 C.3       1 UNK         0.0000 
     31 C31         3.5967   52.9279   29.5437 C.2       1 UNK         0.0000 
     32 O32         3.1006   51.7864   29.6851 O.co2     1 UNK         0.0000 
     33 H33         7.2040   54.3583   25.3741 H         1 UNK         0.0000 
     34 H34         6.6566   55.9660   25.8400 H         1 UNK         0.0000 
     35 H35         7.4023   54.8948   27.0393 H         1 UNK         0.0000 
     36 H36         5.8398   54.1068   28.5737 H         1 UNK         0.0000 
     37 H37         1.8989   52.8736   27.4171 H         1 UNK         0.0000 
     38 H38         2.3185   53.5788   25.1484 H         1 UNK         0.0000 
     39 H39         5.5919   55.0139   24.0678 H         1 UNK         0.0000 
     40 H40         6.6769   55.2892   22.6033 H         1 UNK         0.0000 
     41 H41         7.7820   55.7569   20.4801 H         1 UNK         0.0000 
     42 H42         6.7312   55.1205   18.3448 H         1 UNK         0.0000 
     43 H43         3.3302   53.6079   20.4553 H         1 UNK         0.0000 
     44 H44         5.3766   56.6197   17.2747 H         1 UNK         0.0000 
     45 H45         5.4785   58.8805   16.3062 H         1 UNK         0.0000 
     46 H46         3.4745   59.8893   15.2860 H         1 UNK         0.0000 
     47 H47         1.3310   58.6676   15.2794 H         1 UNK         0.0000 
     48 H48         0.3073   55.9348   15.5982 H         1 UNK         0.0000 
     49 H49         0.4070   56.3531   17.2948 H         1 UNK         0.0000 
     50 H50         0.7832   53.5504   15.1108 H         1 UNK         0.0000 
     51 H51         2.3674   54.2283   14.7396 H         1 UNK         0.0000 
     52 H52         2.2291   52.7991   15.7544 H         1 UNK         0.0000 
     53 O53         3.9029   53.6968   30.4814 O.co2     1 UNK         0.0000 
@<TRIPOS>BOND
     1    1    2 1    
     2    1   33 1    
     3    1   34 1    
     4    1   35 1    
     5    2    7 ar   
     6    2    3 ar   
     7    3    4 ar   
     8    3   36 1    
     9    4    5 ar   
    10    4   31 1    
    11    5    6 ar   
    12    5   37 1    
    13    6    7 ar   
    14    6   38 1    
    15    7    8 1    
    16    8    9 am   BACKBONE|DICT|INTERRES
    17    8   39 1    
    18    9   10 2    
    19    9   11 1    
    20   11   16 ar   
    21   11   12 ar   
    22   12   13 ar   
    23   12   40 1    
    24   13   14 ar   
    25   13   41 1    
    26   14   15 ar   
    27   14   42 1    
    28   15   16 ar   
    29   15   17 1    
    30   16   43 1    
    31   17   18 2    
    32   17   19 2    
    33   17   20 1    
    34   20   28 1    
    35   20   21 1    
    36   21   26 ar   
    37   21   22 ar   
    38   22   23 ar   
    39   22   44 1    
    40   23   24 ar   
    41   23   45 1    
    42   24   25 ar   
    43   24   46 1    
    44   25   26 ar   
    45   25   47 1    
    46   26   27 1    
    47   27   28 1    
    48   27   48 1    
    49   27   49 1    
    50   28   29 1    
    51   28   30 1    
    52   30   50 1    
    53   30   51 1    
    54   30   52 1    
    55   31   32 2    
    56   31   53 1    
@<TRIPOS>SUBSTRUCTURE
     1 UNK         1 GROUP             0       ****    0 ROOT    
