@<TRIPOS>MOLECULE
ZINC02857383_2997
51   53    1
SMALL
USER_CHARGES


@<TRIPOS>ATOM
      1 C1          5.1872   56.8031   17.3702 C.3       1 UNK         0.0000 
      2 C2          5.1708   55.7765   18.4830 C.ar      1 UNK         0.0000 
      3 C3          4.3366   54.6997   18.7484 C.ar      1 UNK         0.0000 
      4 C4          4.8355   54.1055   19.9347 C.ar      1 UNK         0.0000 
      5 N5          5.9032   54.7476   20.3570 N.2       1 UNK         0.0000 
      6 N6          6.0983   55.7489   19.4944 N.pl3     1 UNK         0.0000 
      7 C7          7.2470   56.6201   19.6779 C.3       1 UNK         0.0000 
      8 C8          4.3372   52.9218   20.5876 C.2       1 UNK         0.0000 
      9 O9          5.1038   52.1050   21.1104 O.2       1 UNK         0.0000 
     10 N10         2.9908   52.8535   20.6318 N.am      1 UNK         0.0000 
     11 N11         2.3936   51.7051   21.1573 N.pl3     1 UNK         0.0000 
     12 C12         1.9333   51.6144   22.4396 C.2       1 UNK         0.0000 
     13 S13         1.3514   50.1158   22.8817 S.2       1 UNK         0.0000 
     14 N14         2.0502   52.7480   23.2120 N.pl3     1 UNK         0.0000 
     15 C15         1.9091   52.9038   24.5935 C.2       1 UNK         0.0000 
     16 C16         2.8054   53.6103   25.4332 C.2       1 UNK         0.0000 
     17 C17         2.3235   53.5938   26.7834 C.2       1 UNK         0.0000 
     18 C18         1.1098   52.8951   26.9267 C.2       1 UNK         0.0000 
     19 S19         0.5001   52.3179   25.4234 S.3       1 UNK         0.0000 
     20 C20         0.3266   52.7269   28.2248 C.3       1 UNK         0.0000 
     21 C21         1.2595   53.0202   29.4200 C.3       1 UNK         0.0000 
     22 H22         1.9824   52.2072   29.5108 H         1 UNK         0.0000 
     23 C23         1.9748   54.3627   29.1816 C.3       1 UNK         0.0000 
     24 C24         2.9681   54.2821   28.0030 C.3       1 UNK         0.0000 
     25 C25         0.4505   53.0401   30.7308 C.3       1 UNK         0.0000 
     26 C26         4.0576   54.2338   24.9349 C.2       1 UNK         0.0000 
     27 O27         4.3540   54.2970   23.7392 O.2       1 UNK         0.0000 
     28 O28         4.8430   54.7101   25.9230 O.3       1 UNK         0.0000 
     29 C29         6.1027   55.3010   25.6322 C.3       1 UNK         0.0000 
     30 Br30        2.8499   54.1599   17.6816 Br        1 UNK         0.0000 
     31 H31         4.3743   56.6468   16.6604 H         1 UNK         0.0000 
     32 H32         5.0855   57.8197   17.7513 H         1 UNK         0.0000 
     33 H33         6.1167   56.7642   16.8007 H         1 UNK         0.0000 
     34 H34         6.9374   57.6562   19.5375 H         1 UNK         0.0000 
     35 H35         8.0073   56.3657   18.9388 H         1 UNK         0.0000 
     36 H36         7.6652   56.4967   20.6794 H         1 UNK         0.0000 
     37 H37         2.3617   53.4540   20.1148 H         1 UNK         0.0000 
     38 H38         2.0183   51.1102   20.4329 H         1 UNK         0.0000 
     39 H39         2.5945   53.4881   22.7911 H         1 UNK         0.0000 
     40 H40        -0.5033   53.4316   28.2277 H         1 UNK         0.0000 
     41 H41        -0.0976   51.7247   28.3044 H         1 UNK         0.0000 
     42 H42         1.2449   55.1641   29.0486 H         1 UNK         0.0000 
     43 H43         2.5232   54.6503   30.0791 H         1 UNK         0.0000 
     44 H44         3.8615   53.7347   28.3053 H         1 UNK         0.0000 
     45 H45         3.2882   55.2962   27.7649 H         1 UNK         0.0000 
     46 H46        -0.2910   53.8397   30.7340 H         1 UNK         0.0000 
     47 H47        -0.0813   52.1003   30.8884 H         1 UNK         0.0000 
     48 H48         1.0969   53.1892   31.5955 H         1 UNK         0.0000 
     49 H49         6.5821   55.6264   26.5558 H         1 UNK         0.0000 
     50 H50         6.7622   54.5879   25.1365 H         1 UNK         0.0000 
     51 H51         5.9883   56.1696   24.9825 H         1 UNK         0.0000 
@<TRIPOS>BOND
     1    1    2 1    
     2    1   31 1    
     3    1   32 1    
     4    1   33 1    
     5    2    6 ar   
     6    2    3 ar   
     7    3    4 ar   
     8    3   30 1    
     9    4    5 ar   
    10    4    8 1    
    11    5    6 ar   
    12    6    7 1    
    13    7   34 1    
    14    7   35 1    
    15    7   36 1    
    16    8    9 2    
    17    8   10 am   BACKBONE|DICT|INTERRES
    18   10   11 1    
    19   10   37 1    
    20   11   12 1    
    21   11   38 1    
    22   12   13 2    
    23   12   14 1    
    24   14   15 1    
    25   14   39 1    
    26   15   19 1    
    27   15   16 2    
    28   16   17 1    
    29   16   26 1    
    30   17   24 1    
    31   17   18 2    
    32   18   19 1    
    33   18   20 1    
    34   20   21 1    
    35   20   40 1    
    36   20   41 1    
    37   21   22 1    
    38   21   23 1    
    39   21   25 1    
    40   23   24 1    
    41   23   42 1    
    42   23   43 1    
    43   24   44 1    
    44   24   45 1    
    45   25   46 1    
    46   25   47 1    
    47   25   48 1    
    48   26   27 2    
    49   26   28 1    
    50   28   29 1    
    51   29   49 1    
    52   29   50 1    
    53   29   51 1    
@<TRIPOS>SUBSTRUCTURE
     1 UNK         1 GROUP             0       ****    0 ROOT    
