@<TRIPOS>MOLECULE
ZINC10186304_4265
41   43    1
SMALL
USER_CHARGES


@<TRIPOS>ATOM
      1 C1         10.7221   49.3936   14.2061 C.ar      1 UNK         0.0000 
      2 C2         11.9051   48.8966   14.7508 C.ar      1 UNK         0.0000 
      3 C3         12.3343   49.3139   16.0164 C.ar      1 UNK         0.0000 
      4 C4         11.5756   50.2653   16.7095 C.ar      1 UNK         0.0000 
      5 C5         10.4170   50.8094   16.1462 C.ar      1 UNK         0.0000 
      6 C6          9.9769   50.3439   14.8984 C.ar      1 UNK         0.0000 
      7 N7          9.7559   51.8083   16.8813 N.am      1 UNK         0.0000 
      8 C8          9.0399   52.8442   16.3905 C.2       1 UNK         0.0000 
      9 O9          8.8432   53.0487   15.1922 O.2       1 UNK         0.0000 
     10 C10         8.4905   53.8490   17.4039 C.3       1 UNK         0.0000 
     11 S11         6.6715   53.9572   17.3545 S.3       1 UNK         0.0000 
     12 C12         6.4040   54.4989   19.0099 C.ar      1 UNK         0.0000 
     13 N13         7.1036   55.4359   19.6026 N.2       1 UNK         0.0000 
     14 N14         6.6723   55.5064   20.9195 N.2       1 UNK         0.0000 
     15 C15         5.7264   54.6085   21.0779 C.ar      1 UNK         0.0000 
     16 N16         5.5044   53.9367   19.8886 N.pl3     1 UNK         0.0000 
     17 N17         4.6259   52.8945   19.6270 N.3       1 UNK         0.0000 
     18 C18         5.0420   54.3737   22.3875 C.ar      1 UNK         0.0000 
     19 C19         5.7765   54.4965   23.5744 C.ar      1 UNK         0.0000 
     20 C20         5.1447   54.3604   24.8075 C.ar      1 UNK         0.0000 
     21 C21         3.7776   54.0971   24.8567 C.ar      1 UNK         0.0000 
     22 C22         3.0399   53.9608   23.6823 C.ar      1 UNK         0.0000 
     23 C23         3.6724   54.0965   22.4488 C.ar      1 UNK         0.0000 
     24 Cl24        2.9933   53.9363   26.3852 Cl        1 UNK         0.0000 
     25 C25        13.6148   48.7514   16.6333 C.3       1 UNK         0.0000 
     26 F26        13.9074   47.5444   16.1460 F         1 UNK         0.0000 
     27 F27        13.5059   48.6455   17.9595 F         1 UNK         0.0000 
     28 F28        14.6261   49.5746   16.3584 F         1 UNK         0.0000 
     29 H29        10.3902   49.0531   13.2366 H         1 UNK         0.0000 
     30 H30        12.4774   48.1754   14.1824 H         1 UNK         0.0000 
     31 H31        11.9084   50.6049   17.6806 H         1 UNK         0.0000 
     32 H32         9.0682   50.7156   14.4497 H         1 UNK         0.0000 
     33 H33         9.9445   51.7910   17.8763 H         1 UNK         0.0000 
     34 H34         8.8312   53.6046   18.4104 H         1 UNK         0.0000 
     35 H35         8.8995   54.8317   17.1699 H         1 UNK         0.0000 
     36 H36         3.8832   53.1734   19.0027 H         1 UNK         0.0000 
     37 H37         5.1023   52.0601   19.2897 H         1 UNK         0.0000 
     38 H38         6.8355   54.7128   23.5419 H         1 UNK         0.0000 
     39 H39         5.7121   54.4590   25.7211 H         1 UNK         0.0000 
     40 H40         1.9796   53.7598   23.7258 H         1 UNK         0.0000 
     41 H41         3.0877   54.0206   21.5436 H         1 UNK         0.0000 
@<TRIPOS>BOND
     1    1    6 ar   
     2    1    2 ar   
     3    1   29 1    
     4    2    3 ar   
     5    2   30 1    
     6    3    4 ar   
     7    3   25 1    
     8    4    5 ar   
     9    4   31 1    
    10    5    6 ar   
    11    5    7 1    
    12    6   32 1    
    13    7    8 am   BACKBONE|DICT|INTERRES
    14    7   33 1    
    15    8    9 2    
    16    8   10 1    
    17   10   11 1    
    18   10   34 1    
    19   10   35 1    
    20   11   12 1    
    21   12   16 ar   
    22   12   13 ar   
    23   13   14 ar   
    24   14   15 ar   
    25   15   16 ar   
    26   15   18 1    
    27   16   17 1    
    28   17   36 1    
    29   17   37 1    
    30   18   23 ar   
    31   18   19 ar   
    32   19   20 ar   
    33   19   38 1    
    34   20   21 ar   
    35   20   39 1    
    36   21   22 ar   
    37   21   24 1    
    38   22   23 ar   
    39   22   40 1    
    40   23   41 1    
    41   25   26 1    
    42   25   27 1    
    43   25   28 1    
@<TRIPOS>SUBSTRUCTURE
     1 UNK         1 GROUP             0       ****    0 ROOT    
