@<TRIPOS>MOLECULE
ZINC36312029_1136
71   74    1
SMALL
USER_CHARGES


@<TRIPOS>ATOM
      1 C1          1.8892   54.3528   30.0782 C.3       1 UNK         0.0000 
      2 C2          2.7496   53.1889   29.5163 C.3       1 UNK         0.0000 
      3 C3          3.6251   52.6623   30.6811 C.3       1 UNK         0.0000 
      4 C4          1.8061   52.0426   29.0814 C.3       1 UNK         0.0000 
      5 C5          3.5776   53.6509   28.2870 C.ar      1 UNK         0.0000 
      6 C6          4.9357   53.3349   28.1193 C.ar      1 UNK         0.0000 
      7 C7          5.6021   53.6530   26.9338 C.ar      1 UNK         0.0000 
      8 C8          4.9261   54.2737   25.8758 C.ar      1 UNK         0.0000 
      9 C9          3.6185   54.7037   26.1008 C.ar      1 UNK         0.0000 
     10 C10         2.9450   54.3740   27.2710 C.ar      1 UNK         0.0000 
     11 C11         5.6292   54.4963   24.5449 C.2       1 UNK         0.0000 
     12 O12         6.8198   54.8118   24.5922 O.2       1 UNK         0.0000 
     13 N13         4.9691   54.3221   23.3486 N.am      1 UNK         0.0000 
     14 C14         5.6656   54.6806   22.0892 C.3       1 UNK         0.0000 
     15 C15         5.4120   53.5768   21.0516 C.3       1 UNK         0.0000 
     16 N16         3.9047   53.5152   20.7254 N.4       1 UNK         0.0000 
     17 C17         3.2116   53.0551   22.0343 C.3       1 UNK         0.0000 
     18 C18         3.5289   53.9741   23.2395 C.3       1 UNK         0.0000 
     19 C19         3.6617   52.6505   19.4277 C.3       1 UNK         0.0000 
     20 H20         4.5824   52.0885   19.2814 H         1 UNK         0.0000 
     21 C21         3.4500   53.6097   18.2139 C.3       1 UNK         0.0000 
     22 C22         4.5573   54.6434   17.9456 C.3       1 UNK         0.0000 
     23 C23         4.3423   55.1226   16.5070 C.3       1 UNK         0.0000 
     24 C24         3.6419   53.9670   15.7788 C.3       1 UNK         0.0000 
     25 C25         3.3434   52.9049   16.8457 C.3       1 UNK         0.0000 
     26 C26         2.4622   51.6657   19.5489 C.2       1 UNK         0.0000 
     27 O27         1.3438   52.0971   19.8409 O.2       1 UNK         0.0000 
     28 N28         2.7044   50.3641   19.2817 N.am      1 UNK         0.0000 
     29 C29         1.7490   49.3338   19.3551 C.ar      1 UNK         0.0000 
     30 C30         1.6631   48.4482   18.2768 C.ar      1 UNK         0.0000 
     31 C31         0.7381   47.4047   18.2923 C.ar      1 UNK         0.0000 
     32 C32        -0.1040   47.2349   19.3890 C.ar      1 UNK         0.0000 
     33 C33        -0.0102   48.0968   20.4795 C.ar      1 UNK         0.0000 
     34 C34         0.9290   49.1284   20.4816 C.ar      1 UNK         0.0000 
     35 F35         1.0409   49.9018   21.5878 F         1 UNK         0.0000 
     36 F36        -1.0000   46.2228   19.4043 F         1 UNK         0.0000 
     37 H37         1.3541   54.0562   30.9814 H         1 UNK         0.0000 
     38 H38         1.1194   54.6806   29.3798 H         1 UNK         0.0000 
     39 H39         2.4973   55.2263   30.3183 H         1 UNK         0.0000 
     40 H40         4.2175   51.7929   30.3932 H         1 UNK         0.0000 
     41 H41         4.3044   53.4332   31.0393 H         1 UNK         0.0000 
     42 H42         3.0173   52.3523   31.5333 H         1 UNK         0.0000 
     43 H43         2.3624   51.1807   28.7110 H         1 UNK         0.0000 
     44 H44         1.1834   51.6968   29.9080 H         1 UNK         0.0000 
     45 H45         1.1295   52.3547   28.2848 H         1 UNK         0.0000 
     46 H46         5.4872   52.8000   28.8759 H         1 UNK         0.0000 
     47 H47         6.6330   53.3455   26.8211 H         1 UNK         0.0000 
     48 H48         3.1044   55.2810   25.3515 H         1 UNK         0.0000 
     49 H49         1.9093   54.6617   27.3596 H         1 UNK         0.0000 
     50 H50         5.2848   55.6190   21.6818 H         1 UNK         0.0000 
     51 H51         6.7449   54.7914   22.2178 H         1 UNK         0.0000 
     52 H52         5.7261   52.5837   21.3826 H         1 UNK         0.0000 
     53 H53         5.9313   53.8360   20.1312 H         1 UNK         0.0000 
     54 H54         3.4521   52.0059   22.2147 H         1 UNK         0.0000 
     55 H55         2.1409   53.1511   21.8549 H         1 UNK         0.0000 
     56 H56         3.2170   53.3725   24.0935 H         1 UNK         0.0000 
     57 H57         2.9188   54.8744   23.1509 H         1 UNK         0.0000 
     58 H58         2.5265   54.1778   18.3444 H         1 UNK         0.0000 
     59 H59         4.5930   55.4446   18.6843 H         1 UNK         0.0000 
     60 H60         5.5281   54.1460   17.9775 H         1 UNK         0.0000 
     61 H61         3.7051   56.0083   16.5012 H         1 UNK         0.0000 
     62 H62         5.2825   55.4002   16.0274 H         1 UNK         0.0000 
     63 H63         2.7155   54.3162   15.3204 H         1 UNK         0.0000 
     64 H64         4.2621   53.5591   14.9787 H         1 UNK         0.0000 
     65 H65         4.1242   52.1434   16.7787 H         1 UNK         0.0000 
     66 H66         2.3990   52.3790   16.7018 H         1 UNK         0.0000 
     67 H67         3.5798   50.1434   18.8073 H         1 UNK         0.0000 
     68 H68         2.3044   48.5696   17.4150 H         1 UNK         0.0000 
     69 H69         0.6721   46.7311   17.4509 H         1 UNK         0.0000 
     70 H70        -0.6494   47.9509   21.3369 H         1 UNK         0.0000 
     71 H71         3.5835   54.4464   20.4915 H         1 UNK         0.0000 
@<TRIPOS>BOND
     1    1    2 1    
     2    1   37 1    
     3    1   38 1    
     4    1   39 1    
     5    2    3 1    
     6    2    4 1    
     7    2    5 1    
     8    3   40 1    
     9    3   41 1    
    10    3   42 1    
    11    4   43 1    
    12    4   44 1    
    13    4   45 1    
    14    5   10 ar   
    15    5    6 ar   
    16    6    7 ar   
    17    6   46 1    
    18    7    8 ar   
    19    7   47 1    
    20    8    9 ar   
    21    8   11 1    
    22    9   10 ar   
    23    9   48 1    
    24   10   49 1    
    25   11   12 2    
    26   11   13 am   BACKBONE|DICT|INTERRES
    27   13   18 1    
    28   13   14 1    
    29   14   15 1    
    30   14   50 1    
    31   14   51 1    
    32   15   16 1    
    33   15   52 1    
    34   15   53 1    
    35   16   17 1    
    36   16   19 1    
    37   16   71 1    
    38   17   18 1    
    39   17   54 1    
    40   17   55 1    
    41   18   56 1    
    42   18   57 1    
    43   19   20 1    
    44   19   21 1    
    45   19   26 1    
    46   21   25 1    
    47   21   22 1    
    48   21   58 1    
    49   22   23 1    
    50   22   59 1    
    51   22   60 1    
    52   23   24 1    
    53   23   61 1    
    54   23   62 1    
    55   24   25 1    
    56   24   63 1    
    57   24   64 1    
    58   25   65 1    
    59   25   66 1    
    60   26   27 2    
    61   26   28 am   BACKBONE|DICT|INTERRES
    62   28   29 1    
    63   28   67 1    
    64   29   34 ar   
    65   29   30 ar   
    66   30   31 ar   
    67   30   68 1    
    68   31   32 ar   
    69   31   69 1    
    70   32   33 ar   
    71   32   36 1    
    72   33   34 ar   
    73   33   70 1    
    74   34   35 1    
@<TRIPOS>SUBSTRUCTURE
     1 UNK         1 GROUP             0       ****    0 ROOT    
