@<TRIPOS>MOLECULE
ZINC40826043_4197
58   61    1
SMALL
USER_CHARGES


@<TRIPOS>ATOM
      1 C1          4.5157   54.4994   29.3207 C.3       1 UNK         0.0000 
      2 C2          3.6049   54.0820   28.1850 C.ar      1 UNK         0.0000 
      3 C3          2.3346   53.5755   28.4522 C.ar      1 UNK         0.0000 
      4 C4          1.5043   53.1836   27.4059 C.ar      1 UNK         0.0000 
      5 C5          1.9279   53.2939   26.0705 C.ar      1 UNK         0.0000 
      6 C6          3.2059   53.8176   25.8026 C.ar      1 UNK         0.0000 
      7 C7          4.0344   54.2115   26.8660 C.ar      1 UNK         0.0000 
      8 N8          3.5870   53.8861   24.4479 N.am      1 UNK         0.0000 
      9 C9          4.7650   54.2293   23.8821 C.2       1 UNK         0.0000 
     10 O10         5.7637   54.6259   24.4833 O.2       1 UNK         0.0000 
     11 C11         4.7699   54.0963   22.4436 C.2       1 UNK         0.0000 
     12 C12         5.6795   54.5551   21.4747 C.2       1 UNK         0.0000 
     13 C13         5.1669   54.0762   20.2439 C.2       1 UNK         0.0000 
     14 C14         3.9909   53.3995   20.5289 C.2       1 UNK         0.0000 
     15 O15         3.7516   53.4078   21.8557 O.3       1 UNK         0.0000 
     16 C16         3.0323   52.7480   19.5590 C.3       1 UNK         0.0000 
     17 C17         3.2647   53.4401   18.2010 C.3       1 UNK         0.0000 
     18 C18         4.7572   53.5024   17.7898 C.3       1 UNK         0.0000 
     19 C19         5.6678   54.1746   18.8565 C.2       1 UNK         0.0000 
     20 N20         6.8063   54.7107   18.6568 N.2       1 UNK         0.0000 
     21 N21         7.3094   54.7033   17.4022 N.pl3     1 UNK         0.0000 
     22 S22         8.9883   55.1152   17.0743 S.o2      1 UNK         0.0000 
     23 O23         9.8307   54.3934   18.0348 O.2       1 UNK         0.0000 
     24 O24         9.1991   54.9566   15.6317 O.2       1 UNK         0.0000 
     25 C25         9.1735   56.8596   17.4234 C.ar      1 UNK         0.0000 
     26 C26        10.4004   57.3254   17.8979 C.ar      1 UNK         0.0000 
     27 C27        10.5825   58.6851   18.1266 C.ar      1 UNK         0.0000 
     28 C28         9.5388   59.5715   17.8764 C.ar      1 UNK         0.0000 
     29 C29         8.3084   59.1093   17.4131 C.ar      1 UNK         0.0000 
     30 C30         8.1233   57.7485   17.1809 C.ar      1 UNK         0.0000 
     31 F31         9.7282   60.8942   18.0813 F         1 UNK         0.0000 
     32 C32         6.8931   55.4482   21.6887 C.3       1 UNK         0.0000 
     33 O33         1.1488   52.9038   24.9916 O.3       1 UNK         0.0000 
     34 C34        -0.0945   52.2486   25.2229 C.3       1 UNK         0.0000 
     35 H35         3.9294   54.8914   30.1483 H         1 UNK         0.0000 
     36 H36         5.2037   55.2907   29.0178 H         1 UNK         0.0000 
     37 H37         5.0926   53.6445   29.6701 H         1 UNK         0.0000 
     38 H38         1.9886   53.4750   29.4703 H         1 UNK         0.0000 
     39 H39         0.5317   52.7888   27.6545 H         1 UNK         0.0000 
     40 H40         5.0208   54.6110   26.6988 H         1 UNK         0.0000 
     41 H41         2.8643   53.5810   23.8112 H         1 UNK         0.0000 
     42 H42         3.2153   51.6743   19.4902 H         1 UNK         0.0000 
     43 H43         1.9970   52.8915   19.8702 H         1 UNK         0.0000 
     44 H44         2.6968   52.9176   17.4302 H         1 UNK         0.0000 
     45 H45         2.8562   54.4523   18.2325 H         1 UNK         0.0000 
     46 H46         5.1299   52.4968   17.5932 H         1 UNK         0.0000 
     47 H47         4.8289   54.0426   16.8458 H         1 UNK         0.0000 
     48 H48         6.7640   54.2917   16.6410 H         1 UNK         0.0000 
     49 H49        11.2151   56.6361   18.0732 H         1 UNK         0.0000 
     50 H50        11.5325   59.0503   18.4862 H         1 UNK         0.0000 
     51 H51         7.5050   59.8069   17.2234 H         1 UNK         0.0000 
     52 H52         7.1730   57.3959   16.8067 H         1 UNK         0.0000 
     53 H53         7.8313   54.8958   21.6518 H         1 UNK         0.0000 
     54 H54         6.9594   56.2074   20.9099 H         1 UNK         0.0000 
     55 H55         6.8614   56.0010   22.6271 H         1 UNK         0.0000 
     56 H56        -0.5385   51.9720   24.2667 H         1 UNK         0.0000 
     57 H57         0.0371   51.3326   25.8009 H         1 UNK         0.0000 
     58 H58        -0.8043   52.8958   25.7384 H         1 UNK         0.0000 
@<TRIPOS>BOND
     1    1    2 1    
     2    1   35 1    
     3    1   36 1    
     4    1   37 1    
     5    2    7 ar   
     6    2    3 ar   
     7    3    4 ar   
     8    3   38 1    
     9    4    5 ar   
    10    4   39 1    
    11    5    6 ar   
    12    5   33 1    
    13    6    7 ar   
    14    6    8 1    
    15    7   40 1    
    16    8    9 am   BACKBONE|DICT|INTERRES
    17    8   41 1    
    18    9   10 2    
    19    9   11 1    
    20   11   15 1    
    21   11   12 2    
    22   12   13 1    
    23   12   32 1    
    24   13   19 1    
    25   13   14 2    
    26   14   15 1    
    27   14   16 1    
    28   16   17 1    
    29   16   42 1    
    30   16   43 1    
    31   17   18 1    
    32   17   44 1    
    33   17   45 1    
    34   18   19 1    
    35   18   46 1    
    36   18   47 1    
    37   19   20 2    
    38   20   21 1    
    39   21   22 1    
    40   21   48 1    
    41   22   23 2    
    42   22   24 2    
    43   22   25 1    
    44   25   30 ar   
    45   25   26 ar   
    46   26   27 ar   
    47   26   49 1    
    48   27   28 ar   
    49   27   50 1    
    50   28   29 ar   
    51   28   31 1    
    52   29   30 ar   
    53   29   51 1    
    54   30   52 1    
    55   32   53 1    
    56   32   54 1    
    57   32   55 1    
    58   33   34 1    
    59   34   56 1    
    60   34   57 1    
    61   34   58 1    
@<TRIPOS>SUBSTRUCTURE
     1 UNK         1 GROUP             0       ****    0 ROOT    
