@<TRIPOS>MOLECULE
ZINC09279777_58
52   55    1
SMALL
USER_CHARGES


@<TRIPOS>ATOM
      1 C1         -0.1548   48.1816   24.3000 C.3       1 UNK         0.0000 
      2 O2         -0.7498   49.4517   24.5012 O.3       1 UNK         0.0000 
      3 C3          0.1651   50.5301   24.3691 C.3       1 UNK         0.0000 
      4 C4         -0.4664   51.8121   24.9342 C.3       1 UNK         0.0000 
      5 N5         -0.6657   51.7691   26.3904 N.pl3     1 UNK         0.0000 
      6 C6         -1.8758   51.2989   26.9233 C.ar      1 UNK         0.0000 
      7 C7         -3.0143   50.8443   26.2429 C.ar      1 UNK         0.0000 
      8 C8         -4.1331   50.4138   26.9593 C.ar      1 UNK         0.0000 
      9 C9         -4.1151   50.4381   28.3568 C.ar      1 UNK         0.0000 
     10 C10        -2.9852   50.8967   29.0307 C.ar      1 UNK         0.0000 
     11 C11        -1.8777   51.3227   28.3078 C.ar      1 UNK         0.0000 
     12 S12        -0.3828   51.9650   28.9446 S.3       1 UNK         0.0000 
     13 C13         0.3413   52.1198   27.2881 C.2       1 UNK         0.0000 
     14 N14         1.5237   52.4965   26.9818 N.am      1 UNK         0.0000 
     15 C15         2.4305   52.8970   27.9441 C.2       1 UNK         0.0000 
     16 O16         2.8521   52.1705   28.8496 O.2       1 UNK         0.0000 
     17 C17         2.9732   54.3166   27.7305 C.3       1 UNK         0.0000 
     18 C18         4.2644   54.3470   26.9040 C.ar      1 UNK         0.0000 
     19 C19         5.4841   54.4656   27.5749 C.ar      1 UNK         0.0000 
     20 C20         6.6862   54.5172   26.8847 C.ar      1 UNK         0.0000 
     21 C21         6.7043   54.4528   25.4966 C.ar      1 UNK         0.0000 
     22 C22         5.5030   54.3152   24.7666 C.ar      1 UNK         0.0000 
     23 C23         4.2523   54.2774   25.4664 C.ar      1 UNK         0.0000 
     24 C24         3.0646   54.1763   24.6857 C.ar      1 UNK         0.0000 
     25 C25         3.1188   54.0899   23.2973 C.ar      1 UNK         0.0000 
     26 C26         4.3402   54.0967   22.6358 C.ar      1 UNK         0.0000 
     27 C27         5.5258   54.2119   23.3524 C.ar      1 UNK         0.0000 
     28 S28        -5.4898   49.8355   29.3140 S.o2      1 UNK         0.0000 
     29 O29        -5.6935   50.7860   30.4113 O.2       1 UNK         0.0000 
     30 O30        -6.5746   49.4982   28.3883 O.2       1 UNK         0.0000 
     31 N31        -4.8955   48.3494   29.9996 N.pl3     1 UNK         0.0000 
     32 H32        -0.9024   47.4003   24.4324 H         1 UNK         0.0000 
     33 H33         0.2519   48.0970   23.2913 H         1 UNK         0.0000 
     34 H34         0.6465   48.0011   25.0180 H         1 UNK         0.0000 
     35 H35         0.4012   50.6674   23.3137 H         1 UNK         0.0000 
     36 H36         1.1079   50.3325   24.8817 H         1 UNK         0.0000 
     37 H37        -1.3808   52.0496   24.3896 H         1 UNK         0.0000 
     38 H38         0.2004   52.6458   24.7036 H         1 UNK         0.0000 
     39 H39        -3.0437   50.7949   25.1653 H         1 UNK         0.0000 
     40 H40        -4.9976   50.0474   26.4270 H         1 UNK         0.0000 
     41 H41        -2.9621   50.8946   30.1119 H         1 UNK         0.0000 
     42 H42         2.2128   54.9589   27.2939 H         1 UNK         0.0000 
     43 H43         3.1701   54.7241   28.7211 H         1 UNK         0.0000 
     44 H44         5.5087   54.5170   28.6544 H         1 UNK         0.0000 
     45 H45         7.6064   54.6079   27.4414 H         1 UNK         0.0000 
     46 H46         7.6399   54.4960   24.9552 H         1 UNK         0.0000 
     47 H47         2.0981   54.1750   25.1607 H         1 UNK         0.0000 
     48 H48         2.2063   54.0166   22.7232 H         1 UNK         0.0000 
     49 H49         4.3635   54.0235   21.5591 H         1 UNK         0.0000 
     50 H50         6.4714   54.2275   22.8308 H         1 UNK         0.0000 
     51 H51        -4.6918   47.6629   29.2719 H         1 UNK         0.0000 
     52 H52        -4.0489   48.4964   30.5612 H         1 UNK         0.0000 
@<TRIPOS>BOND
     1    1    2 1    
     2    1   32 1    
     3    1   33 1    
     4    1   34 1    
     5    2    3 1    
     6    3    4 1    
     7    3   35 1    
     8    3   36 1    
     9    4    5 1    
    10    4   37 1    
    11    4   38 1    
    12    5   13 1    
    13    5    6 1    
    14    6   11 ar   
    15    6    7 ar   
    16    7    8 ar   
    17    7   39 1    
    18    8    9 ar   
    19    8   40 1    
    20    9   10 ar   
    21    9   28 1    
    22   10   11 ar   
    23   10   41 1    
    24   11   12 1    
    25   12   13 1    
    26   13   14 2    BACKBONE|DICT|INTERRES
    27   14   15 am   BACKBONE|DICT|INTERRES
    28   15   16 2    
    29   15   17 1    
    30   17   18 1    
    31   17   42 1    
    32   17   43 1    
    33   18   23 ar   
    34   18   19 ar   
    35   19   20 ar   
    36   19   44 1    
    37   20   21 ar   
    38   20   45 1    
    39   21   22 ar   
    40   21   46 1    
    41   22   27 ar   
    42   22   23 ar   
    43   23   24 ar   
    44   24   25 ar   
    45   24   47 1    
    46   25   26 ar   
    47   25   48 1    
    48   26   27 ar   
    49   26   49 1    
    50   27   50 1    
    51   28   29 2    
    52   28   30 2    
    53   28   31 1    
    54   31   51 1    
    55   31   52 1    
@<TRIPOS>SUBSTRUCTURE
     1 UNK         1 GROUP             0       ****    0 ROOT    
