ZINC11181570_2242
                    3D
 Schrodinger Suite 2024-2.
 58 61  0  0  1  0            999 V2000
   -1.6905   56.7592   15.7502 C   0  0  0  0  0  0
   -0.7985   57.7459   15.3372 C   0  0  0  0  0  0
    0.5428   57.6584   15.7021 C   0  0  0  0  0  0
    0.9995   56.5890   16.4821 C   0  0  0  0  0  0
    0.0899   55.5992   16.8817 C   0  0  0  0  0  0
   -1.2523   55.6839   16.5183 C   0  0  0  0  0  0
    2.4249   56.5684   16.8826 C   0  0  0  0  0  0
    3.0270   55.6527   17.6765 C   0  0  0  0  0  0
    4.4222   55.7516   18.0629 C   0  0  0  0  0  0
    5.0253   56.8227   17.9589 O   0  0  0  0  0  0
    5.0319   54.6344   18.5589 N   0  0  0  0  0  0
    4.3786   53.3420   18.8408 C   0  0  0  0  0  0
    3.9130   53.3691   20.3155 C   0  0  0  0  0  0
    5.0414   53.8112   21.2889 C   0  0  0  0  0  0
    5.9934   54.9306   20.7671 C   0  0  0  0  0  0
    6.3186   54.7629   19.2614 C   0  0  0  0  0  0
    4.5620   54.0960   22.7273 C   0  0  0  0  0  0
    3.3590   54.1411   22.9848 O   0  0  0  0  0  0
    5.5465   54.2049   23.6448 N   0  0  0  0  0  0
    5.4653   54.3279   25.0405 C   0  0  0  0  0  0
    6.6574   54.6326   25.6960 C   0  0  0  0  0  0
    6.7045   54.6756   27.0876 C   0  0  0  0  0  0
    5.5631   54.4087   27.8371 C   0  0  0  0  0  0
    4.3547   54.0973   27.1961 C   0  0  0  0  0  0
    4.3101   54.0816   25.7992 C   0  0  0  0  0  0
    3.1694   53.7316   27.8564 N   0  0  0  0  0  0
    2.9025   53.6994   29.1771 C   0  0  0  0  0  0
    3.6401   54.0975   30.0793 O   0  0  0  0  0  0
    1.6188   53.1379   29.4802 C   0  0  0  0  0  0
    0.8446   52.1653   28.8451 C   0  0  0  0  0  0
   -0.2582   51.9251   29.6677 C   0  0  0  0  0  0
   -0.0944   52.7400   30.7751 C   0  0  0  0  0  0
    1.0538   53.4516   30.6748 O   0  0  0  0  0  0
   -2.7316   56.8279   15.4685 H   0  0  0  0  0  0
   -1.1447   58.5787   14.7426 H   0  0  0  0  0  0
    1.2222   58.4398   15.3896 H   0  0  0  0  0  0
    0.4056   54.7619   17.4868 H   0  0  0  0  0  0
   -1.9499   54.9214   16.8322 H   0  0  0  0  0  0
    3.0183   57.3894   16.4995 H   0  0  0  0  0  0
    2.4683   54.8233   18.0741 H   0  0  0  0  0  0
    3.6220   53.0718   18.1035 H   0  0  0  0  0  0
    5.1287   52.5625   18.6983 H   0  0  0  0  0  0
    3.1047   54.0958   20.3396 H   0  0  0  0  0  0
    3.5402   52.3738   20.5596 H   0  0  0  0  0  0
    5.7029   52.9532   21.4034 H   0  0  0  0  0  0
    6.9475   54.9346   21.2955 H   0  0  0  0  0  0
    5.5153   55.9098   20.8415 H   0  0  0  0  0  0
    6.8787   53.8431   19.0829 H   0  0  0  0  0  0
    6.9575   55.5374   18.8342 H   0  0  0  0  0  0
    6.4859   54.2085   23.2810 H   0  0  0  0  0  0
    7.5548   54.8168   25.1227 H   0  0  0  0  0  0
    7.6265   54.8966   27.6038 H   0  0  0  0  0  0
    5.6588   54.4306   28.9104 H   0  0  0  0  0  0
    3.3842   53.8117   25.3168 H   0  0  0  0  0  0
    2.4300   53.4132   27.2491 H   0  0  0  0  0  0
    1.0577   51.6694   27.9091 H   0  0  0  0  0  0
   -1.0641   51.2236   29.4936 H   0  0  0  0  0  0
   -0.6564   52.8968   31.6816 H   0  0  0  0  0  0
  1  6  2  0  0  0
  1  2  1  0  0  0
  1 34  1  0  0  0
  2  3  2  0  0  0
  2 35  1  0  0  0
  3  4  1  0  0  0
  3 36  1  0  0  0
  4  5  2  0  0  0
  4  7  1  0  0  0
  5  6  1  0  0  0
  5 37  1  0  0  0
  6 38  1  0  0  0
  7  8  2  0  0  0
  7 39  1  0  0  0
  8  9  1  0  0  0
  8 40  1  0  0  0
  9 10  2  0  0  0
  9 11  1  0  0  0
 11 16  1  0  0  0
 11 12  1  0  0  0
 12 13  1  0  0  0
 12 41  1  0  0  0
 12 42  1  0  0  0
 13 14  1  0  0  0
 13 43  1  0  0  0
 13 44  1  0  0  0
 14 15  1  0  0  0
 14 17  1  0  0  0
 14 45  1  0  0  0
 15 16  1  0  0  0
 15 46  1  0  0  0
 15 47  1  0  0  0
 16 48  1  0  0  0
 16 49  1  0  0  0
 17 18  2  0  0  0
 17 19  1  0  0  0
 19 20  1  0  0  0
 19 50  1  0  0  0
 20 25  2  0  0  0
 20 21  1  0  0  0
 21 22  2  0  0  0
 21 51  1  0  0  0
 22 23  1  0  0  0
 22 52  1  0  0  0
 23 24  2  0  0  0
 23 53  1  0  0  0
 24 25  1  0  0  0
 24 26  1  0  0  0
 25 54  1  0  0  0
 26 27  1  0  0  0
 26 55  1  0  0  0
 27 28  2  0  0  0
 27 29  1  0  0  0
 29 33  1  0  0  0
 29 30  2  0  0  0
 30 31  1  0  0  0
 30 56  1  0  0  0
 31 32  2  0  0  0
 31 57  1  0  0  0
 32 33  1  0  0  0
 32 58  1  0  0  0
M  END
> <i_i_glide_confnum>
265

> <i_i_glide_lignum>
2243

> <i_i_glide_posenum>
196

> <i_i_glide_rotatable_bonds>
9

> <i_m_Source_File_Index>
378

> <b_m_subgroup_collapsed>
0

> <r_i_docking_score>
-6.21867

> <r_i_glide_ecoul>
-5.38029

> <r_i_glide_eff_state_penalty>
0

> <r_i_glide_einternal>
8.69625

> <r_i_glide_emodel>
-69.1446

> <r_i_glide_energy>
-53.1917

> <r_i_glide_erotb>
0.813154

> <r_i_glide_esite>
0

> <r_i_glide_evdw>
-47.8114

> <r_i_glide_gscore>
-6.21867

> <r_i_glide_hbond>
-0.32

> <r_i_glide_ligand_efficiency>
-0.188445

> <r_i_glide_ligand_efficiency_ln>
-1.383

> <r_i_glide_ligand_efficiency_sa>
-0.604443

> <r_i_glide_lipo>
-2.46843

> <r_i_glide_metal>
0

> <r_i_glide_rewards>
-1.04579

> <s_i_glide_gridfile>
wee1_glide-grid

> <s_m_Source_File>
wee1_decoys_glide_SP.sdf

> <s_m_Source_Path>
/Users/zhangxujun/Desktop

> <s_m_entry_id>
653

> <s_m_entry_name>
wee1_decoys_glide_SP.378

> <s_m_subgroup_title>
wee1_decoys_glide_SP

> <s_m_subgroupid>
wee1_decoys_glide_SP


$$$$
