@<TRIPOS>MOLECULE
ZINC14982919_4875
71   74    1
SMALL
USER_CHARGES


@<TRIPOS>ATOM
      1 C1          2.4838   54.6467   28.3070 C.3       1 UNK         0.0000 
      2 C2          2.6413   53.2487   28.9544 C.3       1 UNK         0.0000 
      3 C3          1.6766   52.2119   28.3180 C.3       1 UNK         0.0000 
      4 C4          0.1837   52.4993   28.6110 C.3       1 UNK         0.0000 
      5 H5         -0.1598   53.4399   28.1786 H         1 UNK         0.0000 
      6 C6          0.0176   52.6490   30.1351 C.3       1 UNK         0.0000 
      7 C7          1.0241   53.6314   30.7568 C.3       1 UNK         0.0000 
      8 O8          2.3621   53.2994   30.3634 O.3       1 UNK         0.0000 
      9 C9         -0.9054   50.9987   26.6473 C.3       1 UNK         0.0000 
     10 C10        -0.8435   52.2794   25.7803 C.3       1 UNK         0.0000 
     11 C11        -0.6455   51.9843   24.2838 C.3       1 UNK         0.0000 
     12 N12         0.5891   51.2048   24.1062 N.pl3     1 UNK         0.0000 
     13 C13         0.3982   49.8666   24.6856 C.3       1 UNK         0.0000 
     14 C14         0.1483   49.9474   26.2110 C.3       1 UNK         0.0000 
     15 C15         1.4979   51.5119   23.0980 C.ar      1 UNK         0.0000 
     16 C16         1.9218   52.8380   22.9445 C.ar      1 UNK         0.0000 
     17 C17         2.8452   53.1821   21.9623 C.ar      1 UNK         0.0000 
     18 C18         3.3602   52.2042   21.1019 C.ar      1 UNK         0.0000 
     19 C19         2.9301   50.8822   21.2366 C.ar      1 UNK         0.0000 
     20 C20         2.0165   50.5354   22.2338 C.ar      1 UNK         0.0000 
     21 N21         4.2502   52.4873   20.0491 N.am      1 UNK         0.0000 
     22 C22         5.0751   53.5495   19.9239 C.2       1 UNK         0.0000 
     23 O23         5.2833   54.3697   20.8191 O.2       1 UNK         0.0000 
     24 C24         5.7900   53.6688   18.5652 C.3       1 UNK         0.0000 
     25 C25         6.6764   54.9089   18.4383 C.ar      1 UNK         0.0000 
     26 C26         8.0634   54.7840   18.5259 C.ar      1 UNK         0.0000 
     27 C27         8.8698   55.9166   18.4692 C.ar      1 UNK         0.0000 
     28 C28         8.2980   57.1885   18.3133 C.ar      1 UNK         0.0000 
     29 C29         6.9122   57.3036   18.2077 C.ar      1 UNK         0.0000 
     30 C30         6.1006   56.1727   18.2708 C.ar      1 UNK         0.0000 
     31 O31         9.0241   58.3639   18.2596 O.3       1 UNK         0.0000 
     32 C32        10.4369   58.3080   18.4327 C.3       1 UNK         0.0000 
     33 C33         4.0840   52.7209   28.8586 C.3       1 UNK         0.0000 
     34 H34         2.8053   54.6308   27.2661 H         1 UNK         0.0000 
     35 H35         1.4608   55.0195   28.3229 H         1 UNK         0.0000 
     36 H36         3.0984   55.3822   28.8245 H         1 UNK         0.0000 
     37 H37         1.9055   51.2264   28.7289 H         1 UNK         0.0000 
     38 H38         1.8637   52.1155   27.2492 H         1 UNK         0.0000 
     39 H39        -1.0048   52.8930   30.4012 H         1 UNK         0.0000 
     40 H40         0.1886   51.6965   30.6235 H         1 UNK         0.0000 
     41 H41         0.7737   54.6533   30.4713 H         1 UNK         0.0000 
     42 H42         0.9561   53.5873   31.8440 H         1 UNK         0.0000 
     43 H43        -1.8683   50.5042   26.4965 H         1 UNK         0.0000 
     44 H44         0.0151   52.8936   26.0495 H         1 UNK         0.0000 
     45 H45        -1.7114   52.9112   25.9717 H         1 UNK         0.0000 
     46 H46        -0.6132   52.9272   23.7340 H         1 UNK         0.0000 
     47 H47        -1.4932   51.4201   23.8873 H         1 UNK         0.0000 
     48 H48        -0.4129   49.3398   24.1760 H         1 UNK         0.0000 
     49 H49         1.3067   49.2831   24.5362 H         1 UNK         0.0000 
     50 H50        -0.0956   48.9621   26.6135 H         1 UNK         0.0000 
     51 H51         1.1059   50.1527   26.6684 H         1 UNK         0.0000 
     52 H52         1.5457   53.6117   23.5971 H         1 UNK         0.0000 
     53 H53         3.1171   54.2217   21.8644 H         1 UNK         0.0000 
     54 H54         3.2972   50.1153   20.5697 H         1 UNK         0.0000 
     55 H55         1.7037   49.5073   22.3171 H         1 UNK         0.0000 
     56 H56         4.3166   51.7871   19.3208 H         1 UNK         0.0000 
     57 H57         5.0341   53.6957   17.7791 H         1 UNK         0.0000 
     58 H58         6.3736   52.7622   18.3966 H         1 UNK         0.0000 
     59 H59         8.5232   53.8142   18.6475 H         1 UNK         0.0000 
     60 H60         9.9366   55.7835   18.5505 H         1 UNK         0.0000 
     61 H61         6.4630   58.2789   18.0841 H         1 UNK         0.0000 
     62 H62         5.0276   56.2794   18.2080 H         1 UNK         0.0000 
     63 H63        10.8472   59.3159   18.3812 H         1 UNK         0.0000 
     64 H64        10.9161   57.7180   17.6490 H         1 UNK         0.0000 
     65 H65        10.7065   57.8945   19.4065 H         1 UNK         0.0000 
     66 H66         4.3861   52.5696   27.8221 H         1 UNK         0.0000 
     67 H67         4.7897   53.4214   29.3024 H         1 UNK         0.0000 
     68 H68         4.2009   51.7713   29.3820 H         1 UNK         0.0000 
     69 N69        -0.7153   51.3188   28.1515 N.4       1 UNK         0.0000 
     70 H70        -1.6240   51.4046   28.5876 H         1 UNK         0.0000 
     71 H71        -0.3601   50.4694   28.5737 H         1 UNK         0.0000 
@<TRIPOS>BOND
     1    1    2 1    
     2    1   34 1    
     3    1   35 1    
     4    1   36 1    
     5    2    8 1    
     6    2    3 1    
     7    2   33 1    
     8    3    4 1    
     9    3   37 1    
    10    3   38 1    
    11    4    5 1    
    12    4    6 1    
    13    4   69 1    
    14    6    7 1    
    15    6   39 1    
    16    6   40 1    
    17    7    8 1    
    18    7   41 1    
    19    7   42 1    
    20    9   14 1    
    21    9   10 1    
    22    9   43 1    
    23    9   69 1    
    24   10   11 1    
    25   10   44 1    
    26   10   45 1    
    27   11   12 1    
    28   11   46 1    
    29   11   47 1    
    30   12   13 1    
    31   12   15 1    
    32   13   14 1    
    33   13   48 1    
    34   13   49 1    
    35   14   50 1    
    36   14   51 1    
    37   15   20 ar   
    38   15   16 ar   
    39   16   17 ar   
    40   16   52 1    
    41   17   18 ar   
    42   17   53 1    
    43   18   19 ar   
    44   18   21 1    
    45   19   20 ar   
    46   19   54 1    
    47   20   55 1    
    48   21   22 am   BACKBONE|DICT|INTERRES
    49   21   56 1    
    50   22   23 2    
    51   22   24 1    
    52   24   25 1    
    53   24   57 1    
    54   24   58 1    
    55   25   30 ar   
    56   25   26 ar   
    57   26   27 ar   
    58   26   59 1    
    59   27   28 ar   
    60   27   60 1    
    61   28   29 ar   
    62   28   31 1    
    63   29   30 ar   
    64   29   61 1    
    65   30   62 1    
    66   31   32 1    
    67   32   63 1    
    68   32   64 1    
    69   32   65 1    
    70   33   66 1    
    71   33   67 1    
    72   33   68 1    
    73   69   70 1    
    74   69   71 1    
@<TRIPOS>SUBSTRUCTURE
     1 UNK         1 GROUP             0       ****    0 ROOT    
