ZINC15946648_160
                    3D
 Schrodinger Suite 2024-2.
 64 67  0  0  1  0            999 V2000
    6.1653   53.4707   17.2680 C   0  0  0  0  0  0
    4.6151   53.5013   17.2739 C   0  0  1  0  0  0
    4.2265   54.5154   17.1415 H   0  0  0  0  0  0
    4.0754   52.5759   16.1511 C   0  0  0  0  0  0
    2.6164   52.1086   16.2946 C   0  0  0  0  0  0
    2.3301   51.5819   17.7037 C   0  0  0  0  0  0
    2.6311   52.6607   18.7436 C   0  0  0  0  0  0
    4.4074   54.1241   19.7668 C   0  0  0  0  0  0
    4.7023   53.5495   21.1653 C   0  0  0  0  0  0
    4.6288   52.3430   21.4083 O   0  0  0  0  0  0
    5.0297   54.4968   22.0636 N   0  0  0  0  0  0
    5.1315   54.3319   23.4328 C   0  0  0  0  0  0
    4.1394   54.0427   24.4021 C   0  0  0  0  0  0
    4.7239   54.0898   25.6975 C   0  0  0  0  0  0
    6.0723   54.3728   25.6948 C   0  0  0  0  0  0
    6.7027   54.6272   24.1141 S   0  0  0  0  0  0
    6.6886   54.3836   27.0678 C   0  0  0  0  0  0
    5.4508   54.3089   27.9736 C   0  0  0  0  0  0
    4.2598   53.8405   27.1198 C   0  0  0  0  0  0
    2.7276   53.8082   24.1185 C   0  0  0  0  0  0
    2.2287   54.1317   23.0386 O   0  0  0  0  0  0
    2.0610   53.1824   25.1136 N   0  0  0  0  0  0
    0.7754   52.6064   25.1354 C   0  0  0  0  0  0
   -0.0412   52.4787   24.0000 C   0  0  0  0  0  0
   -1.2780   51.8496   24.0931 C   0  0  0  0  0  0
   -1.7175   51.3104   25.2977 C   0  0  0  0  0  0
   -0.9117   51.4503   26.4367 C   0  0  0  0  0  0
    0.3284   52.1072   26.3736 C   0  0  0  0  0  0
    1.1542   52.2853   27.4750 O   0  0  0  0  0  0
    0.6714   51.9588   28.7743 C   0  0  0  0  0  0
   -2.9355   50.6623   25.2744 O   0  0  0  0  0  0
   -3.2710   49.7999   26.3569 C   0  0  0  0  0  0
    6.5499   53.6568   16.2618 H   0  0  0  0  0  0
    6.5511   52.4948   17.5805 H   0  0  0  0  0  0
    6.6187   54.2271   17.9086 H   0  0  0  0  0  0
    4.1887   53.0774   15.1878 H   0  0  0  0  0  0
    4.7140   51.6967   16.0822 H   0  0  0  0  0  0
    1.9390   52.9335   16.0606 H   0  0  0  0  0  0
    2.4100   51.3261   15.5618 H   0  0  0  0  0  0
    1.2876   51.2691   17.7798 H   0  0  0  0  0  0
    2.9298   50.6928   17.9095 H   0  0  0  0  0  0
    2.0491   53.5667   18.5672 H   0  0  0  0  0  0
    2.4377   52.2768   19.7488 H   0  0  0  0  0  0
    5.2195   54.7679   19.4396 H   0  0  0  0  0  0
    3.5122   54.7493   19.8096 H   0  0  0  0  0  0
    5.2543   55.4162   21.7117 H   0  0  0  0  0  0
    7.3527   53.5332   27.2285 H   0  0  0  0  0  0
    7.2508   55.2931   27.2800 H   0  0  0  0  0  0
    5.6168   53.6578   28.8339 H   0  0  0  0  0  0
    5.2358   55.2965   28.3814 H   0  0  0  0  0  0
    3.3535   54.3846   27.3879 H   0  0  0  0  0  0
    4.0775   52.7805   27.3004 H   0  0  0  0  0  0
    2.5755   53.0328   25.9704 H   0  0  0  0  0  0
    0.2644   52.8380   23.0306 H   0  0  0  0  0  0
   -1.8885   51.7504   23.2099 H   0  0  0  0  0  0
   -1.2524   51.0406   27.3728 H   0  0  0  0  0  0
    1.4315   52.2082   29.5122 H   0  0  0  0  0  0
   -0.2273   52.5254   29.0187 H   0  0  0  0  0  0
    0.4572   50.8965   28.8688 H   0  0  0  0  0  0
   -4.2173   49.3035   26.1444 H   0  0  0  0  0  0
   -2.5146   49.0243   26.4815 H   0  0  0  0  0  0
   -3.3891   50.3439   27.2948 H   0  0  0  0  0  0
    4.1364   53.0318   18.6850 N   0  3  2  0  0  0
    4.6511   52.1774   18.8882 H   0  0  0  0  0  0
  1  2  1  0  0  0
  1 33  1  0  0  0
  1 34  1  0  0  0
  1 35  1  0  0  0
  2  3  1  0  0  0
  2  4  1  0  0  0
  2 63  1  0  0  0
  4  5  1  0  0  0
  4 36  1  0  0  0
  4 37  1  0  0  0
  5  6  1  0  0  0
  5 38  1  0  0  0
  5 39  1  0  0  0
  6  7  1  0  0  0
  6 40  1  0  0  0
  6 41  1  0  0  0
  7 42  1  0  0  0
  7 43  1  0  0  0
  7 63  1  0  0  0
  8  9  1  0  0  0
  8 44  1  0  0  0
  8 45  1  0  0  0
  8 63  1  0  0  0
  9 10  2  0  0  0
  9 11  1  0  0  0
 11 12  1  0  0  0
 11 46  1  0  0  0
 12 16  1  0  0  0
 12 13  2  0  0  0
 13 14  1  0  0  0
 13 20  1  0  0  0
 14 19  1  0  0  0
 14 15  2  0  0  0
 15 16  1  0  0  0
 15 17  1  0  0  0
 17 18  1  0  0  0
 17 47  1  0  0  0
 17 48  1  0  0  0
 18 19  1  0  0  0
 18 49  1  0  0  0
 18 50  1  0  0  0
 19 51  1  0  0  0
 19 52  1  0  0  0
 20 21  2  0  0  0
 20 22  1  0  0  0
 22 23  1  0  0  0
 22 53  1  0  0  0
 23 28  2  0  0  0
 23 24  1  0  0  0
 24 25  2  0  0  0
 24 54  1  0  0  0
 25 26  1  0  0  0
 25 55  1  0  0  0
 26 27  2  0  0  0
 26 31  1  0  0  0
 27 28  1  0  0  0
 27 56  1  0  0  0
 28 29  1  0  0  0
 29 30  1  0  0  0
 30 57  1  0  0  0
 30 58  1  0  0  0
 30 59  1  0  0  0
 31 32  1  0  0  0
 32 60  1  0  0  0
 32 61  1  0  0  0
 32 62  1  0  0  0
 63 64  1  0  0  0
M  CHG  1  63   1
M  END
> <i_i_glide_confnum>
30

> <i_i_glide_lignum>
161

> <i_i_glide_posenum>
303

> <i_i_glide_rotatable_bonds>
9

> <i_m_Source_File_Index>
3750

> <b_m_subgroup_collapsed>
0

> <r_i_docking_score>
-5.58227

> <r_i_glide_ecoul>
-3.74786

> <r_i_glide_eff_state_penalty>
0

> <r_i_glide_einternal>
14.1479

> <r_i_glide_emodel>
-57.0697

> <r_i_glide_energy>
-46.4213

> <r_i_glide_erotb>
0.669481

> <r_i_glide_esite>
-0.064789

> <r_i_glide_evdw>
-42.6734

> <r_i_glide_gscore>
-5.58227

> <r_i_glide_hbond>
-0.157785

> <r_i_glide_ligand_efficiency>
-0.174446

> <r_i_glide_ligand_efficiency_ln>
-1.25002

> <r_i_glide_ligand_efficiency_sa>
-0.553831

> <r_i_glide_lipo>
-2.5678

> <r_i_glide_metal>
0

> <r_i_glide_rewards>
-0.765532

> <s_i_glide_gridfile>
wee1_glide-grid

> <s_m_Source_File>
wee1_decoys_glide_SP.sdf

> <s_m_Source_Path>
/Users/zhangxujun/Desktop

> <s_m_entry_id>
4025

> <s_m_entry_name>
wee1_decoys_glide_SP.3750

> <s_m_subgroup_title>
wee1_decoys_glide_SP

> <s_m_subgroupid>
wee1_decoys_glide_SP


$$$$
