@<TRIPOS>MOLECULE
ZINC39665663_894
70   73    1
SMALL
USER_CHARGES


@<TRIPOS>ATOM
      1 C1         -5.8110   50.9438   24.1465 C.3       1 UNK         0.0000 
      2 C2         -4.4041   51.2612   24.7008 C.3       1 UNK         0.0000 
      3 H3         -3.7455   50.6940   24.0436 H         1 UNK         0.0000 
      4 C4         -3.9326   52.7363   24.5889 C.3       1 UNK         0.0000 
      5 N5         -2.4733   52.8950   24.6648 N.am      1 UNK         0.0000 
      6 C6         -1.5995   52.6008   23.6826 C.2       1 UNK         0.0000 
      7 O7         -1.9686   52.2188   22.5714 O.2       1 UNK         0.0000 
      8 C8         -0.0956   52.8457   24.0006 C.3       1 UNK         0.0000 
      9 H9         -0.0535   53.6972   24.6684 H         1 UNK         0.0000 
     10 C10         0.7036   53.2355   22.7298 C.3       1 UNK         0.0000 
     11 N11         1.9970   52.5803   22.8899 N.am      1 UNK         0.0000 
     12 C12         2.0794   51.7989   24.1113 C.3       1 UNK         0.0000 
     13 C13         0.6448   51.6445   24.6501 C.3       1 UNK         0.0000 
     14 C14         0.1530   50.2383   24.1401 C.3       1 UNK         0.0000 
     15 C15        -0.8708   49.4882   25.0107 C.3       1 UNK         0.0000 
     16 N16        -0.4663   49.6187   26.4813 N.4       1 UNK         0.0000 
     17 C17        -0.4836   51.0643   26.9619 C.3       1 UNK         0.0000 
     18 C18         0.6235   51.7995   26.2093 C.3       1 UNK         0.0000 
     19 C19         3.1337   53.0775   22.3604 C.2       1 UNK         0.0000 
     20 O20         3.8848   52.3753   21.6841 O.2       1 UNK         0.0000 
     21 C21         3.5881   54.4941   22.7525 C.3       1 UNK         0.0000 
     22 C22         4.4925   54.4951   23.9827 C.ar      1 UNK         0.0000 
     23 C23         5.8815   54.4358   23.8364 C.ar      1 UNK         0.0000 
     24 C24         6.6962   54.3871   24.9638 C.ar      1 UNK         0.0000 
     25 C25         6.1187   54.3691   26.2333 C.ar      1 UNK         0.0000 
     26 C26         4.7376   54.4391   26.3866 C.ar      1 UNK         0.0000 
     27 C27         3.9250   54.5038   25.2606 C.ar      1 UNK         0.0000 
     28 Cl28        7.1106   54.2248   27.6332 Cl        1 UNK         0.0000 
     29 O29        -4.1329   50.7017   25.9957 O.3       1 UNK         0.0000 
     30 C30        -4.7895   51.0842   27.1551 C.ar      1 UNK         0.0000 
     31 C31        -5.8568   51.9928   27.2307 C.ar      1 UNK         0.0000 
     32 C32        -6.4718   52.2673   28.4509 C.ar      1 UNK         0.0000 
     33 C33        -5.9907   51.6804   29.6308 C.ar      1 UNK         0.0000 
     34 C34        -4.9113   50.7995   29.5591 C.ar      1 UNK         0.0000 
     35 C35        -4.3263   50.4956   28.3327 C.ar      1 UNK         0.0000 
     36 O36        -6.4966   51.9393   30.8906 O.3       1 UNK         0.0000 
     37 C37        -7.6977   52.6924   31.0166 C.3       1 UNK         0.0000 
     38 H38        -5.9154   51.3047   23.1243 H         1 UNK         0.0000 
     39 H39        -5.9667   49.8663   24.1147 H         1 UNK         0.0000 
     40 H40        -6.6359   51.3623   24.7127 H         1 UNK         0.0000 
     41 H41        -4.3552   53.3294   25.3961 H         1 UNK         0.0000 
     42 H42        -4.3054   53.1965   23.6783 H         1 UNK         0.0000 
     43 H43        -2.1080   53.2334   25.5429 H         1 UNK         0.0000 
     44 H44         0.7967   54.3194   22.7577 H         1 UNK         0.0000 
     45 H45         0.2395   52.8088   21.8389 H         1 UNK         0.0000 
     46 H46         2.7021   50.9034   24.0450 H         1 UNK         0.0000 
     47 H47         2.6101   52.4252   24.8256 H         1 UNK         0.0000 
     48 H48        -0.0665   50.2255   23.0707 H         1 UNK         0.0000 
     49 H49         1.0039   49.5561   24.2146 H         1 UNK         0.0000 
     50 H50        -1.8753   49.8983   24.9399 H         1 UNK         0.0000 
     51 H51        -0.9111   48.4201   24.7884 H         1 UNK         0.0000 
     52 H52        -1.0686   49.0545   27.1002 H         1 UNK         0.0000 
     53 H53        -1.4867   51.4491   26.7754 H         1 UNK         0.0000 
     54 H54        -0.3158   51.0298   28.0405 H         1 UNK         0.0000 
     55 H55         1.5044   51.2985   26.5990 H         1 UNK         0.0000 
     56 H56         0.7774   52.8259   26.5471 H         1 UNK         0.0000 
     57 H57         2.7277   55.1224   22.9571 H         1 UNK         0.0000 
     58 H58         4.0983   54.9333   21.8948 H         1 UNK         0.0000 
     59 H59         6.3304   54.4159   22.8539 H         1 UNK         0.0000 
     60 H60         7.7659   54.3389   24.8458 H         1 UNK         0.0000 
     61 H61         4.2987   54.4285   27.3735 H         1 UNK         0.0000 
     62 H62         2.8532   54.5462   25.3820 H         1 UNK         0.0000 
     63 H63        -6.2319   52.5080   26.3650 H         1 UNK         0.0000 
     64 H64        -7.2953   52.9633   28.4655 H         1 UNK         0.0000 
     65 H65        -4.5247   50.3407   30.4589 H         1 UNK         0.0000 
     66 H66        -3.5008   49.7977   28.3008 H         1 UNK         0.0000 
     67 H67        -7.9825   52.7517   32.0677 H         1 UNK         0.0000 
     68 H68        -7.5694   53.7111   30.6537 H         1 UNK         0.0000 
     69 H69        -8.5222   52.2230   30.4787 H         1 UNK         0.0000 
     70 H70         0.4513   49.2179   26.6139 H         1 UNK         0.0000 
@<TRIPOS>BOND
     1    1    2 1    
     2    1   38 1    
     3    1   39 1    
     4    1   40 1    
     5    2    3 1    
     6    2    4 1    
     7    2   29 1    
     8    4    5 1    
     9    4   41 1    
    10    4   42 1    
    11    5    6 am   BACKBONE|DICT|INTERRES
    12    5   43 1    
    13    6    7 2    
    14    6    8 1    
    15    8    9 1    
    16    8   13 1    
    17    8   10 1    
    18   10   11 1    
    19   10   44 1    
    20   10   45 1    
    21   11   12 1    
    22   11   19 am   BACKBONE|DICT|INTERRES
    23   12   13 1    
    24   12   46 1    
    25   12   47 1    
    26   13   18 1    
    27   13   14 1    
    28   14   15 1    
    29   14   48 1    
    30   14   49 1    
    31   15   16 1    
    32   15   50 1    
    33   15   51 1    
    34   16   17 1    
    35   16   52 1    
    36   16   70 1    
    37   17   18 1    
    38   17   53 1    
    39   17   54 1    
    40   18   55 1    
    41   18   56 1    
    42   19   20 2    
    43   19   21 1    
    44   21   22 1    
    45   21   57 1    
    46   21   58 1    
    47   22   27 ar   
    48   22   23 ar   
    49   23   24 ar   
    50   23   59 1    
    51   24   25 ar   
    52   24   60 1    
    53   25   26 ar   
    54   25   28 1    
    55   26   27 ar   
    56   26   61 1    
    57   27   62 1    
    58   29   30 1    
    59   30   35 ar   
    60   30   31 ar   
    61   31   32 ar   
    62   31   63 1    
    63   32   33 ar   
    64   32   64 1    
    65   33   34 ar   
    66   33   36 1    
    67   34   35 ar   
    68   34   65 1    
    69   35   66 1    
    70   36   37 1    
    71   37   67 1    
    72   37   68 1    
    73   37   69 1    
@<TRIPOS>SUBSTRUCTURE
     1 UNK         1 GROUP             0       ****    0 ROOT    
