@<TRIPOS>MOLECULE
ZINC60369341_4912
67   70    1
SMALL
USER_CHARGES


@<TRIPOS>ATOM
      1 C1          6.4001   53.4325   27.9796 C.ar      1 UNK         0.0000 
      2 C2          6.5845   53.7136   26.6264 C.ar      1 UNK         0.0000 
      3 C3          5.5999   54.3819   25.8990 C.ar      1 UNK         0.0000 
      4 C4          4.4381   54.7978   26.5604 C.ar      1 UNK         0.0000 
      5 C5          4.2395   54.4970   27.9096 C.ar      1 UNK         0.0000 
      6 C6          5.2229   53.8179   28.6233 C.ar      1 UNK         0.0000 
      7 F7          3.1022   54.8840   28.5291 F         1 UNK         0.0000 
      8 C8          5.8001   54.6671   24.4100 C.3       1 UNK         0.0000 
      9 N9          5.0494   53.7047   23.4422 N.4       1 UNK         0.0000 
     10 C10         5.2780   54.1185   21.9686 C.3       1 UNK         0.0000 
     11 C11         4.5604   53.1175   21.0404 C.3       1 UNK         0.0000 
     12 C12         3.0436   53.0825   21.3114 C.3       1 UNK         0.0000 
     13 C13         2.7805   52.6854   22.7704 C.3       1 UNK         0.0000 
     14 H14         3.0840   51.6505   22.8820 H         1 UNK         0.0000 
     15 C15         3.5359   53.6087   23.7746 C.3       1 UNK         0.0000 
     16 C16         1.2612   52.7288   23.1156 C.2       1 UNK         0.0000 
     17 O17         0.8215   53.7359   23.6815 O.2       1 UNK         0.0000 
     18 N18         0.4215   51.7303   22.7160 N.am      1 UNK         0.0000 
     19 C19         0.8725   50.3815   22.3424 C.3       1 UNK         0.0000 
     20 C20         0.8616   49.5274   23.6314 C.3       1 UNK         0.0000 
     21 C21        -0.5024   49.5529   24.3582 C.3       1 UNK         0.0000 
     22 C22        -1.0860   50.9832   24.5015 C.3       1 UNK         0.0000 
     23 H23        -0.4472   51.5214   25.2035 H         1 UNK         0.0000 
     24 C24        -0.9902   51.7504   23.1486 C.3       1 UNK         0.0000 
     25 C25        -2.5241   50.9972   25.0579 C.3       1 UNK         0.0000 
     26 N26        -2.6418   50.5201   26.4428 N.am      1 UNK         0.0000 
     27 C27        -3.6316   50.8874   27.2742 C.2       1 UNK         0.0000 
     28 O28        -4.4132   51.8040   27.0141 O.2       1 UNK         0.0000 
     29 N29        -3.6962   50.0968   28.3652 N.am      1 UNK         0.0000 
     30 C30        -4.6403   50.1336   29.4117 C.ar      1 UNK         0.0000 
     31 C31        -4.7935   48.9749   30.1789 C.ar      1 UNK         0.0000 
     32 C32        -5.6957   48.9427   31.2461 C.ar      1 UNK         0.0000 
     33 C33        -6.4250   50.0839   31.5791 C.ar      1 UNK         0.0000 
     34 C34        -6.2702   51.2466   30.8286 C.ar      1 UNK         0.0000 
     35 C35        -5.3965   51.2684   29.7445 C.ar      1 UNK         0.0000 
     36 F36        -6.9497   52.3688   31.1641 F         1 UNK         0.0000 
     37 H37         7.1763   52.8975   28.5034 H         1 UNK         0.0000 
     38 H38         7.4954   53.3870   26.1487 H         1 UNK         0.0000 
     39 H39         3.6676   55.3354   26.0321 H         1 UNK         0.0000 
     40 H40         5.0714   53.6034   29.6773 H         1 UNK         0.0000 
     41 H41         5.5040   55.6925   24.1731 H         1 UNK         0.0000 
     42 H42         6.8503   54.5625   24.1301 H         1 UNK         0.0000 
     43 H43         4.9129   55.1395   21.8395 H         1 UNK         0.0000 
     44 H44         6.3536   54.0970   21.7988 H         1 UNK         0.0000 
     45 H45         4.7354   53.3980   20.0010 H         1 UNK         0.0000 
     46 H46         4.9911   52.1205   21.1534 H         1 UNK         0.0000 
     47 H47         2.7046   54.0965   21.1510 H         1 UNK         0.0000 
     48 H48         2.5969   52.3849   20.6017 H         1 UNK         0.0000 
     49 H49         3.4704   53.1780   24.7753 H         1 UNK         0.0000 
     50 H50         3.1826   54.6438   23.7575 H         1 UNK         0.0000 
     51 H51         0.1406   49.9939   21.6333 H         1 UNK         0.0000 
     52 H52         1.7975   50.3672   21.7708 H         1 UNK         0.0000 
     53 H53         1.1046   48.4970   23.3766 H         1 UNK         0.0000 
     54 H54         1.6513   49.8590   24.3042 H         1 UNK         0.0000 
     55 H55        -1.1988   48.9604   23.7606 H         1 UNK         0.0000 
     56 H56        -0.4555   49.0452   25.3232 H         1 UNK         0.0000 
     57 H57        -1.4003   52.7619   23.1677 H         1 UNK         0.0000 
     58 H58        -1.5929   51.2534   22.3869 H         1 UNK         0.0000 
     59 H59        -2.9031   52.0197   24.9881 H         1 UNK         0.0000 
     60 H60        -3.1775   50.3953   24.4238 H         1 UNK         0.0000 
     61 H61        -2.0139   49.7881   26.7459 H         1 UNK         0.0000 
     62 H62        -3.0005   49.3576   28.4432 H         1 UNK         0.0000 
     63 H63        -4.1996   48.0973   29.9596 H         1 UNK         0.0000 
     64 H64        -5.8044   48.0415   31.8320 H         1 UNK         0.0000 
     65 H65        -7.0963   50.0704   32.4255 H         1 UNK         0.0000 
     66 H66        -5.2985   52.1802   29.1863 H         1 UNK         0.0000 
     67 H67         5.4420   52.7792   23.5592 H         1 UNK         0.0000 
@<TRIPOS>BOND
     1    1    6 ar   
     2    1    2 ar   
     3    1   37 1    
     4    2    3 ar   
     5    2   38 1    
     6    3    4 ar   
     7    3    8 1    
     8    4    5 ar   
     9    4   39 1    
    10    5    6 ar   
    11    5    7 1    
    12    6   40 1    
    13    8    9 1    
    14    8   41 1    
    15    8   42 1    
    16    9   15 1    
    17    9   10 1    
    18    9   67 1    
    19   10   11 1    
    20   10   43 1    
    21   10   44 1    
    22   11   12 1    
    23   11   45 1    
    24   11   46 1    
    25   12   13 1    
    26   12   47 1    
    27   12   48 1    
    28   13   14 1    
    29   13   15 1    
    30   13   16 1    
    31   15   49 1    
    32   15   50 1    
    33   16   17 2    
    34   16   18 am   BACKBONE|DICT|INTERRES
    35   18   24 1    
    36   18   19 1    
    37   19   20 1    
    38   19   51 1    
    39   19   52 1    
    40   20   21 1    
    41   20   53 1    
    42   20   54 1    
    43   21   22 1    
    44   21   55 1    
    45   21   56 1    
    46   22   23 1    
    47   22   24 1    
    48   22   25 1    
    49   24   57 1    
    50   24   58 1    
    51   25   26 1    
    52   25   59 1    
    53   25   60 1    
    54   26   27 am   BACKBONE|DICT|INTERRES
    55   26   61 1    
    56   27   28 2    
    57   27   29 am   BACKBONE|DICT|INTERRES
    58   29   30 1    
    59   29   62 1    
    60   30   35 ar   
    61   30   31 ar   
    62   31   32 ar   
    63   31   63 1    
    64   32   33 ar   
    65   32   64 1    
    66   33   34 ar   
    67   33   65 1    
    68   34   35 ar   
    69   34   36 1    
    70   35   66 1    
@<TRIPOS>SUBSTRUCTURE
     1 UNK         1 GROUP             0       ****    0 ROOT    
