ZINC39853481_5251
                    3D
 Schrodinger Suite 2024-2.
 72 76  0  0  1  0            999 V2000
    9.1704   56.0005   18.6330 C   0  0  0  0  0  0
    7.8385   56.6601   18.3050 C   0  0  0  0  0  0
    7.5250   57.6965   18.8857 O   0  0  0  0  0  0
    7.0705   56.0147   17.4076 N   0  0  0  0  0  0
    5.8008   56.3868   16.9836 C   0  0  0  0  0  0
    4.8044   55.4997   16.5462 C   0  0  0  0  0  0
    3.6451   56.2133   16.1407 C   0  0  0  0  0  0
    3.7788   57.6042   16.2796 C   0  0  0  0  0  0
    5.3230   58.0603   16.8818 S   0  0  0  0  0  0
    2.7482   58.6424   15.8687 C   0  0  0  0  0  0
    1.3825   57.9496   15.6896 C   0  0  0  0  0  0
    1.5100   56.6689   14.8461 C   0  0  0  0  0  0
    2.3747   55.5941   15.5438 C   0  0  0  0  0  0
    4.9611   53.9650   16.4911 C   0  0  1  0  0  0
    4.2124   53.5563   15.8123 H   0  0  0  0  0  0
    6.2791   53.4759   15.8600 C   0  0  0  0  0  0
    7.1029   52.5246   16.4777 C   0  0  0  0  0  0
    8.2598   52.0728   15.8489 C   0  0  0  0  0  0
    8.6110   52.5585   14.5817 C   0  0  0  0  0  0
    7.7967   53.5095   13.9708 C   0  0  0  0  0  0
    6.6380   53.9591   14.5972 C   0  0  0  0  0  0
    9.7211   52.1515   13.8679 O   0  0  0  0  0  0
   10.5355   51.0999   14.3806 C   0  0  0  0  0  0
    4.5765   53.2955   17.8479 N   0  3  2  0  0  0
    3.0466   53.2579   18.0846 C   0  0  0  0  0  0
    2.7742   52.3697   19.3120 C   0  0  0  0  0  0
    3.4744   52.9214   20.5718 C   0  0  2  0  0  0
    4.9900   52.9869   20.2922 C   0  0  0  0  0  0
    5.3174   53.8726   19.0809 C   0  0  0  0  0  0
    3.2143   52.0806   21.8420 C   0  0  0  0  0  0
    1.7654   52.0258   22.3081 C   0  0  0  0  0  0
    1.2903   52.9769   23.2143 C   0  0  0  0  0  0
   -0.0191   52.8968   23.6817 C   0  0  0  0  0  0
   -0.8541   51.8758   23.2302 C   0  0  0  0  0  0
   -0.3883   50.9271   22.3228 C   0  0  0  0  0  0
    0.9254   50.9991   21.8650 C   0  0  0  0  0  0
    9.0724   55.3552   19.5065 H   0  0  0  0  0  0
    9.5457   55.4055   17.7991 H   0  0  0  0  0  0
    9.9073   56.7682   18.8652 H   0  0  0  0  0  0
    7.3829   55.1053   17.1001 H   0  0  0  0  0  0
    3.0478   59.1039   14.9268 H   0  0  0  0  0  0
    2.6940   59.4511   16.5998 H   0  0  0  0  0  0
    0.6799   58.6419   15.2238 H   0  0  0  0  0  0
    0.9606   57.7027   16.6660 H   0  0  0  0  0  0
    1.9450   56.9173   13.8759 H   0  0  0  0  0  0
    0.5208   56.2611   14.6339 H   0  0  0  0  0  0
    1.7826   55.1278   16.3291 H   0  0  0  0  0  0
    2.6080   54.8060   14.8277 H   0  0  0  0  0  0
    6.8498   52.0975   17.4367 H   0  0  0  0  0  0
    8.8622   51.3310   16.3526 H   0  0  0  0  0  0
    8.0589   53.8869   12.9932 H   0  0  0  0  0  0
    6.0146   54.6830   14.0914 H   0  0  0  0  0  0
   11.3284   50.8776   13.6659 H   0  0  0  0  0  0
   11.0080   51.3826   15.3226 H   0  0  0  0  0  0
    9.9636   50.1820   14.5275 H   0  0  0  0  0  0
    2.7046   54.2851   18.2179 H   0  0  0  0  0  0
    2.5935   52.8072   17.2003 H   0  0  0  0  0  0
    1.6996   52.2962   19.4807 H   0  0  0  0  0  0
    3.0975   51.3452   19.1152 H   0  0  0  0  0  0
    3.1092   53.9364   20.7446 H   0  0  0  0  0  0
    5.3917   51.9821   20.1456 H   0  0  0  0  0  0
    5.5046   53.3698   21.1740 H   0  0  0  0  0  0
    6.3856   53.8253   18.8743 H   0  0  0  0  0  0
    5.0029   54.9086   19.2197 H   0  0  0  0  0  0
    3.5839   51.0618   21.7083 H   0  0  0  0  0  0
    3.8053   52.4967   22.6583 H   0  0  0  0  0  0
    1.9356   53.7703   23.5655 H   0  0  0  0  0  0
   -0.3861   53.6266   24.3874 H   0  0  0  0  0  0
   -1.8695   51.8162   23.5944 H   0  0  0  0  0  0
   -1.0388   50.1326   21.9831 H   0  0  0  0  0  0
    1.2902   50.2553   21.1719 H   0  0  0  0  0  0
    4.8588   52.3222   17.7501 H   0  0  0  0  0  0
  1  2  1  0  0  0
  1 37  1  0  0  0
  1 38  1  0  0  0
  1 39  1  0  0  0
  2  3  2  0  0  0
  2  4  1  0  0  0
  4  5  1  0  0  0
  4 40  1  0  0  0
  5  9  1  0  0  0
  5  6  2  0  0  0
  6  7  1  0  0  0
  6 14  1  0  0  0
  7 13  1  0  0  0
  7  8  2  0  0  0
  8  9  1  0  0  0
  8 10  1  0  0  0
 10 11  1  0  0  0
 10 41  1  0  0  0
 10 42  1  0  0  0
 11 12  1  0  0  0
 11 43  1  0  0  0
 11 44  1  0  0  0
 12 13  1  0  0  0
 12 45  1  0  0  0
 12 46  1  0  0  0
 13 47  1  0  0  0
 13 48  1  0  0  0
 14 15  1  0  0  0
 14 16  1  0  0  0
 14 24  1  0  0  0
 16 21  2  0  0  0
 16 17  1  0  0  0
 17 18  2  0  0  0
 17 49  1  0  0  0
 18 19  1  0  0  0
 18 50  1  0  0  0
 19 20  2  0  0  0
 19 22  1  0  0  0
 20 21  1  0  0  0
 20 51  1  0  0  0
 21 52  1  0  0  0
 22 23  1  0  0  0
 23 53  1  0  0  0
 23 54  1  0  0  0
 23 55  1  0  0  0
 24 29  1  0  0  0
 24 25  1  0  0  0
 24 72  1  0  0  0
 25 26  1  0  0  0
 25 56  1  0  0  0
 25 57  1  0  0  0
 26 27  1  0  0  0
 26 58  1  0  0  0
 26 59  1  0  0  0
 27 28  1  0  0  0
 27 30  1  0  0  0
 27 60  1  0  0  0
 28 29  1  0  0  0
 28 61  1  0  0  0
 28 62  1  0  0  0
 29 63  1  0  0  0
 29 64  1  0  0  0
 30 31  1  0  0  0
 30 65  1  0  0  0
 30 66  1  0  0  0
 31 36  2  0  0  0
 31 32  1  0  0  0
 32 33  2  0  0  0
 32 67  1  0  0  0
 33 34  1  0  0  0
 33 68  1  0  0  0
 34 35  2  0  0  0
 34 69  1  0  0  0
 35 36  1  0  0  0
 35 70  1  0  0  0
 36 71  1  0  0  0
M  CHG  1  24   1
M  END
> <i_i_glide_confnum>
26

> <i_i_glide_lignum>
5252

> <i_i_glide_posenum>
348

> <i_i_glide_rotatable_bonds>
8

> <i_m_Source_File_Index>
1340

> <b_m_subgroup_collapsed>
0

> <r_i_docking_score>
-2.64455

> <r_i_glide_ecoul>
-5.03856

> <r_i_glide_eff_state_penalty>
0

> <r_i_glide_einternal>
7.51938

> <r_i_glide_emodel>
-36.6304

> <r_i_glide_energy>
-33.5437

> <r_i_glide_erotb>
0.509058

> <r_i_glide_esite>
-0.0719332

> <r_i_glide_evdw>
-28.5052

> <r_i_glide_gscore>
-2.64455

> <r_i_glide_hbond>
-0.24735

> <r_i_glide_ligand_efficiency>
-0.0755587

> <r_i_glide_ligand_efficiency_ln>
-0.580538

> <r_i_glide_ligand_efficiency_sa>
-0.247157

> <r_i_glide_lipo>
-0.571434

> <r_i_glide_metal>
0

> <r_i_glide_rewards>
-0.0818516

> <s_i_glide_gridfile>
wee1_glide-grid

> <s_m_Source_File>
wee1_decoys_glide_SP.sdf

> <s_m_Source_Path>
/Users/zhangxujun/Desktop

> <s_m_entry_id>
1615

> <s_m_entry_name>
wee1_decoys_glide_SP.1340

> <s_m_subgroup_title>
wee1_decoys_glide_SP

> <s_m_subgroupid>
wee1_decoys_glide_SP


$$$$
