@<TRIPOS>MOLECULE
ZINC10440178_2086
56   59    1
SMALL
USER_CHARGES


@<TRIPOS>ATOM
      1 C1          2.4073   54.8688   29.5555 C.3       1 UNK         0.0000 
      2 C2          3.0165   53.4932   29.2190 C.3       1 UNK         0.0000 
      3 C3          4.0121   53.4494   28.0274 C.3       1 UNK         0.0000 
      4 H4          4.2614   52.3962   27.8992 H         1 UNK         0.0000 
      5 C5          5.3103   54.2362   28.3109 C.3       1 UNK         0.0000 
      6 C6          6.4011   53.9543   27.2594 C.3       1 UNK         0.0000 
      7 C7          5.7773   54.1253   25.8825 C.2       1 UNK         0.0000 
      8 C8          4.4047   54.0965   25.6153 C.2       1 UNK         0.0000 
      9 C9          4.1465   54.1441   24.2386 C.2       1 UNK         0.0000 
     10 C10         5.2799   54.2907   23.4370 C.2       1 UNK         0.0000 
     11 S11         6.7041   54.2824   24.4315 S.3       1 UNK         0.0000 
     12 C12         5.3071   54.4303   21.9722 C.ar      1 UNK         0.0000 
     13 N13         4.2839   54.0884   21.2277 N.2       1 UNK         0.0000 
     14 N14         4.5881   54.4010   19.9104 N.2       1 UNK         0.0000 
     15 C15         5.7754   54.9459   19.9012 C.ar      1 UNK         0.0000 
     16 N16         6.3043   54.9756   21.1771 N.pl3     1 UNK         0.0000 
     17 C17         7.5985   55.5116   21.5777 C.3       1 UNK         0.0000 
     18 S18         6.5598   55.5600   18.4435 S.3       1 UNK         0.0000 
     19 C19         6.5563   54.0390   17.4284 C.3       1 UNK         0.0000 
     20 C20         7.9286   53.3704   17.2816 C.2       1 UNK         0.0000 
     21 O21         8.9632   54.0374   17.3747 O.2       1 UNK         0.0000 
     22 N22         7.9041   52.0410   17.0475 N.am      1 UNK         0.0000 
     23 N23         9.0989   51.3349   16.8819 N.am      1 UNK         0.0000 
     24 C24         9.6281   51.1741   15.6458 C.2       1 UNK         0.0000 
     25 O25         9.0932   51.5996   14.6174 O.2       1 UNK         0.0000 
     26 C26        10.9378   50.4114   15.5729 C.ar      1 UNK         0.0000 
     27 C27        11.5352   50.1625   14.3284 C.ar      1 UNK         0.0000 
     28 C28        12.7492   49.4833   14.2497 C.ar      1 UNK         0.0000 
     29 C29        13.3776   49.0433   15.4076 C.ar      1 UNK         0.0000 
     30 C30        12.7997   49.2779   16.6502 C.ar      1 UNK         0.0000 
     31 C31        11.5848   49.9477   16.7292 C.ar      1 UNK         0.0000 
     32 Cl32       14.8782   48.1967   15.3113 Cl        1 UNK         0.0000 
     33 C33         3.3506   53.9361   26.7074 C.3       1 UNK         0.0000 
     34 H34         1.8328   54.8177   30.4796 H         1 UNK         0.0000 
     35 H35         3.1686   55.6389   29.6826 H         1 UNK         0.0000 
     36 H36         1.7206   55.2060   28.7758 H         1 UNK         0.0000 
     37 H37         2.2027   52.7912   29.0262 H         1 UNK         0.0000 
     38 H38         3.5206   53.1071   30.1064 H         1 UNK         0.0000 
     39 H39         5.7055   53.9459   29.2800 H         1 UNK         0.0000 
     40 H40         5.1047   55.2964   28.4149 H         1 UNK         0.0000 
     41 H41         6.7736   52.9347   27.3753 H         1 UNK         0.0000 
     42 H42         7.2506   54.6227   27.4072 H         1 UNK         0.0000 
     43 H43         3.1468   54.1079   23.8315 H         1 UNK         0.0000 
     44 H44         7.4855   56.1396   22.4564 H         1 UNK         0.0000 
     45 H45         8.2733   54.6890   21.8047 H         1 UNK         0.0000 
     46 H46         8.0430   56.0964   20.7731 H         1 UNK         0.0000 
     47 H47         6.2283   54.3207   16.4263 H         1 UNK         0.0000 
     48 H48         5.8180   53.3260   17.8025 H         1 UNK         0.0000 
     49 H49         7.0729   51.4625   17.0239 H         1 UNK         0.0000 
     50 H50         9.6190   51.2455   17.7443 H         1 UNK         0.0000 
     51 H51        11.0727   50.4925   13.4064 H         1 UNK         0.0000 
     52 H52        13.1951   49.2946   13.2831 H         1 UNK         0.0000 
     53 H53        13.2806   48.9312   17.5516 H         1 UNK         0.0000 
     54 H54        11.1573   50.0977   17.7046 H         1 UNK         0.0000 
     55 H55         2.8643   54.8975   26.8503 H         1 UNK         0.0000 
     56 H56         2.5700   53.2384   26.3951 H         1 UNK         0.0000 
@<TRIPOS>BOND
     1    1    2 1    
     2    1   34 1    
     3    1   35 1    
     4    1   36 1    
     5    2    3 1    
     6    2   37 1    
     7    2   38 1    
     8    3    4 1    
     9    3   33 1    
    10    3    5 1    
    11    5    6 1    
    12    5   39 1    
    13    5   40 1    
    14    6    7 1    
    15    6   41 1    
    16    6   42 1    
    17    7   11 1    
    18    7    8 2    
    19    8    9 1    
    20    8   33 1    
    21    9   10 2    
    22    9   43 1    
    23   10   11 1    
    24   10   12 1    
    25   12   16 ar   
    26   12   13 ar   
    27   13   14 ar   
    28   14   15 ar   
    29   15   16 ar   
    30   15   18 1    
    31   16   17 1    
    32   17   44 1    
    33   17   45 1    
    34   17   46 1    
    35   18   19 1    
    36   19   20 1    
    37   19   47 1    
    38   19   48 1    
    39   20   21 2    
    40   20   22 am   BACKBONE|DICT|INTERRES
    41   22   23 1    
    42   22   49 1    
    43   23   24 am   BACKBONE|DICT|INTERRES
    44   23   50 1    
    45   24   25 2    
    46   24   26 1    
    47   26   31 ar   
    48   26   27 ar   
    49   27   28 ar   
    50   27   51 1    
    51   28   29 ar   
    52   28   52 1    
    53   29   30 ar   
    54   29   32 1    
    55   30   31 ar   
    56   30   53 1    
    57   31   54 1    
    58   33   55 1    
    59   33   56 1    
@<TRIPOS>SUBSTRUCTURE
     1 UNK         1 GROUP             0       ****    0 ROOT    
