@<TRIPOS>MOLECULE
ZINC44785405_1690
48   49    1
SMALL
USER_CHARGES


@<TRIPOS>ATOM
      1 C1          2.7050   53.6397   25.9821 C.3       1 UNK         0.0000 
      2 N2          3.3317   53.3830   27.2924 N.am      1 UNK         0.0000 
      3 C3          4.8204   53.3900   27.1525 C.3       1 UNK         0.0000 
      4 C4          5.4273   54.1306   25.9132 C.3       1 UNK         0.0000 
      5 C5          6.9515   54.0713   25.8494 C.3       1 UNK         0.0000 
      6 O6          7.5044   54.5095   27.0756 O.3       1 UNK         0.0000 
      7 C7          7.1079   53.7627   28.2089 C.3       1 UNK         0.0000 
      8 C8          5.6026   53.9268   28.3803 C.3       1 UNK         0.0000 
      9 C9          2.7183   52.8890   28.4285 C.2       1 UNK         0.0000 
     10 O10         3.3792   52.2113   29.2257 O.2       1 UNK         0.0000 
     11 C11         1.2133   53.1339   28.8751 C.3       1 UNK         0.0000 
     12 C12         0.2408   53.5629   27.7413 C.3       1 UNK         0.0000 
     13 C13        -0.2394   52.4861   26.7239 C.3       1 UNK         0.0000 
     14 C14        -1.5509   51.8088   27.1142 C.3       1 UNK         0.0000 
     15 C15        -1.3987   50.9213   28.3362 C.3       1 UNK         0.0000 
     16 C16        -0.8067   51.5544   29.6106 C.3       1 UNK         0.0000 
     17 C17         0.7146   51.7844   29.5336 C.3       1 UNK         0.0000 
     18 C18         1.1719   54.3327   29.9095 C.2       1 UNK         0.0000 
     19 N19         1.7393   55.4336   29.5745 N.2       1 UNK         0.0000 
     20 O20         1.5155   56.4982   30.4764 O.3       1 UNK         0.0000 
     21 N21         0.4443   54.0999   31.0679 N.pl3     1 UNK         0.0000 
     22 H22         1.6590   53.4728   25.8506 H         1 UNK         0.0000 
     23 H23         2.9032   54.6601   25.6569 H         1 UNK         0.0000 
     24 H24         3.1385   52.9630   25.2459 H         1 UNK         0.0000 
     25 H25         5.1041   52.3409   27.1327 H         1 UNK         0.0000 
     26 H26         5.0778   53.6983   24.9773 H         1 UNK         0.0000 
     27 H27         5.1171   55.1764   25.9193 H         1 UNK         0.0000 
     28 H28         7.2581   53.0449   25.6521 H         1 UNK         0.0000 
     29 H29         7.3346   54.6857   25.0338 H         1 UNK         0.0000 
     30 H30         7.3603   52.7083   28.0782 H         1 UNK         0.0000 
     31 H31         7.6501   54.0965   29.0921 H         1 UNK         0.0000 
     32 H32         5.3650   54.9762   28.5600 H         1 UNK         0.0000 
     33 H33         5.3576   53.3919   29.2818 H         1 UNK         0.0000 
     34 H34         0.7044   54.4272   27.2817 H         1 UNK         0.0000 
     35 H35        -0.6629   54.0072   28.1599 H         1 UNK         0.0000 
     36 H36         0.5325   51.7266   26.5864 H         1 UNK         0.0000 
     37 H37        -0.3922   52.9029   25.7307 H         1 UNK         0.0000 
     38 H38        -1.8935   51.1911   26.2820 H         1 UNK         0.0000 
     39 H39        -2.3460   52.5300   27.2777 H         1 UNK         0.0000 
     40 H40        -0.7282   50.1271   28.0030 H         1 UNK         0.0000 
     41 H41        -2.3742   50.4965   28.5712 H         1 UNK         0.0000 
     42 H42        -1.0257   50.8973   30.4535 H         1 UNK         0.0000 
     43 H43        -1.2960   52.4924   29.8469 H         1 UNK         0.0000 
     44 H44         1.1352   51.6966   30.5375 H         1 UNK         0.0000 
     45 H45         1.1350   50.9222   29.0096 H         1 UNK         0.0000 
     46 H46         2.0302   57.2137   30.0901 H         1 UNK         0.0000 
     47 H47         0.3654   54.8410   31.7484 H         1 UNK         0.0000 
     48 H48         0.0385   53.1959   31.2684 H         1 UNK         0.0000 
@<TRIPOS>BOND
     1    1    2 1    
     2    1   22 1    
     3    1   23 1    
     4    1   24 1    
     5    2    3 1    
     6    2    9 am   BACKBONE|DICT|INTERRES
     7    3    8 1    
     8    3    4 1    
     9    3   25 1    
    10    4    5 1    
    11    4   26 1    
    12    4   27 1    
    13    5    6 1    
    14    5   28 1    
    15    5   29 1    
    16    6    7 1    
    17    7    8 1    
    18    7   30 1    
    19    7   31 1    
    20    8   32 1    
    21    8   33 1    
    22    9   10 2    
    23    9   11 1    
    24   11   17 1    
    25   11   12 1    
    26   11   18 1    
    27   12   13 1    
    28   12   34 1    
    29   12   35 1    
    30   13   14 1    
    31   13   36 1    
    32   13   37 1    
    33   14   15 1    
    34   14   38 1    
    35   14   39 1    
    36   15   16 1    
    37   15   40 1    
    38   15   41 1    
    39   16   17 1    
    40   16   42 1    
    41   16   43 1    
    42   17   44 1    
    43   17   45 1    
    44   18   19 2    
    45   18   21 1    
    46   19   20 1    
    47   20   46 1    
    48   21   47 1    
    49   21   48 1    
@<TRIPOS>SUBSTRUCTURE
     1 UNK         1 GROUP             0       ****    0 ROOT    
