@<TRIPOS>MOLECULE
ZINC36660347_5709
61   64    1
SMALL
USER_CHARGES


@<TRIPOS>ATOM
      1 C1          2.0609   51.5757   19.9931 C.3       1 UNK         0.0000 
      2 N2          2.7249   51.4179   18.6088 N.4       1 UNK         0.0000 
      3 C3          1.8365   50.5611   17.6790 C.3       1 UNK         0.0000 
      4 C4          3.1528   52.7375   17.9155 C.3       1 UNK         0.0000 
      5 C5          3.8024   53.7892   18.8477 C.3       1 UNK         0.0000 
      6 C6          5.1378   53.4344   19.5364 C.3       1 UNK         0.0000 
      7 N7          5.6245   54.5051   20.4414 N.am      1 UNK         0.0000 
      8 C8          5.3757   54.3388   21.8123 C.2       1 UNK         0.0000 
      9 N9          6.2801   54.4958   22.7466 N.2       1 UNK         0.0000 
     10 C10         5.7344   54.4187   23.9877 C.ar      1 UNK         0.0000 
     11 C11         6.4475   54.5833   25.1804 C.ar      1 UNK         0.0000 
     12 C12         5.7565   54.5019   26.3911 C.ar      1 UNK         0.0000 
     13 C13         4.3807   54.2691   26.4225 C.ar      1 UNK         0.0000 
     14 C14         3.6485   54.0965   25.2461 C.ar      1 UNK         0.0000 
     15 C15         4.3381   54.1691   24.0270 C.ar      1 UNK         0.0000 
     16 S16         3.7433   54.0227   22.3805 S.3       1 UNK         0.0000 
     17 Cl17        3.5684   54.1993   27.9433 Cl        1 UNK         0.0000 
     18 C18         6.1970   55.6767   20.0027 C.2       1 UNK         0.0000 
     19 O19         6.4328   56.6260   20.7634 O.2       1 UNK         0.0000 
     20 C20         6.5083   55.8919   18.4931 C.3       1 UNK         0.0000 
     21 H21         6.5675   54.9262   17.9987 H         1 UNK         0.0000 
     22 C22         5.4897   56.8448   17.8200 C.3       1 UNK         0.0000 
     23 C23         6.2977   57.9239   17.1214 C.3       1 UNK         0.0000 
     24 C24         7.5678   58.0331   17.9466 C.3       1 UNK         0.0000 
     25 N25         7.8071   56.6244   18.3525 N.pl3     1 UNK         0.0000 
     26 S26         9.2114   55.7534   17.7308 S.o2      1 UNK         0.0000 
     27 O27        10.3366   56.6932   17.6748 O.2       1 UNK         0.0000 
     28 O28         9.3131   54.4969   18.4806 O.2       1 UNK         0.0000 
     29 C29         8.7843   55.3282   16.0440 C.ar      1 UNK         0.0000 
     30 C30         8.2397   54.0728   15.7590 C.ar      1 UNK         0.0000 
     31 C31         7.8918   53.7535   14.4496 C.ar      1 UNK         0.0000 
     32 C32         8.0893   54.6868   13.4344 C.ar      1 UNK         0.0000 
     33 C33         8.6348   55.9375   13.7158 C.ar      1 UNK         0.0000 
     34 C34         8.9855   56.2608   15.0241 C.ar      1 UNK         0.0000 
     35 F35         7.7477   54.3761   12.1638 F         1 UNK         0.0000 
     36 H36         1.2229   52.2681   19.8887 H         1 UNK         0.0000 
     37 H37         1.7303   50.5888   20.3220 H         1 UNK         0.0000 
     38 H38         2.8160   51.9576   20.6760 H         1 UNK         0.0000 
     39 H39         0.8568   51.0373   17.6115 H         1 UNK         0.0000 
     40 H40         2.3059   50.5010   16.6964 H         1 UNK         0.0000 
     41 H41         1.7704   49.5653   18.1215 H         1 UNK         0.0000 
     42 H42         2.2397   53.1426   17.4745 H         1 UNK         0.0000 
     43 H43         3.8307   52.4285   17.1161 H         1 UNK         0.0000 
     44 H44         3.1043   54.0944   19.6145 H         1 UNK         0.0000 
     45 H45         3.9410   54.6793   18.2421 H         1 UNK         0.0000 
     46 H46         5.8953   53.1448   18.8077 H         1 UNK         0.0000 
     47 H47         4.9946   52.5200   20.1138 H         1 UNK         0.0000 
     48 H48         7.5043   54.7741   25.1491 H         1 UNK         0.0000 
     49 H49         6.2935   54.6303   27.3214 H         1 UNK         0.0000 
     50 H50         2.5840   53.9142   25.2783 H         1 UNK         0.0000 
     51 H51         4.8870   56.3226   17.0767 H         1 UNK         0.0000 
     52 H52         4.7961   57.2967   18.5306 H         1 UNK         0.0000 
     53 H53         6.5398   57.6242   16.1004 H         1 UNK         0.0000 
     54 H54         5.7656   58.8758   17.0581 H         1 UNK         0.0000 
     55 H55         8.4346   58.5224   17.5007 H         1 UNK         0.0000 
     56 H56         7.3629   58.6274   18.8392 H         1 UNK         0.0000 
     57 H57         8.0865   53.3454   16.5439 H         1 UNK         0.0000 
     58 H58         7.4717   52.7857   14.2186 H         1 UNK         0.0000 
     59 H59         8.7840   56.6515   12.9198 H         1 UNK         0.0000 
     60 H60         9.4067   57.2318   15.2434 H         1 UNK         0.0000 
     61 H61         3.5977   50.8964   18.7161 H         1 UNK         0.0000 
@<TRIPOS>BOND
     1    1    2 1    
     2    1   36 1    
     3    1   37 1    
     4    1   38 1    
     5    2    3 1    
     6    2    4 1    
     7    2   61 1    
     8    3   39 1    
     9    3   40 1    
    10    3   41 1    
    11    4    5 1    
    12    4   42 1    
    13    4   43 1    
    14    5    6 1    
    15    5   44 1    
    16    5   45 1    
    17    6    7 1    
    18    6   46 1    
    19    6   47 1    
    20    7    8 am   BACKBONE|DICT|INTERRES
    21    7   18 am   BACKBONE|DICT|INTERRES
    22    8   16 1    
    23    8    9 2    
    24    9   10 1    
    25   10   15 ar   
    26   10   11 ar   
    27   11   12 ar   
    28   11   48 1    
    29   12   13 ar   
    30   12   49 1    
    31   13   14 ar   
    32   13   17 1    
    33   14   15 ar   
    34   14   50 1    
    35   15   16 1    
    36   18   19 2    
    37   18   20 1    
    38   20   21 1    
    39   20   25 1    
    40   20   22 1    
    41   22   23 1    
    42   22   51 1    
    43   22   52 1    
    44   23   24 1    
    45   23   53 1    
    46   23   54 1    
    47   24   25 1    
    48   24   55 1    
    49   24   56 1    
    50   25   26 1    
    51   26   27 2    
    52   26   28 2    
    53   26   29 1    
    54   29   34 ar   
    55   29   30 ar   
    56   30   31 ar   
    57   30   57 1    
    58   31   32 ar   
    59   31   58 1    
    60   32   33 ar   
    61   32   35 1    
    62   33   34 ar   
    63   33   59 1    
    64   34   60 1    
@<TRIPOS>SUBSTRUCTURE
     1 UNK         1 GROUP             0       ****    0 ROOT    
