ZINC58826712_5972
                    3D
 Schrodinger Suite 2024-2.
 55 59  0  0  1  0            999 V2000
   -0.0847   46.7047   18.4374 C   0  0  0  0  0  0
   -0.2427   47.8777   19.1727 C   0  0  0  0  0  0
   -0.8437   47.8423   20.4333 C   0  0  0  0  0  0
   -1.2962   46.6205   20.9438 C   0  0  0  0  0  0
   -1.0856   45.4196   20.2439 C   0  0  0  0  0  0
   -0.4933   45.4837   18.9725 C   0  0  0  0  0  0
   -1.3993   44.0968   20.8802 C   0  0  0  0  0  0
   -2.0971   44.0902   21.9234 O   0  0  0  0  0  0
   -0.8955   43.0635   20.3737 O   0  5  0  0  0  0
   -0.9152   49.0693   21.2711 C   0  0  0  0  0  0
   -1.8686   49.6093   22.1219 C   0  0  0  0  0  0
   -1.2881   50.7308   22.7215 C   0  0  0  0  0  0
    0.0065   50.8360   22.2261 C   0  0  0  0  0  0
    0.2053   49.8392   21.3218 O   0  0  0  0  0  0
    1.1507   51.6857   22.5230 C   0  0  0  0  0  0
    1.1228   52.5297   23.4795 N   0  0  0  0  0  0
    2.2698   53.1778   23.8637 C   0  0  0  0  0  0
    2.6485   53.5482   25.1760 C   0  0  0  0  0  0
    3.9726   54.0793   25.2277 C   0  0  0  0  0  0
    4.5399   54.2168   23.9545 C   0  0  0  0  0  0
    3.4773   53.6977   22.7016 S   0  0  0  0  0  0
    5.9599   54.6804   23.6683 C   0  0  0  0  0  0
    6.4865   55.4438   24.8973 C   0  0  0  0  0  0
    6.2782   54.6258   26.1824 C   0  0  0  0  0  0
    4.7815   54.4030   26.4969 C   0  0  0  0  0  0
    1.8316   53.2624   26.3473 C   0  0  0  0  0  0
    1.1054   52.2708   26.4214 O   0  0  0  0  0  0
    1.9046   54.1808   27.3217 N   0  0  0  0  0  0
    1.1328   54.1716   28.5642 C   0  0  0  0  0  0
    1.7850   53.3550   29.6614 C   0  0  0  0  0  0
    1.2864   52.6318   30.7362 C   0  0  0  0  0  0
    2.3842   52.0967   31.4073 C   0  0  0  0  0  0
    3.5044   52.4720   30.6891 C   0  0  0  0  0  0
    3.1433   53.2570   29.6457 O   0  0  0  0  0  0
    0.3870   46.7383   17.4657 H   0  0  0  0  0  0
    0.1201   48.8115   18.7673 H   0  0  0  0  0  0
   -1.7282   46.5959   21.9353 H   0  0  0  0  0  0
   -0.3179   44.5812   18.4033 H   0  0  0  0  0  0
   -2.8560   49.2153   22.3106 H   0  0  0  0  0  0
   -1.7372   51.3690   23.4689 H   0  0  0  0  0  0
    2.0183   51.4742   21.9024 H   0  0  0  0  0  0
    6.5966   53.8150   23.4786 H   0  0  0  0  0  0
    6.0130   55.2970   22.7716 H   0  0  0  0  0  0
    7.5404   55.6733   24.7579 H   0  0  0  0  0  0
    5.9803   56.4064   24.9839 H   0  0  0  0  0  0
    6.7763   53.6596   26.0806 H   0  0  0  0  0  0
    6.7571   55.1213   27.0286 H   0  0  0  0  0  0
    4.3841   55.2969   26.9723 H   0  0  0  0  0  0
    4.6850   53.6043   27.2348 H   0  0  0  0  0  0
    2.5669   54.9316   27.2094 H   0  0  0  0  0  0
    0.1041   53.8519   28.3838 H   0  0  0  0  0  0
    1.0540   55.2083   28.8928 H   0  0  0  0  0  0
    0.2474   52.5144   31.0148 H   0  0  0  0  0  0
    2.3572   51.4969   32.3072 H   0  0  0  0  0  0
    4.5611   52.2816   30.8021 H   0  0  0  0  0  0
  1  6  2  0  0  0
  1  2  1  0  0  0
  1 35  1  0  0  0
  2  3  2  0  0  0
  2 36  1  0  0  0
  3  4  1  0  0  0
  3 10  1  0  0  0
  4  5  2  0  0  0
  4 37  1  0  0  0
  5  6  1  0  0  0
  5  7  1  0  0  0
  6 38  1  0  0  0
  7  8  2  0  0  0
  7  9  1  0  0  0
 10 14  1  0  0  0
 10 11  2  0  0  0
 11 12  1  0  0  0
 11 39  1  0  0  0
 12 13  2  0  0  0
 12 40  1  0  0  0
 13 14  1  0  0  0
 13 15  1  0  0  0
 15 16  2  0  0  0
 15 41  1  0  0  0
 16 17  1  0  0  0
 17 21  1  0  0  0
 17 18  2  0  0  0
 18 19  1  0  0  0
 18 26  1  0  0  0
 19 25  1  0  0  0
 19 20  2  0  0  0
 20 21  1  0  0  0
 20 22  1  0  0  0
 22 23  1  0  0  0
 22 42  1  0  0  0
 22 43  1  0  0  0
 23 24  1  0  0  0
 23 44  1  0  0  0
 23 45  1  0  0  0
 24 25  1  0  0  0
 24 46  1  0  0  0
 24 47  1  0  0  0
 25 48  1  0  0  0
 25 49  1  0  0  0
 26 27  2  0  0  0
 26 28  1  0  0  0
 28 29  1  0  0  0
 28 50  1  0  0  0
 29 30  1  0  0  0
 29 51  1  0  0  0
 29 52  1  0  0  0
 30 34  1  0  0  0
 30 31  2  0  0  0
 31 32  1  0  0  0
 31 53  1  0  0  0
 32 33  2  0  0  0
 32 54  1  0  0  0
 33 34  1  0  0  0
 33 55  1  0  0  0
M  CHG  1   9  -1
M  END
> <i_i_glide_confnum>
213

> <i_i_glide_lignum>
5973

> <i_i_glide_posenum>
307

> <i_i_glide_rotatable_bonds>
8

> <i_m_Source_File_Index>
3723

> <b_m_subgroup_collapsed>
0

> <r_i_docking_score>
-6.22103

> <r_i_glide_ecoul>
-8.07314

> <r_i_glide_eff_state_penalty>
0

> <r_i_glide_einternal>
12.2776

> <r_i_glide_emodel>
-65.6774

> <r_i_glide_energy>
-46.977

> <r_i_glide_erotb>
0.541288

> <r_i_glide_esite>
-0.0520127

> <r_i_glide_evdw>
-38.9038

> <r_i_glide_gscore>
-6.22103

> <r_i_glide_hbond>
-0.399591

> <r_i_glide_ligand_efficiency>
-0.182971

> <r_i_glide_ligand_efficiency_ln>
-1.3744

> <r_i_glide_ligand_efficiency_sa>
-0.592757

> <r_i_glide_lipo>
-2.66854

> <r_i_glide_metal>
0

> <r_i_glide_rewards>
-0.486009

> <s_i_glide_gridfile>
wee1_glide-grid

> <s_m_Source_File>
wee1_decoys_glide_SP.sdf

> <s_m_Source_Path>
/Users/zhangxujun/Desktop

> <s_m_entry_id>
3998

> <s_m_entry_name>
wee1_decoys_glide_SP.3723

> <s_m_subgroup_title>
wee1_decoys_glide_SP

> <s_m_subgroupid>
wee1_decoys_glide_SP


$$$$
