ZINC24028573_2076
                    3D
 Schrodinger Suite 2024-2.
 55 58  0  0  1  0            999 V2000
    6.5418   56.7743   13.3916 C   0  0  0  0  0  0
    5.3978   56.0472   13.7164 C   0  0  0  0  0  0
    4.9813   55.9728   15.0427 C   0  0  0  0  0  0
    5.7108   56.6301   16.0363 C   0  0  0  0  0  0
    6.8588   57.3568   15.7085 C   0  0  0  0  0  0
    7.2731   57.4295   14.3812 C   0  0  0  0  0  0
    5.1856   56.4999   17.7415 S   0  0  0  0  0  0
    3.7224   56.3975   17.7158 O   0  0  0  0  0  0
    5.8753   57.5668   18.4793 O   0  0  0  0  0  0
    5.8614   54.9390   18.2587 N   0  0  0  0  0  0
    4.9232   53.8033   18.4704 C   0  0  0  0  0  0
    4.2278   53.8633   19.8557 C   0  0  0  0  0  0
    5.2951   54.0490   20.9771 C   0  0  0  0  0  0
    6.3139   55.2001   20.6944 C   0  0  0  0  0  0
    6.9237   55.0049   19.2869 C   0  0  0  0  0  0
    4.7282   54.1053   22.4168 C   0  0  0  0  0  0
    3.5214   53.9742   22.6183 O   0  0  0  0  0  0
    5.6581   54.2391   23.3901 N   0  0  0  0  0  0
    5.5253   54.3203   24.7879 C   0  0  0  0  0  0
    6.6984   54.6046   25.4905 C   0  0  0  0  0  0
    6.6946   54.6491   26.8835 C   0  0  0  0  0  0
    5.5213   54.3973   27.5902 C   0  0  0  0  0  0
    4.3316   54.1077   26.9034 C   0  0  0  0  0  0
    4.3374   54.0965   25.5030 C   0  0  0  0  0  0
    3.1169   53.7570   27.5218 N   0  0  0  0  0  0
    2.7930   53.6948   28.8327 C   0  0  0  0  0  0
    3.4877   54.1041   29.7654 O   0  0  0  0  0  0
    1.5197   53.0553   29.0759 C   0  0  0  0  0  0
    0.7713   52.2260   28.2290 C   0  0  0  0  0  0
   -0.3683   51.6964   28.8418 C   0  0  0  0  0  0
   -0.4954   52.0961   30.1616 C   0  0  0  0  0  0
    0.7859   53.1468   30.6572 S   0  0  0  0  0  0
    6.8658   56.8295   12.3621 H   0  0  0  0  0  0
    4.8372   55.5422   12.9431 H   0  0  0  0  0  0
    4.0963   55.4065   15.2971 H   0  0  0  0  0  0
    7.4263   57.8665   16.4743 H   0  0  0  0  0  0
    8.1583   57.9914   14.1209 H   0  0  0  0  0  0
    5.5245   52.8923   18.4650 H   0  0  0  0  0  0
    4.2530   53.7097   17.6155 H   0  0  0  0  0  0
    3.6964   52.9176   19.9753 H   0  0  0  0  0  0
    3.5124   54.6884   19.8233 H   0  0  0  0  0  0
    5.9040   53.1484   21.0217 H   0  0  0  0  0  0
    5.8247   56.1755   20.7040 H   0  0  0  0  0  0
    7.1593   55.1869   21.3839 H   0  0  0  0  0  0
    7.4387   54.0455   19.2802 H   0  0  0  0  0  0
    7.6759   55.7385   18.9942 H   0  0  0  0  0  0
    6.6083   54.3317   23.0672 H   0  0  0  0  0  0
    7.6193   54.7805   24.9536 H   0  0  0  0  0  0
    7.6005   54.8623   27.4295 H   0  0  0  0  0  0
    5.5729   54.4145   28.6674 H   0  0  0  0  0  0
    3.4232   53.8550   24.9840 H   0  0  0  0  0  0
    2.4055   53.4392   26.8835 H   0  0  0  0  0  0
    1.0439   51.9841   27.2117 H   0  0  0  0  0  0
   -1.0540   51.0149   28.3552 H   0  0  0  0  0  0
   -1.2475   51.7890   30.8787 H   0  0  0  0  0  0
  1  6  2  0  0  0
  1  2  1  0  0  0
  1 33  1  0  0  0
  2  3  2  0  0  0
  2 34  1  0  0  0
  3  4  1  0  0  0
  3 35  1  0  0  0
  4  5  2  0  0  0
  4  7  1  0  0  0
  5  6  1  0  0  0
  5 36  1  0  0  0
  6 37  1  0  0  0
  7  8  2  0  0  0
  7  9  2  0  0  0
  7 10  1  0  0  0
 10 15  1  0  0  0
 10 11  1  0  0  0
 11 12  1  0  0  0
 11 38  1  0  0  0
 11 39  1  0  0  0
 12 13  1  0  0  0
 12 40  1  0  0  0
 12 41  1  0  0  0
 13 14  1  0  0  0
 13 16  1  0  0  0
 13 42  1  0  0  0
 14 15  1  0  0  0
 14 43  1  0  0  0
 14 44  1  0  0  0
 15 45  1  0  0  0
 15 46  1  0  0  0
 16 17  2  0  0  0
 16 18  1  0  0  0
 18 19  1  0  0  0
 18 47  1  0  0  0
 19 24  2  0  0  0
 19 20  1  0  0  0
 20 21  2  0  0  0
 20 48  1  0  0  0
 21 22  1  0  0  0
 21 49  1  0  0  0
 22 23  2  0  0  0
 22 50  1  0  0  0
 23 24  1  0  0  0
 23 25  1  0  0  0
 24 51  1  0  0  0
 25 26  1  0  0  0
 25 52  1  0  0  0
 26 27  2  0  0  0
 26 28  1  0  0  0
 28 32  1  0  0  0
 28 29  2  0  0  0
 29 30  1  0  0  0
 29 53  1  0  0  0
 30 31  2  0  0  0
 30 54  1  0  0  0
 31 32  1  0  0  0
 31 55  1  0  0  0
M  END
> <i_i_glide_confnum>
76

> <i_i_glide_lignum>
2077

> <i_i_glide_posenum>
370

> <i_i_glide_rotatable_bonds>
8

> <i_m_Source_File_Index>
1988

> <b_m_subgroup_collapsed>
0

> <r_i_docking_score>
-5.39296

> <r_i_glide_ecoul>
-3.58663

> <r_i_glide_eff_state_penalty>
0

> <r_i_glide_einternal>
3.81392

> <r_i_glide_emodel>
-66.3965

> <r_i_glide_energy>
-50.5185

> <r_i_glide_erotb>
0.732815

> <r_i_glide_esite>
-0.00991741

> <r_i_glide_evdw>
-46.9319

> <r_i_glide_gscore>
-5.39296

> <r_i_glide_hbond>
-0.24893

> <r_i_glide_ligand_efficiency>
-0.16853

> <r_i_glide_ligand_efficiency_ln>
-1.20763

> <r_i_glide_ligand_efficiency_sa>
-0.535049

> <r_i_glide_lipo>
-2.2442

> <r_i_glide_metal>
0

> <r_i_glide_rewards>
-0.738139

> <s_i_glide_gridfile>
wee1_glide-grid

> <s_m_Source_File>
wee1_decoys_glide_SP.sdf

> <s_m_Source_Path>
/Users/zhangxujun/Desktop

> <s_m_entry_id>
2263

> <s_m_entry_name>
wee1_decoys_glide_SP.1988

> <s_m_subgroup_title>
wee1_decoys_glide_SP

> <s_m_subgroupid>
wee1_decoys_glide_SP


$$$$
