@<TRIPOS>MOLECULE
ZINC35300569_5500
58   60    1
SMALL
USER_CHARGES


@<TRIPOS>ATOM
      1 C1          7.2187   58.8678   16.6888 C.3       1 UNK         0.0000 
      2 C2          6.6772   57.9660   17.8117 C.3       1 UNK         0.0000 
      3 C3          7.0817   56.4725   17.6667 C.3       1 UNK         0.0000 
      4 H4          6.8744   56.2085   16.6276 H         1 UNK         0.0000 
      5 C5          8.6066   56.2769   17.8254 C.3       1 UNK         0.0000 
      6 C6          6.2266   55.4641   18.5164 C.3       1 UNK         0.0000 
      7 H7          6.6131   54.4675   18.2924 H         1 UNK         0.0000 
      8 C8          6.3929   55.6122   20.0574 C.2       1 UNK         0.0000 
      9 O9          7.1050   56.4971   20.5312 O.2       1 UNK         0.0000 
     10 N10         5.7065   54.7181   20.8039 N.am      1 UNK         0.0000 
     11 C11         5.7319   54.6439   22.1890 C.2       1 UNK         0.0000 
     12 N12         6.7051   55.0056   22.9987 N.2       1 UNK         0.0000 
     13 N13         6.3596   54.8668   24.3389 N.2       1 UNK         0.0000 
     14 C14         5.1414   54.4013   24.5159 C.2       1 UNK         0.0000 
     15 S15         4.3048   54.0953   23.0091 S.3       1 UNK         0.0000 
     16 C16         4.5205   54.0971   25.8525 C.ar      1 UNK         0.0000 
     17 C17         5.3085   54.0526   27.0068 C.ar      1 UNK         0.0000 
     18 C18         4.7537   53.6909   28.2322 C.ar      1 UNK         0.0000 
     19 C19         3.3932   53.3618   28.3479 C.ar      1 UNK         0.0000 
     20 C20         2.6008   53.4639   27.1942 C.ar      1 UNK         0.0000 
     21 C21         3.1536   53.8235   25.9682 C.ar      1 UNK         0.0000 
     22 N22         2.8399   52.9300   29.5897 N.pl3     1 UNK         0.0000 
     23 C23         1.4523   52.4709   29.6649 C.3       1 UNK         0.0000 
     24 C24         3.7272   52.5291   30.6824 C.3       1 UNK         0.0000 
     25 N25         4.8111   55.5100   18.1261 N.am      1 UNK         0.0000 
     26 C26         4.2088   54.6952   17.2409 C.2       1 UNK         0.0000 
     27 O27         4.7789   53.7701   16.6650 O.2       1 UNK         0.0000 
     28 C28         2.7417   54.9606   17.0234 C.ar      1 UNK         0.0000 
     29 C29         1.8397   53.8885   16.9925 C.ar      1 UNK         0.0000 
     30 C30         0.4696   54.1315   16.9066 C.ar      1 UNK         0.0000 
     31 C31         0.0006   55.4417   16.8343 C.ar      1 UNK         0.0000 
     32 C32         0.8929   56.5098   16.7918 C.ar      1 UNK         0.0000 
     33 C33         2.2620   56.2708   16.8812 C.ar      1 UNK         0.0000 
     34 Br34       -1.8729   55.7769   16.8409 Br        1 UNK         0.0000 
     35 H35         6.5381   59.6940   16.4809 H         1 UNK         0.0000 
     36 H36         8.1790   59.3040   16.9659 H         1 UNK         0.0000 
     37 H37         7.3596   58.3215   15.7565 H         1 UNK         0.0000 
     38 H38         5.5916   58.0624   17.8282 H         1 UNK         0.0000 
     39 H39         7.0199   58.3588   18.7681 H         1 UNK         0.0000 
     40 H40         8.9708   56.5966   18.8030 H         1 UNK         0.0000 
     41 H41         8.8843   55.2304   17.6957 H         1 UNK         0.0000 
     42 H42         9.1565   56.8486   17.0768 H         1 UNK         0.0000 
     43 H43         5.0872   54.0837   20.3210 H         1 UNK         0.0000 
     44 H44         6.3658   54.2721   26.9595 H         1 UNK         0.0000 
     45 H45         5.4128   53.6581   29.0846 H         1 UNK         0.0000 
     46 H46         1.5471   53.2356   27.2112 H         1 UNK         0.0000 
     47 H47         2.5023   53.8634   25.1098 H         1 UNK         0.0000 
     48 H48         0.7669   53.2039   29.2379 H         1 UNK         0.0000 
     49 H49         1.3306   51.5425   29.1051 H         1 UNK         0.0000 
     50 H50         1.1344   52.2860   30.6928 H         1 UNK         0.0000 
     51 H51         4.3039   53.3838   31.0279 H         1 UNK         0.0000 
     52 H52         3.1805   52.1285   31.5380 H         1 UNK         0.0000 
     53 H53         4.4287   51.7625   30.3477 H         1 UNK         0.0000 
     54 H54         4.2618   56.2322   18.5665 H         1 UNK         0.0000 
     55 H55         2.1945   52.8692   17.0791 H         1 UNK         0.0000 
     56 H56        -0.2241   53.3033   16.9202 H         1 UNK         0.0000 
     57 H57         0.5271   57.5243   16.7259 H         1 UNK         0.0000 
     58 H58         2.9386   57.1148   16.8726 H         1 UNK         0.0000 
@<TRIPOS>BOND
     1    1    2 1    
     2    1   35 1    
     3    1   36 1    
     4    1   37 1    
     5    2    3 1    
     6    2   38 1    
     7    2   39 1    
     8    3    4 1    
     9    3    5 1    
    10    3    6 1    
    11    5   40 1    
    12    5   41 1    
    13    5   42 1    
    14    6    7 1    
    15    6    8 1    
    16    6   25 1    
    17    8    9 2    
    18    8   10 am   BACKBONE|DICT|INTERRES
    19   10   11 am   BACKBONE|DICT|INTERRES
    20   10   43 1    
    21   11   15 1    
    22   11   12 2    
    23   12   13 1    
    24   13   14 2    
    25   14   15 1    
    26   14   16 1    
    27   16   21 ar   
    28   16   17 ar   
    29   17   18 ar   
    30   17   44 1    
    31   18   19 ar   
    32   18   45 1    
    33   19   20 ar   
    34   19   22 1    
    35   20   21 ar   
    36   20   46 1    
    37   21   47 1    
    38   22   23 1    
    39   22   24 1    
    40   23   48 1    
    41   23   49 1    
    42   23   50 1    
    43   24   51 1    
    44   24   52 1    
    45   24   53 1    
    46   25   26 am   BACKBONE|DICT|INTERRES
    47   25   54 1    
    48   26   27 2    
    49   26   28 1    
    50   28   33 ar   
    51   28   29 ar   
    52   29   30 ar   
    53   29   55 1    
    54   30   31 ar   
    55   30   56 1    
    56   31   32 ar   
    57   31   34 1    
    58   32   33 ar   
    59   32   57 1    
    60   33   58 1    
@<TRIPOS>SUBSTRUCTURE
     1 UNK         1 GROUP             0       ****    0 ROOT    
