@<TRIPOS>MOLECULE
ZINC12973815_3130
60   63    1
SMALL
USER_CHARGES


@<TRIPOS>ATOM
      1 C1          6.1240   54.8923   25.5871 C.ar      1 UNK         0.0000 
      2 C2          6.1483   54.8968   26.9787 C.ar      1 UNK         0.0000 
      3 C3          5.0200   54.4978   27.6905 C.ar      1 UNK         0.0000 
      4 C4          3.8662   54.0562   27.0239 C.ar      1 UNK         0.0000 
      5 C5          3.8536   54.0876   25.6208 C.ar      1 UNK         0.0000 
      6 C6          4.9768   54.4966   24.9062 C.ar      1 UNK         0.0000 
      7 C7          2.6315   53.5461   27.8063 C.3       1 UNK         0.0000 
      8 H8          2.0379   54.4498   27.9677 H         1 UNK         0.0000 
      9 C9          2.8960   52.9474   29.1872 C.2       1 UNK         0.0000 
     10 C10         4.0321   52.3288   29.7136 C.2       1 UNK         0.0000 
     11 C11         3.9041   51.9166   31.0391 C.2       1 UNK         0.0000 
     12 C12         2.6267   52.0967   31.5209 C.2       1 UNK         0.0000 
     13 S13         1.6196   52.8968   30.3821 S.3       1 UNK         0.0000 
     14 N14         1.8049   52.5923   27.0494 N.am      1 UNK         0.0000 
     15 C15         0.4621   52.4973   27.1086 C.2       1 UNK         0.0000 
     16 O16        -0.2088   53.2200   27.8458 O.2       1 UNK         0.0000 
     17 C17        -0.2045   51.4063   26.2401 C.3       1 UNK         0.0000 
     18 N18        -1.3653   51.9479   25.5027 N.3       1 UNK         0.0000 
     19 C19        -1.5913   51.1949   24.2520 C.3       1 UNK         0.0000 
     20 C20        -2.7436   51.8320   23.4405 C.3       1 UNK         0.0000 
     21 N21        -3.9618   51.9801   24.2667 N.pl3     1 UNK         0.0000 
     22 C22        -3.7235   52.6893   25.5369 C.3       1 UNK         0.0000 
     23 C23        -2.5958   51.9907   26.3272 C.3       1 UNK         0.0000 
     24 S24        -5.3515   50.8948   24.0847 S.o2      1 UNK         0.0000 
     25 O25        -6.5442   51.6320   24.5176 O.2       1 UNK         0.0000 
     26 O26        -5.2837   50.2773   22.7553 O.2       1 UNK         0.0000 
     27 C27        -5.0980   49.5806   25.2763 C.ar      1 UNK         0.0000 
     28 C28        -4.0920   48.6423   25.0524 C.ar      1 UNK         0.0000 
     29 C29        -3.8790   47.6230   25.9738 C.ar      1 UNK         0.0000 
     30 C30        -4.6974   47.5110   27.1068 C.ar      1 UNK         0.0000 
     31 C31        -5.7170   48.4456   27.3174 C.ar      1 UNK         0.0000 
     32 C32        -5.9068   49.4877   26.4126 C.ar      1 UNK         0.0000 
     33 C33        -4.5065   46.3698   28.0680 C.2       1 UNK         0.0000 
     34 O34        -5.4488   45.6967   28.4816 O.2       1 UNK         0.0000 
     35 N35        -3.2503   46.0967   28.4013 N.am      1 UNK         0.0000 
     36 H36         6.9947   55.2042   25.0286 H         1 UNK         0.0000 
     37 H37         7.0301   55.2191   27.5142 H         1 UNK         0.0000 
     38 H38         5.0600   54.5419   28.7684 H         1 UNK         0.0000 
     39 H39         2.9761   53.7795   25.0709 H         1 UNK         0.0000 
     40 H40         4.9576   54.5021   23.8259 H         1 UNK         0.0000 
     41 H41         4.9472   52.2017   29.1531 H         1 UNK         0.0000 
     42 H42         4.7020   51.4575   31.6045 H         1 UNK         0.0000 
     43 H43         2.2249   51.8215   32.4816 H         1 UNK         0.0000 
     44 H44         2.3031   51.7930   26.6921 H         1 UNK         0.0000 
     45 H45         0.5456   51.0186   25.5475 H         1 UNK         0.0000 
     46 H46        -0.4871   50.5629   26.8751 H         1 UNK         0.0000 
     47 H47        -0.6883   51.1430   23.6422 H         1 UNK         0.0000 
     48 H48        -1.8785   50.1957   24.5783 H         1 UNK         0.0000 
     49 H49        -2.9776   51.2135   22.5748 H         1 UNK         0.0000 
     50 H50        -2.4578   52.8141   23.0649 H         1 UNK         0.0000 
     51 H51        -4.6484   52.6736   26.1140 H         1 UNK         0.0000 
     52 H52        -3.4862   53.7324   25.3330 H         1 UNK         0.0000 
     53 H53        -2.8646   50.9501   26.5208 H         1 UNK         0.0000 
     54 H54        -2.4504   52.4946   27.2810 H         1 UNK         0.0000 
     55 H55        -3.4758   48.7011   24.1678 H         1 UNK         0.0000 
     56 H56        -3.0862   46.9112   25.7916 H         1 UNK         0.0000 
     57 H57        -6.3600   48.3733   28.1837 H         1 UNK         0.0000 
     58 H58        -6.6943   50.2058   26.5905 H         1 UNK         0.0000 
     59 H59        -2.5373   46.8225   28.3225 H         1 UNK         0.0000 
     60 H60        -3.0229   45.2037   28.8418 H         1 UNK         0.0000 
@<TRIPOS>BOND
     1    1    6 ar   
     2    1    2 ar   
     3    1   36 1    
     4    2    3 ar   
     5    2   37 1    
     6    3    4 ar   
     7    3   38 1    
     8    4    5 ar   
     9    4    7 1    
    10    5    6 ar   
    11    5   39 1    
    12    6   40 1    
    13    7    8 1    
    14    7    9 1    
    15    7   14 1    
    16    9   13 1    
    17    9   10 2    
    18   10   11 1    
    19   10   41 1    
    20   11   12 2    
    21   11   42 1    
    22   12   13 1    
    23   12   43 1    
    24   14   15 am   BACKBONE|DICT|INTERRES
    25   14   44 1    
    26   15   16 2    
    27   15   17 1    
    28   17   18 1    
    29   17   45 1    
    30   17   46 1    
    31   18   23 1    
    32   18   19 1    
    33   19   20 1    
    34   19   47 1    
    35   19   48 1    
    36   20   21 1    
    37   20   49 1    
    38   20   50 1    
    39   21   22 1    
    40   21   24 1    
    41   22   23 1    
    42   22   51 1    
    43   22   52 1    
    44   23   53 1    
    45   23   54 1    
    46   24   25 2    
    47   24   26 2    
    48   24   27 1    
    49   27   32 ar   
    50   27   28 ar   
    51   28   29 ar   
    52   28   55 1    
    53   29   30 ar   
    54   29   56 1    
    55   30   31 ar   
    56   30   33 1    
    57   31   32 ar   
    58   31   57 1    
    59   32   58 1    
    60   33   34 2    
    61   33   35 am   BACKBONE|DICT|INTERRES
    62   35   59 1    
    63   35   60 1    
@<TRIPOS>SUBSTRUCTURE
     1 UNK         1 GROUP             0       ****    0 ROOT    
