@<TRIPOS>MOLECULE
ZINC54201083_958
49   51    1
SMALL
USER_CHARGES


@<TRIPOS>ATOM
      1 C1          1.8714   53.6733   25.2831 C.ar      1 UNK         0.0000 
      2 C2          1.5038   52.3339   25.2841 C.ar      1 UNK         0.0000 
      3 C3          1.3569   51.6561   24.0766 C.ar      1 UNK         0.0000 
      4 C4          1.4915   52.3340   22.8622 C.ar      1 UNK         0.0000 
      5 C5          1.8050   53.6961   22.8824 C.ar      1 UNK         0.0000 
      6 C6          2.0250   54.3564   24.0820 C.ar      1 UNK         0.0000 
      7 C7          1.2898   51.5697   21.5409 C.3       1 UNK         0.0000 
      8 H8          1.4672   50.5136   21.7565 H         1 UNK         0.0000 
      9 C9          2.2074   51.9634   20.3397 C.3       1 UNK         0.0000 
     10 C10         3.6497   52.3461   20.6982 C.2       1 UNK         0.0000 
     11 O11         4.3757   51.5417   21.2818 O.2       1 UNK         0.0000 
     12 N12         4.0103   53.6029   20.3668 N.am      1 UNK         0.0000 
     13 C13         5.1475   54.3080   20.7895 C.ar      1 UNK         0.0000 
     14 C14         5.5838   54.1890   22.1195 C.ar      1 UNK         0.0000 
     15 C15         6.7045   54.8847   22.5627 C.ar      1 UNK         0.0000 
     16 C16         7.4105   55.6951   21.6812 C.ar      1 UNK         0.0000 
     17 C17         6.9727   55.8428   20.3677 C.ar      1 UNK         0.0000 
     18 C18         5.8238   55.1802   19.9020 C.ar      1 UNK         0.0000 
     19 N19         5.3661   55.4388   18.5084 N.pl3     1 UNK         0.0000 
     20 O20         6.1792   55.8935   17.7089 O.co2     1 UNK         0.0000 
     21 O21         4.1927   55.2359   18.2091 O.co2     1 UNK         0.0000 
     22 N22        -0.1198   51.7165   21.1137 N.pl3     1 UNK         0.0000 
     23 S23        -1.3692   50.5587   21.5539 S.o2      1 UNK         0.0000 
     24 O24        -2.5943   50.9861   20.8693 O.2       1 UNK         0.0000 
     25 O25        -0.8260   49.2069   21.3777 O.2       1 UNK         0.0000 
     26 C26        -1.6585   50.8164   23.3002 C.ar      1 UNK         0.0000 
     27 C27        -1.4310   49.7884   24.2214 C.ar      1 UNK         0.0000 
     28 C28        -1.5616   50.0453   25.5847 C.ar      1 UNK         0.0000 
     29 C29        -1.9359   51.3158   26.0154 C.ar      1 UNK         0.0000 
     30 C30        -2.2139   52.3235   25.0960 C.ar      1 UNK         0.0000 
     31 C31        -2.0727   52.0774   23.7343 C.ar      1 UNK         0.0000 
     32 Br32       -2.0359   51.6959   27.8759 Br        1 UNK         0.0000 
     33 H33         2.0291   54.1787   26.2238 H         1 UNK         0.0000 
     34 H34         1.3759   51.8082   26.2194 H         1 UNK         0.0000 
     35 H35         1.1296   50.6008   24.0893 H         1 UNK         0.0000 
     36 H36         1.9186   54.2461   21.9697 H         1 UNK         0.0000 
     37 H37         2.3064   55.3961   24.0818 H         1 UNK         0.0000 
     38 H38         1.7535   52.7924   19.7913 H         1 UNK         0.0000 
     39 H39         2.2484   51.1398   19.6252 H         1 UNK         0.0000 
     40 H40         3.4300   54.0856   19.6919 H         1 UNK         0.0000 
     41 H41         5.0560   53.5540   22.8171 H         1 UNK         0.0000 
     42 H42         7.0428   54.7755   23.5830 H         1 UNK         0.0000 
     43 H43         8.3024   56.2008   22.0228 H         1 UNK         0.0000 
     44 H44         7.5338   56.4892   19.7067 H         1 UNK         0.0000 
     45 H45        -0.4253   52.6623   20.8772 H         1 UNK         0.0000 
     46 H46        -1.1134   48.8092   23.8932 H         1 UNK         0.0000 
     47 H47        -1.3530   49.2715   26.3107 H         1 UNK         0.0000 
     48 H48        -2.5159   53.2969   25.4453 H         1 UNK         0.0000 
     49 H49        -2.2576   52.8695   23.0235 H         1 UNK         0.0000 
@<TRIPOS>BOND
     1    1    6 ar   
     2    1    2 ar   
     3    1   33 1    
     4    2    3 ar   
     5    2   34 1    
     6    3    4 ar   
     7    3   35 1    
     8    4    5 ar   
     9    4    7 1    
    10    5    6 ar   
    11    5   36 1    
    12    6   37 1    
    13    7    8 1    
    14    7    9 1    
    15    7   22 1    
    16    9   10 1    
    17    9   38 1    
    18    9   39 1    
    19   10   11 2    
    20   10   12 am   BACKBONE|DICT|INTERRES
    21   12   13 1    
    22   12   40 1    
    23   13   18 ar   
    24   13   14 ar   
    25   14   15 ar   
    26   14   41 1    
    27   15   16 ar   
    28   15   42 1    
    29   16   17 ar   
    30   16   43 1    
    31   17   18 ar   
    32   17   44 1    
    33   18   19 1    
    34   19   20 2    
    35   19   21 1    
    36   22   23 1    
    37   22   45 1    
    38   23   24 2    
    39   23   25 2    
    40   23   26 1    
    41   26   31 ar   
    42   26   27 ar   
    43   27   28 ar   
    44   27   46 1    
    45   28   29 ar   
    46   28   47 1    
    47   29   30 ar   
    48   29   32 1    
    49   30   31 ar   
    50   30   48 1    
    51   31   49 1    
@<TRIPOS>SUBSTRUCTURE
     1 UNK         1 GROUP             0       ****    0 ROOT    
