@<TRIPOS>MOLECULE
ZINC65441300_244
55   58    1
SMALL
USER_CHARGES


@<TRIPOS>ATOM
      1 C1          3.3038   58.4764   13.4842 C.3       1 UNK         0.0000 
      2 C2          3.2150   59.4611   14.6682 C.3       1 UNK         0.0000 
      3 C3          1.7809   59.9146   14.9824 C.3       1 UNK         0.0000 
      4 N4          3.8441   58.8966   15.9636 N.4       1 UNK         0.0000 
      5 C5          3.2724   57.5962   16.5623 C.3       1 UNK         0.0000 
      6 C6          4.4388   56.9735   17.3473 C.3       1 UNK         0.0000 
      7 C7          5.6214   57.9506   17.2576 C.3       1 UNK         0.0000 
      8 C8          5.3688   58.7200   15.9616 C.3       1 UNK         0.0000 
      9 C9          7.0369   57.3227   17.3240 C.3       1 UNK         0.0000 
     10 N10         7.2029   56.2518   18.3105 N.am      1 UNK         0.0000 
     11 C11         7.1457   56.4271   19.6386 C.2       1 UNK         0.0000 
     12 O12         6.7043   57.4393   20.1789 O.2       1 UNK         0.0000 
     13 N13         7.6367   55.3818   20.3177 N.am      1 UNK         0.0000 
     14 C14         7.5109   55.2043   21.7679 C.3       1 UNK         0.0000 
     15 C15         6.1344   54.7249   22.1849 C.2       1 UNK         0.0000 
     16 C16         4.9801   54.3663   21.5029 C.2       1 UNK         0.0000 
     17 C17         4.0197   54.0644   22.4645 C.2       1 UNK         0.0000 
     18 C18         4.6198   54.2306   23.7051 C.2       1 UNK         0.0000 
     19 O19         5.9117   54.6203   23.5221 O.3       1 UNK         0.0000 
     20 C20         4.1364   54.0976   25.0685 C.2       1 UNK         0.0000 
     21 N21         4.8933   54.2531   26.1228 N.2       1 UNK         0.0000 
     22 C22         4.1998   54.0283   27.2715 C.ar      1 UNK         0.0000 
     23 C23         4.7402   54.0951   28.5638 C.ar      1 UNK         0.0000 
     24 C24         3.9037   53.8163   29.6458 C.ar      1 UNK         0.0000 
     25 C25         2.5606   53.4878   29.4619 C.ar      1 UNK         0.0000 
     26 C26         1.9968   53.4255   28.1879 C.ar      1 UNK         0.0000 
     27 C27         2.8293   53.6964   27.0939 C.ar      1 UNK         0.0000 
     28 S28         2.4612   53.6929   25.3773 S.3       1 UNK         0.0000 
     29 H29         2.9201   58.9447   12.5763 H         1 UNK         0.0000 
     30 H30         2.7145   57.5730   13.6421 H         1 UNK         0.0000 
     31 H31         4.3305   58.1783   13.2704 H         1 UNK         0.0000 
     32 H32         3.8284   60.3444   14.4708 H         1 UNK         0.0000 
     33 H33         1.3333   60.4181   14.1253 H         1 UNK         0.0000 
     34 H34         1.1364   59.0753   15.2464 H         1 UNK         0.0000 
     35 H35         1.7670   60.6196   15.8162 H         1 UNK         0.0000 
     36 H36         2.4162   57.8912   17.1695 H         1 UNK         0.0000 
     37 H37         2.9569   56.9447   15.7481 H         1 UNK         0.0000 
     38 H38         4.1819   56.7315   18.3800 H         1 UNK         0.0000 
     39 H39         4.6912   56.0381   16.8423 H         1 UNK         0.0000 
     40 H40         5.5252   58.6947   18.0532 H         1 UNK         0.0000 
     41 H41         5.6661   58.1768   15.0643 H         1 UNK         0.0000 
     42 H42         5.8341   59.7092   15.9176 H         1 UNK         0.0000 
     43 H43         7.3117   56.9172   16.3492 H         1 UNK         0.0000 
     44 H44         7.7723   58.1053   17.5266 H         1 UNK         0.0000 
     45 H45         7.3868   55.3277   17.9505 H         1 UNK         0.0000 
     46 H46         8.2344   54.7310   19.8316 H         1 UNK         0.0000 
     47 H47         8.2760   54.4968   22.0815 H         1 UNK         0.0000 
     48 H48         7.7587   56.1342   22.2784 H         1 UNK         0.0000 
     49 H49         4.8434   54.3470   20.4317 H         1 UNK         0.0000 
     50 H50         2.9980   53.7668   22.2783 H         1 UNK         0.0000 
     51 H51         5.7793   54.3496   28.7187 H         1 UNK         0.0000 
     52 H52         4.3037   53.8502   30.6474 H         1 UNK         0.0000 
     53 H53         1.9405   53.2722   30.3214 H         1 UNK         0.0000 
     54 H54         0.9561   53.1653   28.0507 H         1 UNK         0.0000 
     55 H55         3.6979   59.6432   16.6369 H         1 UNK         0.0000 
@<TRIPOS>BOND
     1    1    2 1    
     2    1   29 1    
     3    1   30 1    
     4    1   31 1    
     5    2    3 1    
     6    2    4 1    
     7    2   32 1    
     8    3   33 1    
     9    3   34 1    
    10    3   35 1    
    11    4    8 1    
    12    4    5 1    
    13    4   55 1    
    14    5    6 1    
    15    5   36 1    
    16    5   37 1    
    17    6    7 1    
    18    6   38 1    
    19    6   39 1    
    20    7    8 1    
    21    7    9 1    
    22    7   40 1    
    23    8   41 1    
    24    8   42 1    
    25    9   10 1    
    26    9   43 1    
    27    9   44 1    
    28   10   11 am   BACKBONE|DICT|INTERRES
    29   10   45 1    
    30   11   12 2    
    31   11   13 am   BACKBONE|DICT|INTERRES
    32   13   14 1    
    33   13   46 1    
    34   14   15 1    
    35   14   47 1    
    36   14   48 1    
    37   15   19 1    
    38   15   16 2    
    39   16   17 1    
    40   16   49 1    
    41   17   18 2    
    42   17   50 1    
    43   18   19 1    
    44   18   20 1    
    45   20   28 1    
    46   20   21 2    
    47   21   22 1    
    48   22   27 ar   
    49   22   23 ar   
    50   23   24 ar   
    51   23   51 1    
    52   24   25 ar   
    53   24   52 1    
    54   25   26 ar   
    55   25   53 1    
    56   26   27 ar   
    57   26   54 1    
    58   27   28 1    
@<TRIPOS>SUBSTRUCTURE
     1 UNK         1 GROUP             0       ****    0 ROOT    
