@<TRIPOS>MOLECULE
ZINC35380549_4580
42   43    1
SMALL
USER_CHARGES


@<TRIPOS>ATOM
      1 C1          0.7044   50.4475   24.8819 C.3       1 UNK         0.0000 
      2 C2         -0.6647   50.8472   25.4491 C.3       1 UNK         0.0000 
      3 H3         -1.3251   49.9844   25.3316 H         1 UNK         0.0000 
      4 C4         -1.3106   52.0041   24.6478 C.3       1 UNK         0.0000 
      5 C5         -2.7587   52.2597   25.1124 C.3       1 UNK         0.0000 
      6 C6         -2.8361   52.4759   26.6389 C.3       1 UNK         0.0000 
      7 C7         -2.1116   51.3567   27.4261 C.3       1 UNK         0.0000 
      8 C8         -0.6388   51.1986   26.9676 C.3       1 UNK         0.0000 
      9 H9         -0.1956   50.3462   27.4914 H         1 UNK         0.0000 
     10 N10         0.2282   52.3481   27.2802 N.am      1 UNK         0.0000 
     11 C11         0.6687   52.7004   28.5055 C.2       1 UNK         0.0000 
     12 O12         0.3492   52.0959   29.5268 O.2       1 UNK         0.0000 
     13 C13         1.5499   53.9595   28.6384 C.3       1 UNK         0.0000 
     14 O14         2.2289   54.2417   27.4100 O.3       1 UNK         0.0000 
     15 C15         3.5192   53.8659   27.1780 C.2       1 UNK         0.0000 
     16 O16         4.2603   53.3796   28.0345 O.2       1 UNK         0.0000 
     17 C17         3.9062   54.0480   25.7435 C.ar      1 UNK         0.0000 
     18 C18         5.1812   54.4847   25.3276 C.ar      1 UNK         0.0000 
     19 C19         5.4603   54.4948   23.9477 C.ar      1 UNK         0.0000 
     20 C20         4.4726   54.0966   23.0305 C.ar      1 UNK         0.0000 
     21 C21         3.2195   53.7187   23.5232 C.ar      1 UNK         0.0000 
     22 N22         2.9465   53.6929   24.8462 N.ar      1 UNK         0.0000 
     23 Cl23        1.9371   53.2591   22.4588 Cl        1 UNK         0.0000 
     24 Cl24        4.7791   54.1034   21.3209 Cl        1 UNK         0.0000 
     25 N25         6.7044   54.9289   23.4750 N.pl3     1 UNK         0.0000 
     26 Cl26        6.3977   54.9868   26.4676 Cl        1 UNK         0.0000 
     27 H27         1.4222   51.2675   24.9365 H         1 UNK         0.0000 
     28 H28         1.1047   49.5932   25.4296 H         1 UNK         0.0000 
     29 H29         0.6271   50.1498   23.8352 H         1 UNK         0.0000 
     30 H30        -1.3189   51.7538   23.5852 H         1 UNK         0.0000 
     31 H31        -0.6998   52.9065   24.7127 H         1 UNK         0.0000 
     32 H32        -3.1730   53.1220   24.5910 H         1 UNK         0.0000 
     33 H33        -3.3845   51.4095   24.8359 H         1 UNK         0.0000 
     34 H34        -2.3748   53.4329   26.8798 H         1 UNK         0.0000 
     35 H35        -3.8777   52.5434   26.9529 H         1 UNK         0.0000 
     36 H36        -2.1493   51.5591   28.4974 H         1 UNK         0.0000 
     37 H37        -2.6398   50.4097   27.2970 H         1 UNK         0.0000 
     38 H38         0.5907   52.8561   26.4871 H         1 UNK         0.0000 
     39 H39         0.9085   54.8139   28.8520 H         1 UNK         0.0000 
     40 H40         2.2202   53.8417   29.4931 H         1 UNK         0.0000 
     41 H41         6.8584   54.8182   22.4833 H         1 UNK         0.0000 
     42 H42         7.5114   54.8352   24.0807 H         1 UNK         0.0000 
@<TRIPOS>BOND
     1    1    2 1    
     2    1   27 1    
     3    1   28 1    
     4    1   29 1    
     5    2    3 1    
     6    2    8 1    
     7    2    4 1    
     8    4    5 1    
     9    4   30 1    
    10    4   31 1    
    11    5    6 1    
    12    5   32 1    
    13    5   33 1    
    14    6    7 1    
    15    6   34 1    
    16    6   35 1    
    17    7    8 1    
    18    7   36 1    
    19    7   37 1    
    20    8    9 1    
    21    8   10 1    
    22   10   11 am   BACKBONE|DICT|INTERRES
    23   10   38 1    
    24   11   12 2    
    25   11   13 1    
    26   13   14 1    
    27   13   39 1    
    28   13   40 1    
    29   14   15 1    
    30   15   16 2    
    31   15   17 1    
    32   17   22 ar   
    33   17   18 ar   
    34   18   19 ar   
    35   18   26 1    
    36   19   20 ar   
    37   19   25 1    
    38   20   21 ar   
    39   20   24 1    
    40   21   22 ar   
    41   21   23 1    
    42   25   41 1    
    43   25   42 1    
@<TRIPOS>SUBSTRUCTURE
     1 UNK         1 GROUP             0       ****    0 ROOT    
