@<TRIPOS>MOLECULE
ZINC21706563_2102
67   70    1
SMALL
USER_CHARGES


@<TRIPOS>ATOM
      1 C1         -1.1981   51.9506   26.2888 C.3       1 UNK         0.0000 
      2 C2         -0.1044   51.1623   27.0358 C.3       1 UNK         0.0000 
      3 C3          0.2499   49.8645   26.2916 C.3       1 UNK         0.0000 
      4 N4          1.1049   51.9548   27.2617 N.am      1 UNK         0.0000 
      5 C5          1.2153   53.0384   28.0513 C.2       1 UNK         0.0000 
      6 O6          0.2599   53.5060   28.6726 O.2       1 UNK         0.0000 
      7 C7          2.5928   53.7323   28.1643 C.3       1 UNK         0.0000 
      8 H8          2.3993   54.7219   27.7475 H         1 UNK         0.0000 
      9 C9          2.9813   53.9116   29.6475 C.3       1 UNK         0.0000 
     10 C10         4.3691   54.5701   29.7517 C.3       1 UNK         0.0000 
     11 C11         5.4643   53.9530   28.8543 C.3       1 UNK         0.0000 
     12 N12         4.9290   53.9061   27.4800 N.am      1 UNK         0.0000 
     13 C13         3.7360   53.0406   27.3712 C.3       1 UNK         0.0000 
     14 C14         5.6055   54.4886   26.4407 C.2       1 UNK         0.0000 
     15 O15         6.6995   55.0428   26.5978 O.2       1 UNK         0.0000 
     16 C16         5.0510   54.4135   25.0300 C.ar      1 UNK         0.0000 
     17 C17         5.9363   54.2583   23.9541 C.ar      1 UNK         0.0000 
     18 C18         5.4542   54.0669   22.6618 C.ar      1 UNK         0.0000 
     19 C19         4.0788   54.0143   22.4261 C.ar      1 UNK         0.0000 
     20 C20         3.1957   54.2655   23.4741 C.ar      1 UNK         0.0000 
     21 C21         3.6793   54.4956   24.7533 C.ar      1 UNK         0.0000 
     22 N22         3.5046   53.7079   21.1867 N.pl3     1 UNK         0.0000 
     23 S23         4.3359   53.1515   19.7340 S.o2      1 UNK         0.0000 
     24 O24         5.5043   52.3738   20.1501 O.2       1 UNK         0.0000 
     25 O25         3.2856   52.5724   18.8891 O.2       1 UNK         0.0000 
     26 C26         4.8924   54.6489   18.9310 C.ar      1 UNK         0.0000 
     27 C27         6.1849   55.1295   19.1241 C.ar      1 UNK         0.0000 
     28 C28         6.5741   56.3207   18.5189 C.ar      1 UNK         0.0000 
     29 C29         5.6941   57.0496   17.7104 C.ar      1 UNK         0.0000 
     30 C30         4.3911   56.5426   17.4841 C.ar      1 UNK         0.0000 
     31 C31         4.0095   55.3553   18.1150 C.ar      1 UNK         0.0000 
     32 C32         3.4227   57.2317   16.5189 C.3       1 UNK         0.0000 
     33 C33         3.7788   58.7040   16.2670 C.3       1 UNK         0.0000 
     34 C34         5.2704   58.8434   15.9369 C.3       1 UNK         0.0000 
     35 C35         6.1273   58.3973   17.1347 C.3       1 UNK         0.0000 
     36 H36        -2.0593   51.3151   26.0850 H         1 UNK         0.0000 
     37 H37        -0.8400   52.3197   25.3291 H         1 UNK         0.0000 
     38 H38        -1.5658   52.7923   26.8759 H         1 UNK         0.0000 
     39 H39        -0.4999   50.8705   28.0139 H         1 UNK         0.0000 
     40 H40        -0.6463   49.2725   26.1017 H         1 UNK         0.0000 
     41 H41         0.7047   50.0616   25.3198 H         1 UNK         0.0000 
     42 H42         0.9224   49.2325   26.8724 H         1 UNK         0.0000 
     43 H43         1.9353   51.6123   26.8103 H         1 UNK         0.0000 
     44 H44         2.2721   54.5547   30.1730 H         1 UNK         0.0000 
     45 H45         3.0792   52.9388   30.1370 H         1 UNK         0.0000 
     46 H46         4.2873   55.6348   29.5332 H         1 UNK         0.0000 
     47 H47         4.7034   54.4945   30.7819 H         1 UNK         0.0000 
     48 H48         6.4086   54.4964   28.9356 H         1 UNK         0.0000 
     49 H49         5.6573   52.9220   29.1583 H         1 UNK         0.0000 
     50 H50         3.9776   52.0969   27.8570 H         1 UNK         0.0000 
     51 H51         3.4916   52.7490   26.3528 H         1 UNK         0.0000 
     52 H52         7.0064   54.2397   24.1148 H         1 UNK         0.0000 
     53 H53         6.1648   53.9352   21.8658 H         1 UNK         0.0000 
     54 H54         2.1289   54.2710   23.3027 H         1 UNK         0.0000 
     55 H55         2.9649   54.6961   25.5345 H         1 UNK         0.0000 
     56 H56         2.5266   53.9304   21.0518 H         1 UNK         0.0000 
     57 H57         6.8856   54.5903   19.7416 H         1 UNK         0.0000 
     58 H58         7.5715   56.6935   18.6930 H         1 UNK         0.0000 
     59 H59         3.0099   54.9727   17.9613 H         1 UNK         0.0000 
     60 H60         3.4587   56.6950   15.5697 H         1 UNK         0.0000 
     61 H61         2.3950   57.1499   16.8714 H         1 UNK         0.0000 
     62 H62         3.5318   59.3003   17.1475 H         1 UNK         0.0000 
     63 H63         3.1727   59.1051   15.4539 H         1 UNK         0.0000 
     64 H64         5.5049   59.8770   15.6805 H         1 UNK         0.0000 
     65 H65         5.5149   58.2472   15.0571 H         1 UNK         0.0000 
     66 H66         6.0357   59.1464   17.9233 H         1 UNK         0.0000 
     67 H67         7.1811   58.3782   16.8527 H         1 UNK         0.0000 
@<TRIPOS>BOND
     1    1    2 1    
     2    1   36 1    
     3    1   37 1    
     4    1   38 1    
     5    2    3 1    
     6    2    4 1    
     7    2   39 1    
     8    3   40 1    
     9    3   41 1    
    10    3   42 1    
    11    4    5 am   BACKBONE|DICT|INTERRES
    12    4   43 1    
    13    5    6 2    
    14    5    7 1    
    15    7    8 1    
    16    7   13 1    
    17    7    9 1    
    18    9   10 1    
    19    9   44 1    
    20    9   45 1    
    21   10   11 1    
    22   10   46 1    
    23   10   47 1    
    24   11   12 1    
    25   11   48 1    
    26   11   49 1    
    27   12   13 1    
    28   12   14 am   BACKBONE|DICT|INTERRES
    29   13   50 1    
    30   13   51 1    
    31   14   15 2    
    32   14   16 1    
    33   16   21 ar   
    34   16   17 ar   
    35   17   18 ar   
    36   17   52 1    
    37   18   19 ar   
    38   18   53 1    
    39   19   20 ar   
    40   19   22 1    
    41   20   21 ar   
    42   20   54 1    
    43   21   55 1    
    44   22   23 1    
    45   22   56 1    
    46   23   24 2    
    47   23   25 2    
    48   23   26 1    
    49   26   31 ar   
    50   26   27 ar   
    51   27   28 ar   
    52   27   57 1    
    53   28   29 ar   
    54   28   58 1    
    55   29   35 1    
    56   29   30 ar   
    57   30   31 ar   
    58   30   32 1    
    59   31   59 1    
    60   32   33 1    
    61   32   60 1    
    62   32   61 1    
    63   33   34 1    
    64   33   62 1    
    65   33   63 1    
    66   34   35 1    
    67   34   64 1    
    68   34   65 1    
    69   35   66 1    
    70   35   67 1    
@<TRIPOS>SUBSTRUCTURE
     1 UNK         1 GROUP             0       ****    0 ROOT    
