@<TRIPOS>MOLECULE
ZINC45326786_3632
46   48    1
SMALL
USER_CHARGES


@<TRIPOS>ATOM
      1 C1          5.0515   51.9936   20.5799 C.3       1 UNK         0.0000 
      2 C2          5.0835   53.2232   19.6741 C.2       1 UNK         0.0000 
      3 C3          5.4069   54.5040   20.0251 C.2       1 UNK         0.0000 
      4 C4          5.4067   55.6244   18.9338 C.3       1 UNK         0.0000 
      5 H5          4.7043   56.3778   19.2805 H         1 UNK         0.0000 
      6 N6          4.8423   55.0852   17.6715 N.pl3     1 UNK         0.0000 
      7 C7          4.5850   53.7794   17.3747 C.2       1 UNK         0.0000 
      8 S8          4.1180   53.3055   15.8607 S.2       1 UNK         0.0000 
      9 N9          4.7526   52.8969   18.3952 N.pl3     1 UNK         0.0000 
     10 C10         6.6970   56.4117   18.6987 C.ar      1 UNK         0.0000 
     11 C11         7.9465   55.7882   18.7076 C.ar      1 UNK         0.0000 
     12 C12         9.1045   56.5473   18.5522 C.ar      1 UNK         0.0000 
     13 C13         9.0291   57.9416   18.3969 C.ar      1 UNK         0.0000 
     14 C14         7.7693   58.5532   18.3573 C.ar      1 UNK         0.0000 
     15 C15         6.6165   57.7933   18.5092 C.ar      1 UNK         0.0000 
     16 C16        10.2572   58.8013   18.3380 C.2       1 UNK         0.0000 
     17 O17        10.2335   60.0304   18.4805 O.2       1 UNK         0.0000 
     18 O18        11.3859   58.0967   18.0812 O.3       1 UNK         0.0000 
     19 C19        12.6468   58.7434   17.9922 C.3       1 UNK         0.0000 
     20 C20         5.7641   54.8965   21.3832 C.2       1 UNK         0.0000 
     21 O21         6.7385   55.6072   21.6307 O.2       1 UNK         0.0000 
     22 N22         4.9173   54.4240   22.3242 N.am      1 UNK         0.0000 
     23 C23         5.0458   54.4211   23.7253 C.ar      1 UNK         0.0000 
     24 C24         6.2661   54.5826   24.4014 C.ar      1 UNK         0.0000 
     25 C25         6.3038   54.4950   25.7917 C.ar      1 UNK         0.0000 
     26 C26         5.1332   54.2494   26.5046 C.ar      1 UNK         0.0000 
     27 C27         3.9191   54.0970   25.8405 C.ar      1 UNK         0.0000 
     28 C28         3.8773   54.1735   24.4511 C.ar      1 UNK         0.0000 
     29 Br29        5.1961   54.0967   28.4007 Br        1 UNK         0.0000 
     30 H30         4.0184   51.7249   20.8037 H         1 UNK         0.0000 
     31 H31         5.5041   51.1440   20.0818 H         1 UNK         0.0000 
     32 H32         5.5812   52.1136   21.5227 H         1 UNK         0.0000 
     33 H33         4.6814   55.7183   16.9018 H         1 UNK         0.0000 
     34 H34         4.7037   51.9210   18.1016 H         1 UNK         0.0000 
     35 H35         8.0223   54.7204   18.8544 H         1 UNK         0.0000 
     36 H36        10.0579   56.0389   18.5864 H         1 UNK         0.0000 
     37 H37         7.6629   59.6229   18.2253 H         1 UNK         0.0000 
     38 H38         5.6584   58.2919   18.4820 H         1 UNK         0.0000 
     39 H39        13.4244   58.0086   17.7834 H         1 UNK         0.0000 
     40 H40        12.6539   59.4828   17.1897 H         1 UNK         0.0000 
     41 H41        12.8959   59.2443   18.9289 H         1 UNK         0.0000 
     42 H42         4.0690   54.0111   21.9685 H         1 UNK         0.0000 
     43 H43         7.1908   54.7461   23.8680 H         1 UNK         0.0000 
     44 H44         7.2393   54.5933   26.3195 H         1 UNK         0.0000 
     45 H45         3.0166   53.8999   26.4001 H         1 UNK         0.0000 
     46 H46         2.9319   54.0358   23.9457 H         1 UNK         0.0000 
@<TRIPOS>BOND
     1    1    2 1    
     2    1   30 1    
     3    1   31 1    
     4    1   32 1    
     5    2    9 1    
     6    2    3 2    
     7    3    4 1    
     8    3   20 1    
     9    4    5 1    
    10    4    6 1    
    11    4   10 1    
    12    6    7 1    
    13    6   33 1    
    14    7    8 2    
    15    7    9 1    
    16    9   34 1    
    17   10   15 ar   
    18   10   11 ar   
    19   11   12 ar   
    20   11   35 1    
    21   12   13 ar   
    22   12   36 1    
    23   13   14 ar   
    24   13   16 1    
    25   14   15 ar   
    26   14   37 1    
    27   15   38 1    
    28   16   17 2    
    29   16   18 1    
    30   18   19 1    
    31   19   39 1    
    32   19   40 1    
    33   19   41 1    
    34   20   21 2    
    35   20   22 am   BACKBONE|DICT|INTERRES
    36   22   23 1    
    37   22   42 1    
    38   23   28 ar   
    39   23   24 ar   
    40   24   25 ar   
    41   24   43 1    
    42   25   26 ar   
    43   25   44 1    
    44   26   27 ar   
    45   26   29 1    
    46   27   28 ar   
    47   27   45 1    
    48   28   46 1    
@<TRIPOS>SUBSTRUCTURE
     1 UNK         1 GROUP             0       ****    0 ROOT    
