@<TRIPOS>MOLECULE
ZINC10585515_2654
45   48    1
SMALL
USER_CHARGES


@<TRIPOS>ATOM
      1 C1          4.4767   53.1565   29.0588 C.ar      1 UNK         0.0000 
      2 C2          3.6244   52.7003   30.0624 C.ar      1 UNK         0.0000 
      3 C3          2.2609   52.6177   29.8104 C.ar      1 UNK         0.0000 
      4 C4          1.7549   52.9597   28.5471 C.ar      1 UNK         0.0000 
      5 C5          2.6102   53.4400   27.5583 C.ar      1 UNK         0.0000 
      6 C6          3.9922   53.5423   27.7976 C.ar      1 UNK         0.0000 
      7 N7          4.8494   54.0415   26.7781 N.am      1 UNK         0.0000 
      8 C8          4.3542   54.8791   25.6787 C.3       1 UNK         0.0000 
      9 C9          5.4832   54.9945   24.6916 C.3       1 UNK         0.0000 
     10 H10         5.5607   56.0636   24.4815 H         1 UNK         0.0000 
     11 C11         6.7047   54.5893   25.4609 C.3       1 UNK         0.0000 
     12 C12         6.2107   53.8945   26.7199 C.2       1 UNK         0.0000 
     13 O13         6.9672   53.2976   27.4839 O.2       1 UNK         0.0000 
     14 N14         5.2412   54.2664   23.4447 N.am      1 UNK         0.0000 
     15 C15         5.9033   54.4966   22.3042 C.2       1 UNK         0.0000 
     16 O16         7.0654   54.8975   22.2717 O.2       1 UNK         0.0000 
     17 N17         5.1270   54.2794   21.2270 N.am      1 UNK         0.0000 
     18 C18         5.5255   54.4165   19.8865 C.ar      1 UNK         0.0000 
     19 C19         5.2833   53.3184   19.0532 C.ar      1 UNK         0.0000 
     20 C20         5.6299   53.3631   17.7045 C.ar      1 UNK         0.0000 
     21 C21         6.1984   54.5153   17.1678 C.ar      1 UNK         0.0000 
     22 C22         6.4114   55.6294   17.9796 C.ar      1 UNK         0.0000 
     23 C23         6.0707   55.5969   19.3337 C.ar      1 UNK         0.0000 
     24 Cl24        6.3052   57.0490   20.2483 Cl        1 UNK         0.0000 
     25 Cl25        6.6279   54.5674   15.4976 Cl        1 UNK         0.0000 
     26 O26         0.4064   52.8864   28.2536 O.3       1 UNK         0.0000 
     27 C27        -0.3142   52.0109   29.1301 C.3       1 UNK         0.0000 
     28 C28         0.0600   52.3311   30.5962 C.3       1 UNK         0.0000 
     29 O29         1.4600   52.1227   30.8169 O.3       1 UNK         0.0000 
     30 H30         5.5247   53.2213   29.2814 H         1 UNK         0.0000 
     31 H31         4.0206   52.4149   31.0254 H         1 UNK         0.0000 
     32 H32         2.1725   53.7079   26.6110 H         1 UNK         0.0000 
     33 H33         4.1083   55.8555   26.0817 H         1 UNK         0.0000 
     34 H34         3.4528   54.4963   25.2009 H         1 UNK         0.0000 
     35 H35         7.3496   53.9142   24.8960 H         1 UNK         0.0000 
     36 H36         7.2941   55.4604   25.7321 H         1 UNK         0.0000 
     37 H37         4.4375   53.6575   23.4268 H         1 UNK         0.0000 
     38 H38         4.2918   53.7333   21.3695 H         1 UNK         0.0000 
     39 H39         4.8437   52.4094   19.4410 H         1 UNK         0.0000 
     40 H40         5.4531   52.4967   17.0830 H         1 UNK         0.0000 
     41 H41         6.8306   56.5287   17.5506 H         1 UNK         0.0000 
     42 H42        -0.0433   50.9756   28.9090 H         1 UNK         0.0000 
     43 H43        -1.3886   52.0990   28.9657 H         1 UNK         0.0000 
     44 H44        -0.4945   51.6932   31.2810 H         1 UNK         0.0000 
     45 H45        -0.1948   53.3670   30.8235 H         1 UNK         0.0000 
@<TRIPOS>BOND
     1    1    6 ar   
     2    1    2 ar   
     3    1   30 1    
     4    2    3 ar   
     5    2   31 1    
     6    3   29 1    
     7    3    4 ar   
     8    4    5 ar   
     9    4   26 1    
    10    5    6 ar   
    11    5   32 1    
    12    6    7 1    
    13    7   12 am   BACKBONE|DICT|INTERRES
    14    7    8 1    
    15    8    9 1    
    16    8   33 1    
    17    8   34 1    
    18    9   10 1    
    19    9   11 1    
    20    9   14 1    
    21   11   12 1    
    22   11   35 1    
    23   11   36 1    
    24   12   13 2    
    25   14   15 am   BACKBONE|DICT|INTERRES
    26   14   37 1    
    27   15   16 2    
    28   15   17 am   BACKBONE|DICT|INTERRES
    29   17   18 1    
    30   17   38 1    
    31   18   23 ar   
    32   18   19 ar   
    33   19   20 ar   
    34   19   39 1    
    35   20   21 ar   
    36   20   40 1    
    37   21   22 ar   
    38   21   25 1    
    39   22   23 ar   
    40   22   41 1    
    41   23   24 1    
    42   26   27 1    
    43   27   28 1    
    44   27   42 1    
    45   27   43 1    
    46   28   29 1    
    47   28   44 1    
    48   28   45 1    
@<TRIPOS>SUBSTRUCTURE
     1 UNK         1 GROUP             0       ****    0 ROOT    
