ZINC08442119_2436
                    3D
 Schrodinger Suite 2024-2.
 54 58  0  0  1  0            999 V2000
    4.1774   54.2067   29.6801 C   0  0  0  0  0  0
    3.0888   53.4541   28.9393 C   0  0  0  0  0  0
    2.1922   52.6337   29.6317 C   0  0  0  0  0  0
    1.2083   51.9384   28.9308 C   0  0  0  0  0  0
    1.1326   52.0526   27.5439 C   0  0  0  0  0  0
    2.0196   52.8792   26.8557 C   0  0  0  0  0  0
    3.0001   53.5785   27.5524 C   0  0  0  0  0  0
   -0.1184   51.1642   26.6662 S   0  0  0  0  0  0
    0.7044   49.9596   25.5684 C   0  0  0  0  0  0
   -0.2709   49.1613   24.7456 C   0  0  0  0  0  0
   -0.7081   49.2601   23.4267 C   0  0  0  0  0  0
   -1.7278   48.2944   23.3593 C   0  0  0  0  0  0
   -1.8668   47.5703   24.4427 N   0  0  0  0  0  0
   -0.9837   48.1179   25.2820 N   0  0  0  0  0  0
   -0.9047   47.8201   26.2511 H   0  0  0  0  0  0
   -2.5934   48.1450   22.3036 O   0  0  0  0  0  0
   -2.6566   49.2317   21.4834 C   0  0  0  0  0  0
   -1.7331   50.2256   21.3992 C   0  0  0  0  0  0
   -0.4249   50.1915   22.2284 C   0  0  1  0  0  0
    0.1588   51.5205   22.6335 C   0  0  0  0  0  0
   -0.2675   52.4979   23.5350 C   0  0  0  0  0  0
    0.5288   53.6281   23.7515 C   0  0  0  0  0  0
    1.7226   53.7995   23.0522 C   0  0  0  0  0  0
    2.1374   52.8328   22.1419 C   0  0  0  0  0  0
    1.3463   51.6995   21.9465 C   0  0  0  0  0  0
    1.6085   50.5938   21.1470 N   0  0  0  0  0  0
    0.6733   49.6227   21.2941 C   0  0  0  0  0  0
    0.6552   48.5136   20.7572 O   0  0  0  0  0  0
    2.6986   50.5077   20.1631 C   0  0  0  0  0  0
    2.5884   51.4915   18.9978 C   0  0  0  0  0  0
    1.4818   52.1408   18.5973 C   0  0  0  0  0  0
   -1.9406   51.2694   20.4498 C   0  0  0  0  0  0
   -2.1601   52.0967   19.6738 N   0  0  0  0  0  0
   -3.7784   49.0954   20.7121 N   0  0  0  0  0  0
    4.3026   53.8532   30.7032 H   0  0  0  0  0  0
    5.1377   54.0718   29.1806 H   0  0  0  0  0  0
    3.9567   55.2731   29.6835 H   0  0  0  0  0  0
    2.2509   52.5321   30.7055 H   0  0  0  0  0  0
    0.5100   51.3041   29.4582 H   0  0  0  0  0  0
    1.9696   52.9588   25.7831 H   0  0  0  0  0  0
    3.6941   54.2059   27.0115 H   0  0  0  0  0  0
    1.3149   49.2879   26.1767 H   0  0  0  0  0  0
    1.3717   50.4890   24.8851 H   0  0  0  0  0  0
   -1.1872   52.3776   24.0872 H   0  0  0  0  0  0
    0.2297   54.3855   24.4563 H   0  0  0  0  0  0
    2.3261   54.6801   23.2163 H   0  0  0  0  0  0
    3.0637   52.9703   21.6055 H   0  0  0  0  0  0
    2.7954   49.5073   19.7358 H   0  0  0  0  0  0
    3.6426   50.6800   20.6787 H   0  0  0  0  0  0
    3.5001   51.6809   18.4500 H   0  0  0  0  0  0
    0.5356   52.0066   19.0953 H   0  0  0  0  0  0
    1.5110   52.8205   17.7598 H   0  0  0  0  0  0
   -4.0380   49.8084   20.0468 H   0  0  0  0  0  0
   -4.2268   48.1949   20.6295 H   0  0  0  0  0  0
  1  2  1  0  0  0
  1 35  1  0  0  0
  1 36  1  0  0  0
  1 37  1  0  0  0
  2  7  2  0  0  0
  2  3  1  0  0  0
  3  4  2  0  0  0
  3 38  1  0  0  0
  4  5  1  0  0  0
  4 39  1  0  0  0
  5  6  2  0  0  0
  5  8  1  0  0  0
  6  7  1  0  0  0
  6 40  1  0  0  0
  7 41  1  0  0  0
  8  9  1  0  0  0
  9 10  1  0  0  0
  9 42  1  0  0  0
  9 43  1  0  0  0
 10 14  1  0  0  0
 10 11  2  0  0  0
 11 19  1  0  0  0
 11 12  1  0  0  0
 12 13  2  0  0  0
 12 16  1  0  0  0
 13 14  1  0  0  0
 14 15  1  0  0  0
 16 17  1  0  0  0
 17 18  2  0  0  0
 17 34  1  0  0  0
 18 19  1  0  0  0
 18 32  1  0  0  0
 19 27  1  0  0  0
 19 20  1  0  0  0
 20 25  2  0  0  0
 20 21  1  0  0  0
 21 22  2  0  0  0
 21 44  1  0  0  0
 22 23  1  0  0  0
 22 45  1  0  0  0
 23 24  2  0  0  0
 23 46  1  0  0  0
 24 25  1  0  0  0
 24 47  1  0  0  0
 25 26  1  0  0  0
 26 27  1  0  0  0
 26 29  1  0  0  0
 27 28  2  0  0  0
 29 30  1  0  0  0
 29 48  1  0  0  0
 29 49  1  0  0  0
 30 31  2  0  0  0
 30 50  1  0  0  0
 31 51  1  0  0  0
 31 52  1  0  0  0
 32 33  3  0  0  0
 34 53  1  0  0  0
 34 54  1  0  0  0
M  END
> <i_i_glide_confnum>
20

> <i_i_glide_lignum>
2437

> <i_i_glide_posenum>
167

> <i_i_glide_rotatable_bonds>
6

> <i_m_Source_File_Index>
3015

> <b_m_subgroup_collapsed>
0

> <r_i_docking_score>
-4.81858

> <r_i_glide_ecoul>
-6.62039

> <r_i_glide_eff_state_penalty>
0

> <r_i_glide_einternal>
3.11467

> <r_i_glide_emodel>
-52.2704

> <r_i_glide_energy>
-41.9589

> <r_i_glide_erotb>
0.484069

> <r_i_glide_esite>
-0.109253

> <r_i_glide_evdw>
-35.3386

> <r_i_glide_gscore>
-4.81858

> <r_i_glide_hbond>
-0.407921

> <r_i_glide_ligand_efficiency>
-0.146017

> <r_i_glide_ligand_efficiency_ln>
-1.07163

> <r_i_glide_ligand_efficiency_sa>
-0.468356

> <r_i_glide_lipo>
-1.65929

> <r_i_glide_metal>
0

> <r_i_glide_rewards>
-0.366192

> <s_i_glide_gridfile>
wee1_glide-grid

> <s_m_Source_File>
wee1_decoys_glide_SP.sdf

> <s_m_Source_Path>
/Users/zhangxujun/Desktop

> <s_m_entry_id>
3290

> <s_m_entry_name>
wee1_decoys_glide_SP.3015

> <s_m_subgroup_title>
wee1_decoys_glide_SP

> <s_m_subgroupid>
wee1_decoys_glide_SP


$$$$
