ZINC35646635_5687
                    3D
 Schrodinger Suite 2024-2.
 77 80  0  0  1  0            999 V2000
    1.6340   52.7851   18.4769 C   0  0  0  0  0  0
    3.1605   52.6941   18.2854 C   0  0  0  0  0  0
    3.9320   53.8266   18.8739 N   0  0  0  0  0  0
    4.6348   53.7899   20.0927 C   0  0  0  0  0  0
    5.5033   54.7998   20.4239 C   0  0  0  0  0  0
    5.8077   55.8909   19.3676 C   0  0  2  0  0  0
    5.9488   56.8449   19.8797 H   0  0  0  0  0  0
    4.6437   55.9996   18.4799 N   0  0  0  0  0  0
    3.9157   54.9425   18.0603 C   0  0  0  0  0  0
    3.3063   55.0849   16.9990 O   0  0  0  0  0  0
    7.1256   55.7321   18.5853 C   0  0  0  0  0  0
    7.6423   54.4496   18.3573 C   0  0  0  0  0  0
    8.8716   54.2701   17.7287 C   0  0  0  0  0  0
    9.6108   55.3754   17.3153 C   0  0  0  0  0  0
    9.0950   56.6587   17.5013 C   0  0  0  0  0  0
    7.8586   56.8491   18.1293 C   0  0  0  0  0  0
    7.3331   58.2743   18.2623 C   0  0  0  0  0  0
   10.9603   55.1809   16.6501 C   0  0  0  0  0  0
    6.3058   54.9472   21.6774 C   0  0  0  0  0  0
    7.2173   55.7740   21.7682 O   0  0  0  0  0  0
    5.9519   54.1546   22.7145 O   0  0  0  0  0  0
    6.6228   54.1840   23.9728 C   0  0  0  0  0  0
    6.2575   55.4184   24.8118 C   0  0  0  0  0  0
    4.2820   52.5753   20.9933 C   0  0  0  0  0  0
    2.9047   52.7406   21.6878 N   0  3  2  0  0  0
    2.9456   53.7548   22.8573 C   0  0  0  0  0  0
    1.5663   54.3232   23.1999 C   0  0  0  0  0  0
    0.5996   53.4953   24.0615 C   0  0  0  0  0  0
    0.6636   52.0371   23.8957 N   0  0  0  0  0  0
    0.7746   51.5474   22.5076 C   0  0  0  0  0  0
    2.2192   51.3885   21.9989 C   0  0  0  0  0  0
    0.6253   51.1566   24.9391 C   0  0  0  0  0  0
    0.6505   49.9368   24.7691 O   0  0  0  0  0  0
    0.5157   51.6728   26.3610 C   0  0  0  0  0  0
   -0.5540   51.2654   27.1699 C   0  0  0  0  0  0
   -0.6474   51.6951   28.4951 C   0  0  0  0  0  0
    0.3309   52.5299   29.0296 C   0  0  0  0  0  0
    1.4088   52.9310   28.2432 C   0  0  0  0  0  0
    1.5058   52.4972   26.9205 C   0  0  0  0  0  0
    2.3671   53.7288   28.7672 F   0  0  0  0  0  0
    1.1533   51.8869   18.0892 H   0  0  0  0  0  0
    1.3444   52.8900   19.5206 H   0  0  0  0  0  0
    1.2148   53.6287   17.9283 H   0  0  0  0  0  0
    3.3446   52.6543   17.2086 H   0  0  0  0  0  0
    3.5166   51.7191   18.5997 H   0  0  0  0  0  0
    4.6600   56.7559   17.8120 H   0  0  0  0  0  0
    7.0963   53.5732   18.6716 H   0  0  0  0  0  0
    9.2509   53.2685   17.5832 H   0  0  0  0  0  0
    9.6622   57.5110   17.1571 H   0  0  0  0  0  0
    7.8476   58.9690   17.5930 H   0  0  0  0  0  0
    6.2761   58.3305   17.9951 H   0  0  0  0  0  0
    7.4413   58.6395   19.2816 H   0  0  0  0  0  0
   11.1225   55.9318   15.8753 H   0  0  0  0  0  0
   11.7624   55.2601   17.3870 H   0  0  0  0  0  0
   11.0235   54.2072   16.1610 H   0  0  0  0  0  0
    6.3189   53.2973   24.5235 H   0  0  0  0  0  0
    7.7005   54.0968   23.8345 H   0  0  0  0  0  0
    6.7050   55.3613   25.8038 H   0  0  0  0  0  0
    6.6114   56.3352   24.3431 H   0  0  0  0  0  0
    5.1775   55.5010   24.9357 H   0  0  0  0  0  0
    4.9886   52.3199   21.7760 H   0  0  0  0  0  0
    4.2443   51.6619   20.4077 H   0  0  0  0  0  0
    3.5310   54.5902   22.4750 H   0  0  0  0  0  0
    3.4705   53.2962   23.6953 H   0  0  0  0  0  0
    1.1046   54.5215   22.2413 H   0  0  0  0  0  0
    1.6809   55.2965   23.6802 H   0  0  0  0  0  0
   -0.4040   53.7950   23.7579 H   0  0  0  0  0  0
    0.7038   53.8193   25.0883 H   0  0  0  0  0  0
    0.3185   50.5551   22.4586 H   0  0  0  0  0  0
    0.1524   52.1238   21.8227 H   0  0  0  0  0  0
    2.8535   50.8287   22.6848 H   0  0  0  0  0  0
    2.2091   50.8522   21.0479 H   0  0  0  0  0  0
   -1.3069   50.5898   26.7910 H   0  0  0  0  0  0
   -1.4672   51.3522   29.1124 H   0  0  0  0  0  0
    0.2644   52.8464   30.0615 H   0  0  0  0  0  0
    2.3627   52.8043   26.3372 H   0  0  0  0  0  0
    2.3254   53.1699   20.9755 H   0  0  0  0  0  0
  1  2  1  0  0  0
  1 41  1  0  0  0
  1 42  1  0  0  0
  1 43  1  0  0  0
  2  3  1  0  0  0
  2 44  1  0  0  0
  2 45  1  0  0  0
  3  9  1  0  0  0
  3  4  1  0  0  0
  4  5  2  0  0  0
  4 24  1  0  0  0
  5  6  1  0  0  0
  5 19  1  0  0  0
  6  7  1  0  0  0
  6  8  1  0  0  0
  6 11  1  0  0  0
  8  9  1  0  0  0
  8 46  1  0  0  0
  9 10  2  0  0  0
 11 16  2  0  0  0
 11 12  1  0  0  0
 12 13  2  0  0  0
 12 47  1  0  0  0
 13 14  1  0  0  0
 13 48  1  0  0  0
 14 15  2  0  0  0
 14 18  1  0  0  0
 15 16  1  0  0  0
 15 49  1  0  0  0
 16 17  1  0  0  0
 17 50  1  0  0  0
 17 51  1  0  0  0
 17 52  1  0  0  0
 18 53  1  0  0  0
 18 54  1  0  0  0
 18 55  1  0  0  0
 19 20  2  0  0  0
 19 21  1  0  0  0
 21 22  1  0  0  0
 22 23  1  0  0  0
 22 56  1  0  0  0
 22 57  1  0  0  0
 23 58  1  0  0  0
 23 59  1  0  0  0
 23 60  1  0  0  0
 24 25  1  0  0  0
 24 61  1  0  0  0
 24 62  1  0  0  0
 25 31  1  0  0  0
 25 26  1  0  0  0
 25 77  1  0  0  0
 26 27  1  0  0  0
 26 63  1  0  0  0
 26 64  1  0  0  0
 27 28  1  0  0  0
 27 65  1  0  0  0
 27 66  1  0  0  0
 28 29  1  0  0  0
 28 67  1  0  0  0
 28 68  1  0  0  0
 29 30  1  0  0  0
 29 32  1  0  0  0
 30 31  1  0  0  0
 30 69  1  0  0  0
 30 70  1  0  0  0
 31 71  1  0  0  0
 31 72  1  0  0  0
 32 33  2  0  0  0
 32 34  1  0  0  0
 34 39  2  0  0  0
 34 35  1  0  0  0
 35 36  2  0  0  0
 35 73  1  0  0  0
 36 37  1  0  0  0
 36 74  1  0  0  0
 37 38  2  0  0  0
 37 75  1  0  0  0
 38 39  1  0  0  0
 38 40  1  0  0  0
 39 76  1  0  0  0
M  CHG  1  25   1
M  END
> <i_i_glide_confnum>
5

> <i_i_glide_lignum>
5688

> <i_i_glide_posenum>
226

> <i_i_glide_rotatable_bonds>
9

> <i_m_Source_File_Index>
3480

> <b_m_subgroup_collapsed>
0

> <r_i_docking_score>
-4.89561

> <r_i_glide_ecoul>
-0.00363742

> <r_i_glide_eff_state_penalty>
0

> <r_i_glide_einternal>
4.60496

> <r_i_glide_emodel>
-59.0342

> <r_i_glide_energy>
-45.0141

> <r_i_glide_erotb>
0.500252

> <r_i_glide_esite>
-0.0187888

> <r_i_glide_evdw>
-45.0105

> <r_i_glide_gscore>
-4.89561

> <r_i_glide_hbond>
0

> <r_i_glide_ligand_efficiency>
-0.125528

> <r_i_glide_ligand_efficiency_ln>
-1.04976

> <r_i_glide_ligand_efficiency_sa>
-0.425693

> <r_i_glide_lipo>
-2.36118

> <r_i_glide_metal>
0

> <r_i_glide_rewards>
-0.764823

> <s_i_glide_gridfile>
wee1_glide-grid

> <s_m_Source_File>
wee1_decoys_glide_SP.sdf

> <s_m_Source_Path>
/Users/zhangxujun/Desktop

> <s_m_entry_id>
3755

> <s_m_entry_name>
wee1_decoys_glide_SP.3480

> <s_m_subgroup_title>
wee1_decoys_glide_SP

> <s_m_subgroupid>
wee1_decoys_glide_SP


$$$$
