ZINC32946448_1952
                    3D
 Schrodinger Suite 2024-2.
 40 43  0  0  1  0            999 V2000
   -0.3029   52.0297   29.5570 C   0  0  0  0  0  0
    0.7670   52.6142   28.8267 O   0  0  0  0  0  0
    2.0101   52.7104   29.3616 C   0  0  0  0  0  0
    2.2884   52.3846   30.5203 O   0  0  0  0  0  0
    3.0045   53.3238   28.4224 C   0  0  0  0  0  0
    4.1745   53.8865   28.9345 C   0  0  0  0  0  0
    5.1433   54.3914   28.0789 C   0  0  0  0  0  0
    4.9597   54.3379   26.6899 C   0  0  0  0  0  0
    3.7793   53.8085   26.1233 C   0  0  0  0  0  0
    2.8233   53.2972   27.0297 C   0  0  0  0  0  0
    3.6581   53.7731   24.6746 N   0  0  0  0  0  0
    4.7518   54.1989   23.8891 C   0  0  0  0  0  0
    4.5906   54.0968   22.5442 C   0  0  0  0  0  0
    3.0097   53.4100   22.2232 S   0  0  0  0  0  0
    2.5791   53.3911   23.9000 C   0  0  0  0  0  0
    1.0146   52.9073   24.2137 S   0  0  0  0  0  0
    5.5036   54.4972   21.4804 C   0  0  0  0  0  0
    6.4889   55.2135   21.6649 O   0  0  0  0  0  0
    5.1841   54.0352   20.2580 N   0  0  0  0  0  0
    5.9507   54.2555   19.0308 C   0  0  0  0  0  0
    5.6798   55.6147   18.4140 C   0  0  0  0  0  0
    4.6728   55.9940   17.5255 C   0  0  0  0  0  0
    4.7344   57.3296   17.1169 C   0  0  0  0  0  0
    5.7996   58.0063   17.6815 C   0  0  0  0  0  0
    6.7045   56.9882   18.7506 S   0  0  0  0  0  0
    5.8984   54.7113   24.5213 N   0  5  0  0  0  0
    6.0793   54.8256   25.8059 C   0  0  0  0  0  0
    7.1022   55.2941   26.3040 O   0  0  0  0  0  0
   -1.2379   52.1621   29.0129 H   0  0  0  0  0  0
   -0.1412   50.9597   29.6814 H   0  0  0  0  0  0
   -0.4164   52.4838   30.5431 H   0  0  0  0  0  0
    4.3546   53.9218   29.9998 H   0  0  0  0  0  0
    6.0472   54.8034   28.5083 H   0  0  0  0  0  0
    1.9331   52.8125   26.6829 H   0  0  0  0  0  0
    4.3648   53.4519   20.1799 H   0  0  0  0  0  0
    5.6882   53.4601   18.3316 H   0  0  0  0  0  0
    7.0166   54.1176   19.2246 H   0  0  0  0  0  0
    3.9116   55.3103   17.1791 H   0  0  0  0  0  0
    4.0311   57.7866   16.4350 H   0  0  0  0  0  0
    6.0704   59.0457   17.5435 H   0  0  0  0  0  0
  1  2  1  0  0  0
  1 29  1  0  0  0
  1 30  1  0  0  0
  1 31  1  0  0  0
  2  3  1  0  0  0
  3  4  2  0  0  0
  3  5  1  0  0  0
  5 10  2  0  0  0
  5  6  1  0  0  0
  6  7  2  0  0  0
  6 32  1  0  0  0
  7  8  1  0  0  0
  7 33  1  0  0  0
  8 27  1  0  0  0
  8  9  2  0  0  0
  9 10  1  0  0  0
  9 11  1  0  0  0
 10 34  1  0  0  0
 11 15  1  0  0  0
 11 12  1  0  0  0
 12 13  2  0  0  0
 12 26  1  0  0  0
 13 14  1  0  0  0
 13 17  1  0  0  0
 14 15  1  0  0  0
 15 16  2  0  0  0
 17 18  2  0  0  0
 17 19  1  0  0  0
 19 20  1  0  0  0
 19 35  1  0  0  0
 20 21  1  0  0  0
 20 36  1  0  0  0
 20 37  1  0  0  0
 21 25  1  0  0  0
 21 22  2  0  0  0
 22 23  1  0  0  0
 22 38  1  0  0  0
 23 24  2  0  0  0
 23 39  1  0  0  0
 24 25  1  0  0  0
 24 40  1  0  0  0
 26 27  1  0  0  0
 27 28  2  0  0  0
M  CHG  1  26  -1
M  END
> <i_i_glide_confnum>
14

> <i_i_glide_lignum>
1953

> <i_i_glide_posenum>
68

> <i_i_glide_rotatable_bonds>
6

> <i_m_Source_File_Index>
5581

> <b_m_subgroup_collapsed>
0

> <r_i_docking_score>
-8.27771

> <r_i_glide_ecoul>
-8.91507

> <r_i_glide_eff_state_penalty>
0

> <r_i_glide_einternal>
8.97648

> <r_i_glide_emodel>
-77.5652

> <r_i_glide_energy>
-55.9937

> <r_i_glide_erotb>
0.429102

> <r_i_glide_esite>
0

> <r_i_glide_evdw>
-47.0786

> <r_i_glide_gscore>
-8.27771

> <r_i_glide_hbond>
-0.430118

> <r_i_glide_ligand_efficiency>
-0.295633

> <r_i_glide_ligand_efficiency_ln>
-1.91074

> <r_i_glide_ligand_efficiency_sa>
-0.897714

> <r_i_glide_lipo>
-2.34071

> <r_i_glide_metal>
0

> <r_i_glide_rewards>
-2.24479

> <s_i_glide_gridfile>
wee1_glide-grid

> <s_m_Source_File>
wee1_decoys_glide_SP.sdf

> <s_m_Source_Path>
/Users/zhangxujun/Desktop

> <s_m_entry_id>
5856

> <s_m_entry_name>
wee1_decoys_glide_SP.5581

> <s_m_subgroup_title>
wee1_decoys_glide_SP

> <s_m_subgroupid>
wee1_decoys_glide_SP


$$$$
