@<TRIPOS>MOLECULE
ZINC35455854_1581
53   54    1
SMALL
USER_CHARGES


@<TRIPOS>ATOM
      1 C1          5.8244   54.2310   28.7114 C.3       1 UNK         0.0000 
      2 C2          4.6358   53.6630   29.5050 C.3       1 UNK         0.0000 
      3 C3          3.2599   53.9119   28.8531 C.3       1 UNK         0.0000 
      4 H4          3.4522   53.8349   27.7839 H         1 UNK         0.0000 
      5 C5          2.7649   55.3554   29.1251 C.3       1 UNK         0.0000 
      6 C6          2.2245   52.7970   29.2296 C.3       1 UNK         0.0000 
      7 H7          2.7149   51.8430   29.0221 H         1 UNK         0.0000 
      8 C8          0.8799   52.7741   28.4235 C.3       1 UNK         0.0000 
      9 C9         -0.0956   53.8952   28.8028 C.3       1 UNK         0.0000 
     10 C10         1.1294   52.8019   26.9151 C.2       1 UNK         0.0000 
     11 C11         0.7090   51.9282   25.9725 C.2       1 UNK         0.0000 
     12 C12         1.0870   51.9651   24.5649 C.2       1 UNK         0.0000 
     13 C13         1.8449   52.9474   24.0219 C.2       1 UNK         0.0000 
     14 C14         2.4051   52.8543   22.6941 C.2       1 UNK         0.0000 
     15 C15         3.2009   53.8332   22.2140 C.2       1 UNK         0.0000 
     16 C16         3.9045   53.7657   20.9401 C.2       1 UNK         0.0000 
     17 O17         4.7356   54.6300   20.6581 O.2       1 UNK         0.0000 
     18 C18         3.5460   52.5905   19.9899 C.3       1 UNK         0.0000 
     19 C19         2.2199   51.8468   20.3820 C.3       1 UNK         0.0000 
     20 H20         2.2019   50.8827   19.8691 H         1 UNK         0.0000 
     21 C21         2.1249   51.5743   21.9091 C.3       1 UNK         0.0000 
     22 H22         2.9143   50.8681   22.1718 H         1 UNK         0.0000 
     23 C23         0.7815   50.9803   22.4122 C.3       1 UNK         0.0000 
     24 O24         0.7216   50.8613   23.8454 O.3       1 UNK         0.0000 
     25 O25         1.0472   52.4967   19.9115 O.3       1 UNK         0.0000 
     26 C26         3.5640   53.0631   18.5138 C.3       1 UNK         0.0000 
     27 O27         4.6265   51.6967   20.0817 O.3       1 UNK         0.0000 
     28 O28         0.1857   51.5762   28.7402 O.3       1 UNK         0.0000 
     29 O29         1.9974   52.8061   30.6347 O.3       1 UNK         0.0000 
     30 H30         5.9314   53.7297   27.7491 H         1 UNK         0.0000 
     31 H31         5.7117   55.2963   28.5206 H         1 UNK         0.0000 
     32 H32         6.7596   54.0960   29.2572 H         1 UNK         0.0000 
     33 H33         4.8032   52.5933   29.6428 H         1 UNK         0.0000 
     34 H34         4.6252   54.0964   30.5043 H         1 UNK         0.0000 
     35 H35         2.1482   55.4140   30.0229 H         1 UNK         0.0000 
     36 H36         3.5691   56.0629   29.2820 H         1 UNK         0.0000 
     37 H37         2.1945   55.7435   28.2817 H         1 UNK         0.0000 
     38 H38         0.3079   54.8947   28.7255 H         1 UNK         0.0000 
     39 H39        -0.8956   53.8905   28.0819 H         1 UNK         0.0000 
     40 H40        -0.4973   53.7901   29.8111 H         1 UNK         0.0000 
     41 H41         1.7267   53.6409   26.6076 H         1 UNK         0.0000 
     42 H42         0.0734   51.1086   26.2786 H         1 UNK         0.0000 
     43 H43         2.1304   53.8041   24.6096 H         1 UNK         0.0000 
     44 H44         3.3812   54.6983   22.8350 H         1 UNK         0.0000 
     45 H45        -0.0517   51.6116   22.0971 H         1 UNK         0.0000 
     46 H46         0.6187   49.9964   21.9716 H         1 UNK         0.0000 
     47 H47         1.1299   53.4467   20.0822 H         1 UNK         0.0000 
     48 H48         4.5255   53.4910   18.2239 H         1 UNK         0.0000 
     49 H49         3.3635   52.2362   17.8302 H         1 UNK         0.0000 
     50 H50         2.8062   53.8248   18.3269 H         1 UNK         0.0000 
     51 H51         4.7046   51.2185   19.2250 H         1 UNK         0.0000 
     52 H52        -0.2764   51.6783   29.5757 H         1 UNK         0.0000 
     53 H53         1.3857   52.0973   30.8515 H         1 UNK         0.0000 
@<TRIPOS>BOND
     1    1    2 1    
     2    1   30 1    
     3    1   31 1    
     4    1   32 1    
     5    2    3 1    
     6    2   33 1    
     7    2   34 1    
     8    3    4 1    
     9    3    5 1    
    10    3    6 1    
    11    5   35 1    
    12    5   36 1    
    13    5   37 1    
    14    6    7 1    
    15    6    8 1    
    16    6   29 1    
    17    8    9 1    
    18    8   10 1    
    19    8   28 1    
    20    9   38 1    
    21    9   39 1    
    22    9   40 1    
    23   10   11 2    
    24   10   41 1    
    25   11   12 1    
    26   11   42 1    
    27   12   24 1    
    28   12   13 2    
    29   13   14 1    
    30   13   43 1    
    31   14   21 1    
    32   14   15 2    
    33   15   16 1    
    34   15   44 1    
    35   16   17 2    
    36   16   18 1    
    37   18   19 1    
    38   18   26 1    
    39   18   27 1    
    40   19   20 1    
    41   19   21 1    
    42   19   25 1    
    43   21   22 1    
    44   21   23 1    
    45   23   24 1    
    46   23   45 1    
    47   23   46 1    
    48   25   47 1    
    49   26   48 1    
    50   26   49 1    
    51   26   50 1    
    52   27   51 1    
    53   28   52 1    
    54   29   53 1    
@<TRIPOS>SUBSTRUCTURE
     1 UNK         1 GROUP             0       ****    0 ROOT    
