ZINC23767207_2552
                    3D
 Schrodinger Suite 2024-2.
 50 51  0  0  1  0            999 V2000
    6.3241   54.4410   22.2930 C   0  0  0  0  0  0
    5.5871   54.4699   23.6158 C   0  0  0  0  0  0
    6.2990   54.8629   24.7528 C   0  0  0  0  0  0
    5.6649   54.9307   25.9888 C   0  0  0  0  0  0
    4.3155   54.5994   26.0915 C   0  0  0  0  0  0
    3.6026   54.1842   24.9684 C   0  0  0  0  0  0
    4.2299   54.1126   23.7219 C   0  0  0  0  0  0
    3.4085   53.7036   22.5062 C   0  0  0  0  0  0
    3.4808   54.7400   27.6351 S   0  0  0  0  0  0
    4.2698   53.6769   28.8940 C   0  0  2  0  0  0
    4.7229   54.3613   29.6116 H   0  0  0  0  0  0
    5.4019   52.7883   28.3387 C   0  0  0  0  0  0
    3.1986   52.9003   29.6887 C   0  0  0  0  0  0
    3.3138   51.6969   29.9211 O   0  0  0  0  0  0
    2.1215   53.6034   30.0819 N   0  0  0  0  0  0
    0.8612   53.0010   30.5230 C   0  0  1  0  0  0
    1.0992   52.1158   31.1209 H   0  0  0  0  0  0
    0.0963   53.9610   31.4479 C   0  0  0  0  0  0
   -0.0233   52.5316   29.3551 C   0  0  0  0  0  0
   -1.1061   51.6968   29.6257 C   0  0  0  0  0  0
   -1.9553   51.2966   28.6002 C   0  0  0  0  0  0
   -1.6776   51.6502   27.2814 C   0  0  0  0  0  0
   -0.5785   52.4508   26.9902 C   0  0  0  0  0  0
    0.2334   52.8985   28.0247 C   0  0  0  0  0  0
   -2.7016   51.0112   25.9684 S   0  0  0  0  0  0
   -4.0697   50.9263   26.4893 O   0  0  0  0  0  0
   -2.4000   51.7632   24.7453 O   0  0  0  0  0  0
   -2.1154   49.3852   25.7488 N   0  0  0  0  0  0
    6.2977   55.4195   21.8127 H   0  0  0  0  0  0
    7.3655   54.1685   22.4776 H   0  0  0  0  0  0
    5.9045   53.6989   21.6132 H   0  0  0  0  0  0
    7.3426   55.1317   24.6723 H   0  0  0  0  0  0
    6.2131   55.2573   26.8601 H   0  0  0  0  0  0
    2.5561   53.9338   25.0659 H   0  0  0  0  0  0
    3.7428   52.7383   22.1249 H   0  0  0  0  0  0
    2.3421   53.6412   22.7284 H   0  0  0  0  0  0
    3.5254   54.4361   21.7058 H   0  0  0  0  0  0
    5.5044   51.8552   28.8822 H   0  0  0  0  0  0
    5.2093   52.4967   27.3090 H   0  0  0  0  0  0
    6.3639   53.3005   28.3585 H   0  0  0  0  0  0
    2.0710   54.5684   29.7890 H   0  0  0  0  0  0
   -0.7504   53.4519   31.9049 H   0  0  0  0  0  0
    0.7044   54.3168   32.2759 H   0  0  0  0  0  0
   -0.2703   54.8342   30.9076 H   0  0  0  0  0  0
   -1.3042   51.3662   30.6374 H   0  0  0  0  0  0
   -2.7847   50.6408   28.8290 H   0  0  0  0  0  0
   -0.3487   52.7249   25.9705 H   0  0  0  0  0  0
    1.0610   53.5358   27.7690 H   0  0  0  0  0  0
   -1.1816   49.3568   25.3371 H   0  0  0  0  0  0
   -2.0957   48.8819   26.6502 H   0  0  0  0  0  0
  1  2  1  0  0  0
  1 29  1  0  0  0
  1 30  1  0  0  0
  1 31  1  0  0  0
  2  7  2  0  0  0
  2  3  1  0  0  0
  3  4  2  0  0  0
  3 32  1  0  0  0
  4  5  1  0  0  0
  4 33  1  0  0  0
  5  6  2  0  0  0
  5  9  1  0  0  0
  6  7  1  0  0  0
  6 34  1  0  0  0
  7  8  1  0  0  0
  8 35  1  0  0  0
  8 36  1  0  0  0
  8 37  1  0  0  0
  9 10  1  0  0  0
 10 11  1  0  0  0
 10 12  1  0  0  0
 10 13  1  0  0  0
 12 38  1  0  0  0
 12 39  1  0  0  0
 12 40  1  0  0  0
 13 14  2  0  0  0
 13 15  1  0  0  0
 15 16  1  0  0  0
 15 41  1  0  0  0
 16 17  1  0  0  0
 16 18  1  0  0  0
 16 19  1  0  0  0
 18 42  1  0  0  0
 18 43  1  0  0  0
 18 44  1  0  0  0
 19 24  2  0  0  0
 19 20  1  0  0  0
 20 21  2  0  0  0
 20 45  1  0  0  0
 21 22  1  0  0  0
 21 46  1  0  0  0
 22 23  2  0  0  0
 22 25  1  0  0  0
 23 24  1  0  0  0
 23 47  1  0  0  0
 24 48  1  0  0  0
 25 26  2  0  0  0
 25 27  2  0  0  0
 25 28  1  0  0  0
 28 49  1  0  0  0
 28 50  1  0  0  0
M  END
> <i_i_glide_confnum>
107

> <i_i_glide_lignum>
2553

> <i_i_glide_posenum>
219

> <i_i_glide_rotatable_bonds>
7

> <i_m_Source_File_Index>
5944

> <b_m_subgroup_collapsed>
0

> <r_i_docking_score>
-6.83591

> <r_i_glide_ecoul>
-9.44368

> <r_i_glide_eff_state_penalty>
0

> <r_i_glide_einternal>
12.2948

> <r_i_glide_emodel>
-58.1192

> <r_i_glide_energy>
-45.2739

> <r_i_glide_erotb>
0.760321

> <r_i_glide_esite>
-0.159402

> <r_i_glide_evdw>
-35.8302

> <r_i_glide_gscore>
-6.83591

> <r_i_glide_hbond>
-0.456

> <r_i_glide_ligand_efficiency>
-0.26292

> <r_i_glide_ligand_efficiency_ln>
-1.60539

> <r_i_glide_ligand_efficiency_sa>
-0.778899

> <r_i_glide_lipo>
-2.81959

> <r_i_glide_metal>
0

> <r_i_glide_rewards>
-0.953182

> <s_i_glide_gridfile>
wee1_glide-grid

> <s_m_Source_File>
wee1_decoys_glide_SP.sdf

> <s_m_Source_Path>
/Users/zhangxujun/Desktop

> <s_m_entry_id>
6219

> <s_m_entry_name>
wee1_decoys_glide_SP.5944

> <s_m_subgroup_title>
wee1_decoys_glide_SP

> <s_m_subgroupid>
wee1_decoys_glide_SP


$$$$
