@<TRIPOS>MOLECULE
ZINC09369086_921
52   56    1
SMALL
USER_CHARGES


@<TRIPOS>ATOM
      1 C1         -0.6024   51.5828   24.7382 C.ar      1 UNK         0.0000 
      2 C2         -0.4584   52.7255   23.9556 C.ar      1 UNK         0.0000 
      3 C3          0.6083   52.8188   23.0646 C.ar      1 UNK         0.0000 
      4 C4          1.5328   51.7786   22.9675 C.ar      1 UNK         0.0000 
      5 C5          1.3726   50.6282   23.7502 C.ar      1 UNK         0.0000 
      6 C6          0.3046   50.5323   24.6366 C.ar      1 UNK         0.0000 
      7 N7          2.6392   51.8780   22.0930 N.pl3     1 UNK         0.0000 
      8 C8          3.5706   52.8993   21.9738 C.ar      1 UNK         0.0000 
      9 N9          4.5316   52.5690   21.1501 N.2       1 UNK         0.0000 
     10 N10         4.2486   51.2968   20.6874 N.2       1 UNK         0.0000 
     11 C11         3.1146   50.9166   21.2215 C.ar      1 UNK         0.0000 
     12 S12         2.3039   49.4005   20.8077 S.3       1 UNK         0.0000 
     13 C13         2.0627   49.5824   19.0018 C.3       1 UNK         0.0000 
     14 C14         1.6907   50.9883   18.5173 C.2       1 UNK         0.0000 
     15 O15         0.5363   51.3902   18.6679 O.2       1 UNK         0.0000 
     16 N16         2.7044   51.7058   17.9908 N.am      1 UNK         0.0000 
     17 C17         2.6499   53.0307   17.5992 C.2       1 UNK         0.0000 
     18 N18         1.5969   53.6801   17.1737 N.2       1 UNK         0.0000 
     19 C19         1.9056   54.9728   16.8823 C.ar      1 UNK         0.0000 
     20 C20         0.9897   55.9320   16.4247 C.ar      1 UNK         0.0000 
     21 C21         1.4487   57.2294   16.1871 C.ar      1 UNK         0.0000 
     22 C22         2.7839   57.5742   16.3990 C.ar      1 UNK         0.0000 
     23 C23         3.7145   56.6392   16.8497 C.ar      1 UNK         0.0000 
     24 C24         3.2657   55.3332   17.0940 C.ar      1 UNK         0.0000 
     25 S25         4.1479   53.9263   17.6692 S.3       1 UNK         0.0000 
     26 C26         3.5597   54.2331   22.6954 C.3       1 UNK         0.0000 
     27 N27         3.8947   54.0967   24.1145 N.am      1 UNK         0.0000 
     28 C28         5.0883   54.4116   24.6507 C.2       1 UNK         0.0000 
     29 O29         6.0272   54.8715   23.9998 O.2       1 UNK         0.0000 
     30 C30         5.1922   54.1748   26.0679 C.2       1 UNK         0.0000 
     31 C31         4.2285   53.7054   26.9672 C.2       1 UNK         0.0000 
     32 C32         4.6962   53.6386   28.2845 C.2       1 UNK         0.0000 
     33 C33         6.0166   54.0400   28.3964 C.2       1 UNK         0.0000 
     34 S34         6.7016   54.4965   26.8793 S.3       1 UNK         0.0000 
     35 H35        -1.4270   51.5085   25.4340 H         1 UNK         0.0000 
     36 H36        -1.1709   53.5322   24.0394 H         1 UNK         0.0000 
     37 H37         0.7045   53.6950   22.4460 H         1 UNK         0.0000 
     38 H38         2.0791   49.8105   23.6924 H         1 UNK         0.0000 
     39 H39         0.1869   49.6504   25.2508 H         1 UNK         0.0000 
     40 H40         1.2813   48.8892   18.6886 H         1 UNK         0.0000 
     41 H41         2.9751   49.2435   18.5088 H         1 UNK         0.0000 
     42 H42         3.6357   51.3027   18.0792 H         1 UNK         0.0000 
     43 H43        -0.0463   55.6735   16.2644 H         1 UNK         0.0000 
     44 H44         0.7612   57.9876   15.8452 H         1 UNK         0.0000 
     45 H45         3.0971   58.5953   16.2193 H         1 UNK         0.0000 
     46 H46         4.7458   56.9179   17.0144 H         1 UNK         0.0000 
     47 H47         4.2372   54.9236   22.1924 H         1 UNK         0.0000 
     48 H48         2.5930   54.7272   22.6122 H         1 UNK         0.0000 
     49 H49         3.1896   53.6847   24.7083 H         1 UNK         0.0000 
     50 H50         3.2205   53.4297   26.6919 H         1 UNK         0.0000 
     51 H51         4.0942   53.3112   29.1193 H         1 UNK         0.0000 
     52 H52         6.6304   54.0947   29.2817 H         1 UNK         0.0000 
@<TRIPOS>BOND
     1    1    6 ar   
     2    1    2 ar   
     3    1   35 1    
     4    2    3 ar   
     5    2   36 1    
     6    3    4 ar   
     7    3   37 1    
     8    4    5 ar   
     9    4    7 1    
    10    5    6 ar   
    11    5   38 1    
    12    6   39 1    
    13    7   11 ar   
    14    7    8 ar   
    15    8    9 ar   
    16    8   26 1    
    17    9   10 ar   
    18   10   11 ar   
    19   11   12 1    
    20   12   13 1    
    21   13   14 1    
    22   13   40 1    
    23   13   41 1    
    24   14   15 2    
    25   14   16 am   BACKBONE|DICT|INTERRES
    26   16   17 am   BACKBONE|DICT|INTERRES
    27   16   42 1    
    28   17   25 1    
    29   17   18 2    
    30   18   19 1    
    31   19   24 ar   
    32   19   20 ar   
    33   20   21 ar   
    34   20   43 1    
    35   21   22 ar   
    36   21   44 1    
    37   22   23 ar   
    38   22   45 1    
    39   23   24 ar   
    40   23   46 1    
    41   24   25 1    
    42   26   27 1    
    43   26   47 1    
    44   26   48 1    
    45   27   28 am   BACKBONE|DICT|INTERRES
    46   27   49 1    
    47   28   29 2    
    48   28   30 1    
    49   30   34 1    
    50   30   31 2    
    51   31   32 1    
    52   31   50 1    
    53   32   33 2    
    54   32   51 1    
    55   33   34 1    
    56   33   52 1    
@<TRIPOS>SUBSTRUCTURE
     1 UNK         1 GROUP             0       ****    0 ROOT    
