@<TRIPOS>MOLECULE
ZINC53778479_1334
55   58    1
SMALL
USER_CHARGES


@<TRIPOS>ATOM
      1 C1          2.5891   53.5500   25.1038 C.ar      1 UNK         0.0000 
      2 C2          3.3590   53.7508   23.9584 C.ar      1 UNK         0.0000 
      3 C3          4.6563   54.2320   24.0807 C.ar      1 UNK         0.0000 
      4 C4          5.1623   54.5613   25.3475 C.ar      1 UNK         0.0000 
      5 C5          4.3996   54.3416   26.4880 C.ar      1 UNK         0.0000 
      6 C6          3.1047   53.8075   26.3955 C.ar      1 UNK         0.0000 
      7 C7          2.3060   53.5631   27.7069 C.3       1 UNK         0.0000 
      8 C8          1.9359   54.9105   28.3952 C.3       1 UNK         0.0000 
      9 C9          2.7827   54.9987   29.6675 C.3       1 UNK         0.0000 
     10 C10         2.9604   53.5470   30.1009 C.3       1 UNK         0.0000 
     11 C11         3.1217   52.7805   28.7864 C.3       1 UNK         0.0000 
     12 N12         1.1171   52.7725   27.3441 N.am      1 UNK         0.0000 
     13 C13         0.0854   52.3305   28.0901 C.2       1 UNK         0.0000 
     14 O14        -0.0870   52.6546   29.2613 O.2       1 UNK         0.0000 
     15 C15        -0.9020   51.3434   27.4426 C.3       1 UNK         0.0000 
     16 N16        -0.3733   50.7997   26.0788 N.4       1 UNK         0.0000 
     17 C17        -1.0023   51.5812   24.8952 C.3       1 UNK         0.0000 
     18 C18        -0.4161   51.0599   23.5654 C.3       1 UNK         0.0000 
     19 C19        -0.5845   49.5339   23.4171 C.3       1 UNK         0.0000 
     20 C20         0.0314   48.8023   24.6216 C.3       1 UNK         0.0000 
     21 H21         1.0974   49.0408   24.6563 H         1 UNK         0.0000 
     22 C22        -0.6136   49.2769   25.9412 C.3       1 UNK         0.0000 
     23 O23        -0.1008   47.4073   24.4817 O.3       1 UNK         0.0000 
     24 O24         6.4243   55.0882   25.5175 O.3       1 UNK         0.0000 
     25 C25         6.8983   55.7322   24.3378 C.3       1 UNK         0.0000 
     26 C26         6.7491   54.7892   23.1222 C.3       1 UNK         0.0000 
     27 O27         5.3674   54.4653   22.9182 O.3       1 UNK         0.0000 
     28 H28         1.5854   53.1913   24.9496 H         1 UNK         0.0000 
     29 H29         2.9510   53.5443   22.9796 H         1 UNK         0.0000 
     30 H30         4.8268   54.5949   27.4468 H         1 UNK         0.0000 
     31 H31         2.1254   55.7729   27.7580 H         1 UNK         0.0000 
     32 H32         0.8828   54.9596   28.6734 H         1 UNK         0.0000 
     33 H33         3.7529   55.4438   29.4426 H         1 UNK         0.0000 
     34 H34         2.3046   55.6138   30.4318 H         1 UNK         0.0000 
     35 H35         3.8181   53.4024   30.7600 H         1 UNK         0.0000 
     36 H36         2.0707   53.2098   30.6353 H         1 UNK         0.0000 
     37 H37         2.8116   51.7398   28.8978 H         1 UNK         0.0000 
     38 H38         4.1842   52.7387   28.5455 H         1 UNK         0.0000 
     39 H39         1.0922   52.5488   26.3658 H         1 UNK         0.0000 
     40 H40        -1.8987   51.7641   27.3067 H         1 UNK         0.0000 
     41 H41        -0.9958   50.4968   28.1194 H         1 UNK         0.0000 
     42 H42        -0.7596   52.6359   25.0347 H         1 UNK         0.0000 
     43 H43        -2.0846   51.4457   24.9529 H         1 UNK         0.0000 
     44 H44         0.6406   51.3236   23.4960 H         1 UNK         0.0000 
     45 H45        -0.9032   51.5650   22.7299 H         1 UNK         0.0000 
     46 H46        -0.1374   49.1794   22.4867 H         1 UNK         0.0000 
     47 H47        -1.6488   49.2997   23.3551 H         1 UNK         0.0000 
     48 H48        -1.6929   49.1168   26.0014 H         1 UNK         0.0000 
     49 H49        -0.0954   48.8211   26.7885 H         1 UNK         0.0000 
     50 H50         0.2002   47.0126   25.3176 H         1 UNK         0.0000 
     51 H51         7.9044   56.0910   24.4815 H         1 UNK         0.0000 
     52 H52         6.3044   56.6225   24.1605 H         1 UNK         0.0000 
     53 H53         7.3113   53.8721   23.3086 H         1 UNK         0.0000 
     54 H54         7.1575   55.2510   22.2231 H         1 UNK         0.0000 
     55 H55         0.6312   50.9065   26.0759 H         1 UNK         0.0000 
@<TRIPOS>BOND
     1    1    6 ar   
     2    1    2 ar   
     3    1   28 1    
     4    2    3 ar   
     5    2   29 1    
     6    3   27 1    
     7    3    4 ar   
     8    4    5 ar   
     9    4   24 1    
    10    5    6 ar   
    11    5   30 1    
    12    6    7 1    
    13    7   11 1    
    14    7    8 1    
    15    7   12 1    
    16    8    9 1    
    17    8   31 1    
    18    8   32 1    
    19    9   10 1    
    20    9   33 1    
    21    9   34 1    
    22   10   11 1    
    23   10   35 1    
    24   10   36 1    
    25   11   37 1    
    26   11   38 1    
    27   12   13 am   BACKBONE|DICT|INTERRES
    28   12   39 1    
    29   13   14 2    
    30   13   15 1    
    31   15   16 1    
    32   15   40 1    
    33   15   41 1    
    34   16   22 1    
    35   16   17 1    
    36   16   55 1    
    37   17   18 1    
    38   17   42 1    
    39   17   43 1    
    40   18   19 1    
    41   18   44 1    
    42   18   45 1    
    43   19   20 1    
    44   19   46 1    
    45   19   47 1    
    46   20   21 1    
    47   20   22 1    
    48   20   23 1    
    49   22   48 1    
    50   22   49 1    
    51   23   50 1    
    52   24   25 1    
    53   25   26 1    
    54   25   51 1    
    55   25   52 1    
    56   26   27 1    
    57   26   53 1    
    58   26   54 1    
@<TRIPOS>SUBSTRUCTURE
     1 UNK         1 GROUP             0       ****    0 ROOT    
