@<TRIPOS>MOLECULE
ZINC32811617_772
63   65    1
SMALL
USER_CHARGES


@<TRIPOS>ATOM
      1 C1         -5.5504   47.2713   28.0781 C.3       1 UNK         0.0000 
      2 C2         -6.0427   48.7302   28.2045 C.3       1 UNK         0.0000 
      3 H3         -6.3795   49.0481   27.2159 H         1 UNK         0.0000 
      4 C4         -7.2916   48.8910   29.1029 C.3       1 UNK         0.0000 
      5 C5         -6.9542   48.6941   30.5919 C.3       1 UNK         0.0000 
      6 C6         -5.8570   49.6781   31.0402 C.3       1 UNK         0.0000 
      7 C7         -4.6051   49.6239   30.1367 C.3       1 UNK         0.0000 
      8 C8         -4.9208   49.7310   28.6205 C.3       1 UNK         0.0000 
      9 H9         -5.3368   50.7364   28.5156 H         1 UNK         0.0000 
     10 N10        -3.6957   49.6970   27.8190 N.am      1 UNK         0.0000 
     11 C11        -3.5739   50.0060   26.5193 C.2       1 UNK         0.0000 
     12 O12        -4.4814   50.5149   25.8554 O.2       1 UNK         0.0000 
     13 N13        -2.3300   49.7051   26.0816 N.am      1 UNK         0.0000 
     14 C14        -1.7886   50.0067   24.8769 C.2       1 UNK         0.0000 
     15 O15        -2.4133   50.4250   23.8966 O.2       1 UNK         0.0000 
     16 C16        -0.2674   49.7895   24.7669 C.3       1 UNK         0.0000 
     17 N17         0.3442   50.5685   23.5641 N.4       1 UNK         0.0000 
     18 C18         0.2989   52.1150   23.7770 C.3       1 UNK         0.0000 
     19 C19         1.0989   52.8529   22.6820 C.3       1 UNK         0.0000 
     20 N20         2.4468   52.2693   22.5971 N.pl3     1 UNK         0.0000 
     21 C21         2.4672   50.8660   22.1411 C.3       1 UNK         0.0000 
     22 C22         1.7302   49.9724   23.1676 C.3       1 UNK         0.0000 
     23 S23         3.8898   53.3173   22.4610 S.o2      1 UNK         0.0000 
     24 O24         5.0266   52.4960   22.0267 O.2       1 UNK         0.0000 
     25 O25         3.5046   54.5022   21.7007 O.2       1 UNK         0.0000 
     26 C26         4.2849   53.8785   24.1268 C.ar      1 UNK         0.0000 
     27 C27         3.2987   53.9491   25.1115 C.ar      1 UNK         0.0000 
     28 C28         3.6618   54.0535   26.4498 C.ar      1 UNK         0.0000 
     29 C29         5.0106   54.1025   26.8096 C.ar      1 UNK         0.0000 
     30 C30         5.9865   54.1956   25.8087 C.ar      1 UNK         0.0000 
     31 C31         5.6227   54.0967   24.4673 C.ar      1 UNK         0.0000 
     32 C32         5.3937   53.9797   28.2847 C.3       1 UNK         0.0000 
     33 F33         6.7065   54.0965   28.4795 F         1 UNK         0.0000 
     34 F34         4.7653   54.8967   29.0152 F         1 UNK         0.0000 
     35 F35         5.0183   52.7817   28.7293 F         1 UNK         0.0000 
     36 H36        -5.1437   46.8982   29.0183 H         1 UNK         0.0000 
     37 H37        -6.3631   46.6089   27.7789 H         1 UNK         0.0000 
     38 H38        -4.7653   47.1789   27.3257 H         1 UNK         0.0000 
     39 H39        -8.0658   48.1815   28.8042 H         1 UNK         0.0000 
     40 H40        -7.7213   49.8840   28.9595 H         1 UNK         0.0000 
     41 H41        -7.8486   48.8358   31.1993 H         1 UNK         0.0000 
     42 H42        -6.6277   47.6684   30.7710 H         1 UNK         0.0000 
     43 H43        -6.2609   50.6918   31.0302 H         1 UNK         0.0000 
     44 H44        -5.5761   49.4769   32.0750 H         1 UNK         0.0000 
     45 H45        -3.9056   50.4057   30.4380 H         1 UNK         0.0000 
     46 H46        -4.0962   48.6772   30.3280 H         1 UNK         0.0000 
     47 H47        -2.9463   49.1331   28.2194 H         1 UNK         0.0000 
     48 H48        -1.7221   49.2702   26.7695 H         1 UNK         0.0000 
     49 H49         0.2759   50.0999   25.6615 H         1 UNK         0.0000 
     50 H50        -0.0593   48.7340   24.5828 H         1 UNK         0.0000 
     51 H51        -0.7514   52.4036   23.7193 H         1 UNK         0.0000 
     52 H52         0.6673   52.3171   24.7827 H         1 UNK         0.0000 
     53 H53         0.6165   52.7563   21.7077 H         1 UNK         0.0000 
     54 H54         1.1897   53.9202   22.8873 H         1 UNK         0.0000 
     55 H55         3.5040   50.5493   22.0298 H         1 UNK         0.0000 
     56 H56         1.9922   50.8021   21.1611 H         1 UNK         0.0000 
     57 H57         2.3045   49.8279   24.0819 H         1 UNK         0.0000 
     58 H58         1.5188   48.9933   22.7356 H         1 UNK         0.0000 
     59 H59         2.2585   53.8424   24.8661 H         1 UNK         0.0000 
     60 H60         2.8973   54.0160   27.2129 H         1 UNK         0.0000 
     61 H61         7.0341   54.2557   26.0615 H         1 UNK         0.0000 
     62 H62         6.3925   54.0657   23.7097 H         1 UNK         0.0000 
     63 H63        -0.2360   50.4204   22.7467 H         1 UNK         0.0000 
@<TRIPOS>BOND
     1    1    2 1    
     2    1   36 1    
     3    1   37 1    
     4    1   38 1    
     5    2    3 1    
     6    2    8 1    
     7    2    4 1    
     8    4    5 1    
     9    4   39 1    
    10    4   40 1    
    11    5    6 1    
    12    5   41 1    
    13    5   42 1    
    14    6    7 1    
    15    6   43 1    
    16    6   44 1    
    17    7    8 1    
    18    7   45 1    
    19    7   46 1    
    20    8    9 1    
    21    8   10 1    
    22   10   11 am   BACKBONE|DICT|INTERRES
    23   10   47 1    
    24   11   12 2    
    25   11   13 am   BACKBONE|DICT|INTERRES
    26   13   14 am   BACKBONE|DICT|INTERRES
    27   13   48 1    
    28   14   15 2    
    29   14   16 1    
    30   16   17 1    
    31   16   49 1    
    32   16   50 1    
    33   17   22 1    
    34   17   18 1    
    35   17   63 1    
    36   18   19 1    
    37   18   51 1    
    38   18   52 1    
    39   19   20 1    
    40   19   53 1    
    41   19   54 1    
    42   20   21 1    
    43   20   23 1    
    44   21   22 1    
    45   21   55 1    
    46   21   56 1    
    47   22   57 1    
    48   22   58 1    
    49   23   24 2    
    50   23   25 2    
    51   23   26 1    
    52   26   31 ar   
    53   26   27 ar   
    54   27   28 ar   
    55   27   59 1    
    56   28   29 ar   
    57   28   60 1    
    58   29   30 ar   
    59   29   32 1    
    60   30   31 ar   
    61   30   61 1    
    62   31   62 1    
    63   32   33 1    
    64   32   34 1    
    65   32   35 1    
@<TRIPOS>SUBSTRUCTURE
     1 UNK         1 GROUP             0       ****    0 ROOT    
