ZINC43398798_3887
                    3D
 Schrodinger Suite 2024-2.
 29 30  0  0  1  0            999 V2000
    0.6830   52.9786   23.3873 C   0  0  0  0  0  0
    2.0763   53.4362   23.7628 C   0  0  0  0  0  0
    3.0850   53.5650   22.8180 C   0  0  0  0  0  0
    4.3438   53.9714   23.2507 C   0  0  0  0  0  0
    4.5995   54.2729   24.6062 C   0  0  0  0  0  0
    3.5031   54.1111   25.5001 C   0  0  0  0  0  0
    2.2728   53.6976   25.0719 N   0  0  0  0  0  0
    3.6222   54.4172   26.8527 O   0  0  0  0  0  0
    2.6528   54.1752   27.8108 C   0  0  0  0  0  0
    1.9591   52.9606   27.9060 C   0  0  0  0  0  0
    0.9818   52.7787   28.8842 C   0  0  0  0  0  0
    0.7135   53.7922   29.8028 C   0  0  0  0  0  0
    1.4258   54.9898   29.7409 C   0  0  0  0  0  0
    2.3940   55.1722   28.7543 C   0  0  0  0  0  0
    1.1061   56.2479   30.8794 Cl  0  0  0  0  0  0
    0.1021   51.2981   28.9468 Cl  0  0  0  0  0  0
    5.9832   54.7110   25.0070 C   0  0  0  0  0  0
    6.6806   54.4916   26.5035 S   0  0  0  0  0  0
    6.7033   55.2942   24.0172 N   0  0  0  0  0  0
    0.5644   52.8943   22.3083 H   0  0  0  0  0  0
    0.4772   52.0028   23.8274 H   0  0  0  0  0  0
   -0.0607   53.6850   23.7604 H   0  0  0  0  0  0
    2.9042   53.3448   21.7757 H   0  0  0  0  0  0
    5.1168   54.0386   22.4977 H   0  0  0  0  0  0
    2.1668   52.1633   27.2103 H   0  0  0  0  0  0
   -0.0418   53.6445   30.5628 H   0  0  0  0  0  0
    2.9477   56.0967   28.7165 H   0  0  0  0  0  0
    6.2868   55.4341   23.1094 H   0  0  0  0  0  0
    7.6811   55.5177   24.1598 H   0  0  0  0  0  0
  1  2  1  0  0  0
  1 20  1  0  0  0
  1 21  1  0  0  0
  1 22  1  0  0  0
  2  7  2  0  0  0
  2  3  1  0  0  0
  3  4  2  0  0  0
  3 23  1  0  0  0
  4  5  1  0  0  0
  4 24  1  0  0  0
  5  6  2  0  0  0
  5 17  1  0  0  0
  6  7  1  0  0  0
  6  8  1  0  0  0
  8  9  1  0  0  0
  9 14  2  0  0  0
  9 10  1  0  0  0
 10 11  2  0  0  0
 10 25  1  0  0  0
 11 12  1  0  0  0
 11 16  1  0  0  0
 12 13  2  0  0  0
 12 26  1  0  0  0
 13 14  1  0  0  0
 13 15  1  0  0  0
 14 27  1  0  0  0
 17 18  2  0  0  0
 17 19  1  0  0  0
 19 28  1  0  0  0
 19 29  1  0  0  0
M  END
> <i_i_glide_confnum>
1

> <i_i_glide_lignum>
3888

> <i_i_glide_posenum>
347

> <i_i_glide_rotatable_bonds>
3

> <i_m_Source_File_Index>
4986

> <b_m_subgroup_collapsed>
0

> <r_i_docking_score>
-6.87113

> <r_i_glide_ecoul>
-1.52047

> <r_i_glide_eff_state_penalty>
0

> <r_i_glide_einternal>
1.59801

> <r_i_glide_emodel>
-55.021

> <r_i_glide_energy>
-39.0769

> <r_i_glide_erotb>
0.378623

> <r_i_glide_esite>
0

> <r_i_glide_evdw>
-37.5564

> <r_i_glide_gscore>
-6.87113

> <r_i_glide_hbond>
-0.295947

> <r_i_glide_ligand_efficiency>
-0.361638

> <r_i_glide_ligand_efficiency_ln>
-1.74198

> <r_i_glide_ligand_efficiency_sa>
-0.964996

> <r_i_glide_lipo>
-2.7335

> <r_i_glide_metal>
0

> <r_i_glide_rewards>
-2.11441

> <s_i_glide_gridfile>
wee1_glide-grid

> <s_m_Source_File>
wee1_decoys_glide_SP.sdf

> <s_m_Source_Path>
/Users/zhangxujun/Desktop

> <s_m_entry_id>
5261

> <s_m_entry_name>
wee1_decoys_glide_SP.4986

> <s_m_subgroup_title>
wee1_decoys_glide_SP

> <s_m_subgroupid>
wee1_decoys_glide_SP


$$$$
