@<TRIPOS>MOLECULE
ZINC27825402_1829
32   34    1
SMALL
USER_CHARGES


@<TRIPOS>ATOM
      1 C1          6.3064   54.6888   27.5660 C.3       1 UNK         0.0000 
      2 C2          5.6523   54.5384   26.2066 C.ar      1 UNK         0.0000 
      3 C3          6.4362   54.2692   25.0869 C.ar      1 UNK         0.0000 
      4 C4          5.8424   54.0967   23.8417 C.ar      1 UNK         0.0000 
      5 C5          4.4529   54.2031   23.6992 C.ar      1 UNK         0.0000 
      6 C6          3.6766   54.4967   24.8272 C.ar      1 UNK         0.0000 
      7 C7          4.2693   54.6508   26.0769 C.ar      1 UNK         0.0000 
      8 C8          3.7621   54.0211   22.3370 C.3       1 UNK         0.0000 
      9 H9          3.1201   54.8974   22.2392 H         1 UNK         0.0000 
     10 C10         2.8897   52.7657   22.2684 C.2       1 UNK         0.0000 
     11 C11         3.0136   51.7832   21.2815 C.2       1 UNK         0.0000 
     12 N12         2.2249   50.7316   21.3949 N.2       1 UNK         0.0000 
     13 C13         1.4426   50.8292   22.4372 C.2       1 UNK         0.0000 
     14 N14         0.5396   49.8807   22.8180 N.pl3     1 UNK         0.0000 
     15 S15         1.6213   52.2832   23.3632 S.3       1 UNK         0.0000 
     16 O16         3.9070   51.8655   20.2423 O.3       1 UNK         0.0000 
     17 C17         4.6607   52.9980   20.1850 C.2       1 UNK         0.0000 
     18 C18         4.6717   54.0109   21.0871 C.2       1 UNK         0.0000 
     19 C19         5.5550   55.1183   20.8838 C.1       1 UNK         0.0000 
     20 N20         6.3045   55.9913   20.7470 N.1       1 UNK         0.0000 
     21 N21         5.4321   52.8967   19.0608 N.pl3     1 UNK         0.0000 
     22 H22         7.1279   53.9801   27.6796 H         1 UNK         0.0000 
     23 H23         6.7036   55.6963   27.6814 H         1 UNK         0.0000 
     24 H24         5.6039   54.4884   28.3760 H         1 UNK         0.0000 
     25 H25         7.5043   54.1760   25.1754 H         1 UNK         0.0000 
     26 H26         6.4778   53.8661   23.0002 H         1 UNK         0.0000 
     27 H27         2.6059   54.6005   24.7379 H         1 UNK         0.0000 
     28 H28         3.6535   54.8635   26.9382 H         1 UNK         0.0000 
     29 H29         0.4251   49.0320   22.2847 H         1 UNK         0.0000 
     30 H30         6.0034   53.6569   18.7254 H         1 UNK         0.0000 
     31 H31         5.5045   51.9869   18.5937 H         1 UNK         0.0000 
     32 H32         0.0732   49.9196   23.7135 H         1 UNK         0.0000 
@<TRIPOS>BOND
     1    1    2 1    
     2    1   22 1    
     3    1   23 1    
     4    1   24 1    
     5    2    7 ar   
     6    2    3 ar   
     7    3    4 ar   
     8    3   25 1    
     9    4    5 ar   
    10    4   26 1    
    11    5    6 ar   
    12    5    8 1    
    13    6    7 ar   
    14    6   27 1    
    15    7   28 1    
    16    8    9 1    
    17    8   18 1    
    18    8   10 1    
    19   10   15 1    
    20   10   11 2    
    21   11   12 1    
    22   11   16 1    
    23   12   13 2    
    24   13   14 1    
    25   13   15 1    
    26   14   29 1    
    27   14   32 1    
    28   16   17 1    
    29   17   18 2    
    30   17   21 1    
    31   18   19 1    
    32   19   20 3    
    33   21   30 1    
    34   21   31 1    
@<TRIPOS>SUBSTRUCTURE
     1 UNK         1 GROUP             0       ****    0 ROOT    
