@<TRIPOS>MOLECULE
ZINC39945692_606
56   60    1
SMALL
USER_CHARGES


@<TRIPOS>ATOM
      1 C1         -2.1280   50.2725   24.2400 C.3       1 UNK         0.0000 
      2 C2         -1.8959   50.0970   25.7563 C.3       1 UNK         0.0000 
      3 H3         -2.0084   49.0339   25.9757 H         1 UNK         0.0000 
      4 C4         -2.9590   50.8400   26.5989 C.2       1 UNK         0.0000 
      5 O5         -3.4282   51.9067   26.1950 O.2       1 UNK         0.0000 
      6 N6         -3.2957   50.2657   27.7725 N.am      1 UNK         0.0000 
      7 C7         -4.3086   50.6555   28.6707 C.ar      1 UNK         0.0000 
      8 C8         -4.1668   50.2524   30.0000 C.ar      1 UNK         0.0000 
      9 C9         -5.1340   50.5701   30.9528 C.ar      1 UNK         0.0000 
     10 C10        -6.2635   51.2959   30.5795 C.ar      1 UNK         0.0000 
     11 C11        -6.4226   51.7015   29.2541 C.ar      1 UNK         0.0000 
     12 C12        -5.4560   51.3748   28.2993 C.ar      1 UNK         0.0000 
     13 Cl13       -7.8126   52.6180   28.7988 Cl        1 UNK         0.0000 
     14 S14        -0.1825   50.4922   26.2480 S.3       1 UNK         0.0000 
     15 C15        -0.0815   52.3008   26.1414 C.3       1 UNK         0.0000 
     16 H16        -1.0173   52.7259   26.5049 H         1 UNK         0.0000 
     17 N17         0.1943   52.8050   24.8090 N.pl3     1 UNK         0.0000 
     18 N18         1.5131   53.2170   24.7130 N.2       1 UNK         0.0000 
     19 C19         1.9501   53.3225   25.8916 C.2       1 UNK         0.0000 
     20 N20         1.0446   52.8959   26.8523 N.pl3     1 UNK         0.0000 
     21 C21         0.8794   53.1911   28.2286 C.ar      1 UNK         0.0000 
     22 C22         0.4395   52.2032   29.1201 C.ar      1 UNK         0.0000 
     23 C23         0.2452   52.4952   30.4654 C.ar      1 UNK         0.0000 
     24 C24         0.5070   53.7727   30.9354 C.ar      1 UNK         0.0000 
     25 C25         0.9358   54.7747   30.0690 C.ar      1 UNK         0.0000 
     26 C26         1.1040   54.4864   28.7155 C.ar      1 UNK         0.0000 
     27 Cl27        0.3043   54.0963   32.6149 Cl        1 UNK         0.0000 
     28 C28         3.3117   53.7673   26.1618 C.2       1 UNK         0.0000 
     29 C29         4.2614   54.0788   25.2433 C.2       1 UNK         0.0000 
     30 C30         4.2684   54.0990   23.7627 C.2       1 UNK         0.0000 
     31 C31         5.3937   54.3733   23.0736 C.2       1 UNK         0.0000 
     32 C32         6.5971   54.6743   23.8288 C.2       1 UNK         0.0000 
     33 C33         6.6087   54.6655   25.1861 C.2       1 UNK         0.0000 
     34 C34         5.4631   54.3429   25.9119 C.2       1 UNK         0.0000 
     35 N35         5.3289   54.2177   27.2087 N.pl3     1 UNK         0.0000 
     36 C36         3.9512   53.8358   27.5366 C.3       1 UNK         0.0000 
     37 H37        -3.1319   49.9572   23.9510 H         1 UNK         0.0000 
     38 H38        -2.0061   51.3098   23.9281 H         1 UNK         0.0000 
     39 H39        -1.4258   49.6668   23.6641 H         1 UNK         0.0000 
     40 H40        -2.7016   49.4896   28.0814 H         1 UNK         0.0000 
     41 H41        -3.2958   49.6972   30.3085 H         1 UNK         0.0000 
     42 H42        -4.9975   50.2620   31.9799 H         1 UNK         0.0000 
     43 H43        -7.0155   51.5368   31.3172 H         1 UNK         0.0000 
     44 H44        -5.6116   51.6854   27.2781 H         1 UNK         0.0000 
     45 H45         0.0270   52.1489   24.0603 H         1 UNK         0.0000 
     46 H46         0.2437   51.1969   28.7898 H         1 UNK         0.0000 
     47 H47        -0.1048   51.7305   31.1472 H         1 UNK         0.0000 
     48 H48         1.1166   55.7740   30.4381 H         1 UNK         0.0000 
     49 H49         1.3966   55.2774   28.0406 H         1 UNK         0.0000 
     50 H50         3.3832   53.9032   23.1751 H         1 UNK         0.0000 
     51 H51         5.3975   54.3922   21.9932 H         1 UNK         0.0000 
     52 H52         7.5045   54.9206   23.2939 H         1 UNK         0.0000 
     53 H53         7.5152   54.8970   25.7033 H         1 UNK         0.0000 
     54 H54         3.5630   54.6157   28.1863 H         1 UNK         0.0000 
     55 H55         3.9742   52.8780   28.0582 H         1 UNK         0.0000 
     56 H56         6.0654   54.3501   27.8976 H         1 UNK         0.0000 
@<TRIPOS>BOND
     1    1    2 1    
     2    1   37 1    
     3    1   38 1    
     4    1   39 1    
     5    2    3 1    
     6    2    4 1    
     7    2   14 1    
     8    4    5 2    
     9    4    6 am   BACKBONE|DICT|INTERRES
    10    6    7 1    
    11    6   40 1    
    12    7   12 ar   
    13    7    8 ar   
    14    8    9 ar   
    15    8   41 1    
    16    9   10 ar   
    17    9   42 1    
    18   10   11 ar   
    19   10   43 1    
    20   11   12 ar   
    21   11   13 1    
    22   12   44 1    
    23   14   15 1    
    24   15   16 1    
    25   15   20 1    
    26   15   17 1    
    27   17   18 1    
    28   17   45 1    
    29   18   19 2    
    30   19   20 1    
    31   19   28 1    
    32   20   21 1    
    33   21   26 ar   
    34   21   22 ar   
    35   22   23 ar   
    36   22   46 1    
    37   23   24 ar   
    38   23   47 1    
    39   24   25 ar   
    40   24   27 1    
    41   25   26 ar   
    42   25   48 1    
    43   26   49 1    
    44   28   36 1    
    45   28   29 2    
    46   29   34 1    
    47   29   30 1    
    48   30   31 2    
    49   30   50 1    
    50   31   32 1    
    51   31   51 1    
    52   32   33 2    
    53   32   52 1    
    54   33   34 1    
    55   33   53 1    
    56   34   35 2    
    57   35   36 1    
    58   35   56 1    
    59   36   54 1    
    60   36   55 1    
@<TRIPOS>SUBSTRUCTURE
     1 UNK         1 GROUP             0       ****    0 ROOT    
