@<TRIPOS>MOLECULE
ZINC35676159_4780
31   33    1
SMALL
USER_CHARGES


@<TRIPOS>ATOM
      1 C1          0.2392   49.5951   23.1937 C.ar      1 UNK         0.0000 
      2 C2          0.2251   50.9872   23.0968 C.ar      1 UNK         0.0000 
      3 C3         -0.0818   51.7644   24.2140 C.ar      1 UNK         0.0000 
      4 C4         -0.3373   51.1447   25.4459 C.ar      1 UNK         0.0000 
      5 C5         -0.3233   49.7492   25.5391 C.ar      1 UNK         0.0000 
      6 C6         -0.0527   48.9765   24.4093 C.ar      1 UNK         0.0000 
      7 F7         -0.0957   47.6275   24.4816 F         1 UNK         0.0000 
      8 S8         -0.7849   52.0967   26.8713 S.3       1 UNK         0.0000 
      9 C9          0.7673   52.5902   27.6016 C.ar      1 UNK         0.0000 
     10 C10         1.7945   53.0942   26.7900 C.ar      1 UNK         0.0000 
     11 C11         2.9816   53.5519   27.3613 C.ar      1 UNK         0.0000 
     12 C12         3.1526   53.4871   28.7433 C.ar      1 UNK         0.0000 
     13 C13         2.1418   52.9958   29.5670 C.ar      1 UNK         0.0000 
     14 C14         0.9430   52.5537   28.9998 C.ar      1 UNK         0.0000 
     15 N15        -0.0658   52.0967   29.8525 N.pl3     1 UNK         0.0000 
     16 O16         4.3030   53.9987   29.3080 O.3       1 UNK         0.0000 
     17 C17         5.4932   53.8999   28.4816 C.3       1 UNK         0.0000 
     18 C18         5.2772   54.3144   26.9980 C.2       1 UNK         0.0000 
     19 O19         6.1475   54.8029   26.2796 O.2       1 UNK         0.0000 
     20 N20         4.0131   54.0874   26.5887 N.am      1 UNK         0.0000 
     21 F21        -0.1386   53.1111   24.0832 F         1 UNK         0.0000 
     22 H22         0.4597   48.9925   22.3253 H         1 UNK         0.0000 
     23 H23         0.4361   51.4642   22.1508 H         1 UNK         0.0000 
     24 H24        -0.5492   49.2580   26.4763 H         1 UNK         0.0000 
     25 H25         1.6693   53.1568   25.7211 H         1 UNK         0.0000 
     26 H26         2.2819   52.9710   30.6366 H         1 UNK         0.0000 
     27 H27        -0.8666   51.6320   29.4439 H         1 UNK         0.0000 
     28 H28         0.0612   52.0936   30.8553 H         1 UNK         0.0000 
     29 H29         5.8102   52.8562   28.4490 H         1 UNK         0.0000 
     30 H30         6.3041   54.4953   28.8998 H         1 UNK         0.0000 
     31 H31         3.8526   54.2899   25.6138 H         1 UNK         0.0000 
@<TRIPOS>BOND
     1    1    6 ar   
     2    1    2 ar   
     3    1   22 1    
     4    2    3 ar   
     5    2   23 1    
     6    3    4 ar   
     7    3   21 1    
     8    4    5 ar   
     9    4    8 1    
    10    5    6 ar   
    11    5   24 1    
    12    6    7 1    
    13    8    9 1    
    14    9   14 ar   
    15    9   10 ar   
    16   10   11 ar   
    17   10   25 1    
    18   11   20 1    
    19   11   12 ar   
    20   12   13 ar   
    21   12   16 1    
    22   13   14 ar   
    23   13   26 1    
    24   14   15 1    
    25   15   27 1    
    26   15   28 1    
    27   16   17 1    
    28   17   18 1    
    29   17   29 1    
    30   17   30 1    
    31   18   19 2    
    32   18   20 am   BACKBONE|DICT|INTERRES
    33   20   31 1    
@<TRIPOS>SUBSTRUCTURE
     1 UNK         1 GROUP             0       ****    0 ROOT    
