@<TRIPOS>MOLECULE
ZINC29370934_1183
65   68    1
SMALL
USER_CHARGES


@<TRIPOS>ATOM
      1 C1          3.1238   52.4839   18.7480 C.3       1 UNK         0.0000 
      2 C2          4.3916   53.3282   18.7767 C.ar      1 UNK         0.0000 
      3 C3          5.2536   53.2967   17.6727 C.ar      1 UNK         0.0000 
      4 C4          6.4560   54.0139   17.6644 C.ar      1 UNK         0.0000 
      5 C5          6.7718   54.7993   18.7758 C.ar      1 UNK         0.0000 
      6 C6          5.9208   54.8507   19.8753 C.ar      1 UNK         0.0000 
      7 C7          4.7432   54.0909   19.9019 C.ar      1 UNK         0.0000 
      8 N8          3.9202   54.0990   21.0425 N.am      1 UNK         0.0000 
      9 C9          4.3822   53.9259   22.3018 C.2       1 UNK         0.0000 
     10 O10         5.5413   53.6309   22.6020 O.2       1 UNK         0.0000 
     11 C11         3.2549   54.0964   23.4067 C.2       1 UNK         0.0000 
     12 O12         2.0735   54.1199   23.0454 O.2       1 UNK         0.0000 
     13 C13         3.6272   54.0832   24.8340 C.ar      1 UNK         0.0000 
     14 C14         4.7983   54.5373   25.4989 C.ar      1 UNK         0.0000 
     15 N15         4.7358   54.2929   26.7827 N.2       1 UNK         0.0000 
     16 N16         3.5538   53.7112   27.0083 N.pl3     1 UNK         0.0000 
     17 C17         2.8156   53.5691   25.8487 C.ar      1 UNK         0.0000 
     18 C18         1.4653   52.8720   25.7690 C.3       1 UNK         0.0000 
     19 C19         3.2517   53.2959   28.3227 C.ar      1 UNK         0.0000 
     20 C20         4.2116   52.5954   29.0654 C.ar      1 UNK         0.0000 
     21 C21         3.9122   52.1411   30.3449 C.ar      1 UNK         0.0000 
     22 C22         2.6606   52.3889   30.8911 C.ar      1 UNK         0.0000 
     23 C23         1.7016   53.1106   30.1815 C.ar      1 UNK         0.0000 
     24 C24         2.0041   53.5716   28.8957 C.ar      1 UNK         0.0000 
     25 C25         0.3392   53.3771   30.8008 C.3       1 UNK         0.0000 
     26 F26         0.3630   53.2972   32.1299 F         1 UNK         0.0000 
     27 F27        -0.5002   52.4657   30.3231 F         1 UNK         0.0000 
     28 F28        -0.0957   54.5910   30.4810 F         1 UNK         0.0000 
     29 C29         6.0480   55.2437   25.0141 C.3       1 UNK         0.0000 
     30 N30         7.3528   53.9425   16.6060 N.pl3     1 UNK         0.0000 
     31 C31         6.9220   53.8119   15.2018 C.3       1 UNK         0.0000 
     32 C32         7.1504   52.4101   14.5931 C.3       1 UNK         0.0000 
     33 N33         8.6384   52.0460   14.7611 N.4       1 UNK         0.0000 
     34 C34         8.9732   52.0273   16.2654 C.3       1 UNK         0.0000 
     35 C35         8.7237   53.4454   16.8272 C.3       1 UNK         0.0000 
     36 C36         8.9623   50.6943   14.0855 C.3       1 UNK         0.0000 
     37 H37         3.1329   51.7564   17.9350 H         1 UNK         0.0000 
     38 H38         3.0256   51.9123   19.6718 H         1 UNK         0.0000 
     39 H39         2.2439   53.1177   18.6506 H         1 UNK         0.0000 
     40 H40         5.0037   52.6672   16.8320 H         1 UNK         0.0000 
     41 H41         7.6870   55.3726   18.7934 H         1 UNK         0.0000 
     42 H42         6.2004   55.4595   20.7223 H         1 UNK         0.0000 
     43 H43         2.9275   54.2502   20.8993 H         1 UNK         0.0000 
     44 H44         0.7042   53.5373   25.3661 H         1 UNK         0.0000 
     45 H45         1.5128   52.0267   25.0806 H         1 UNK         0.0000 
     46 H46         1.0935   52.4667   26.7073 H         1 UNK         0.0000 
     47 H47         5.1855   52.3850   28.6449 H         1 UNK         0.0000 
     48 H48         4.6596   51.6125   30.9179 H         1 UNK         0.0000 
     49 H49         2.4453   52.0320   31.8900 H         1 UNK         0.0000 
     50 H50         1.2632   54.1332   28.3432 H         1 UNK         0.0000 
     51 H51         6.8765   54.5470   24.8780 H         1 UNK         0.0000 
     52 H52         5.9055   55.7559   24.0690 H         1 UNK         0.0000 
     53 H53         6.3869   56.0074   25.7145 H         1 UNK         0.0000 
     54 H54         5.8740   54.0966   15.0916 H         1 UNK         0.0000 
     55 H55         7.5076   54.5486   14.6503 H         1 UNK         0.0000 
     56 H56         6.9614   52.4317   13.5183 H         1 UNK         0.0000 
     57 H57         6.5502   51.6312   15.0681 H         1 UNK         0.0000 
     58 H58        10.0315   51.7729   16.3456 H         1 UNK         0.0000 
     59 H59         8.3658   51.2591   16.7493 H         1 UNK         0.0000 
     60 H60         9.3841   54.1603   16.3348 H         1 UNK         0.0000 
     61 H61         8.9778   53.4583   17.8889 H         1 UNK         0.0000 
     62 H62         8.3056   49.9228   14.4837 H         1 UNK         0.0000 
     63 H63         8.8016   50.8224   13.0131 H         1 UNK         0.0000 
     64 H64        10.0115   50.4616   14.2814 H         1 UNK         0.0000 
     65 H65         9.2019   52.7599   14.3187 H         1 UNK         0.0000 
@<TRIPOS>BOND
     1    1    2 1    
     2    1   37 1    
     3    1   38 1    
     4    1   39 1    
     5    2    7 ar   
     6    2    3 ar   
     7    3    4 ar   
     8    3   40 1    
     9    4    5 ar   
    10    4   30 1    
    11    5    6 ar   
    12    5   41 1    
    13    6    7 ar   
    14    6   42 1    
    15    7    8 1    
    16    8    9 am   BACKBONE|DICT|INTERRES
    17    8   43 1    
    18    9   10 2    
    19    9   11 1    
    20   11   12 2    
    21   11   13 1    
    22   13   17 ar   
    23   13   14 ar   
    24   14   15 ar   
    25   14   29 1    
    26   15   16 ar   
    27   16   17 ar   
    28   16   19 1    
    29   17   18 1    
    30   18   44 1    
    31   18   45 1    
    32   18   46 1    
    33   19   24 ar   
    34   19   20 ar   
    35   20   21 ar   
    36   20   47 1    
    37   21   22 ar   
    38   21   48 1    
    39   22   23 ar   
    40   22   49 1    
    41   23   24 ar   
    42   23   25 1    
    43   24   50 1    
    44   25   26 1    
    45   25   27 1    
    46   25   28 1    
    47   29   51 1    
    48   29   52 1    
    49   29   53 1    
    50   30   35 1    
    51   30   31 1    
    52   31   32 1    
    53   31   54 1    
    54   31   55 1    
    55   32   33 1    
    56   32   56 1    
    57   32   57 1    
    58   33   34 1    
    59   33   36 1    
    60   33   65 1    
    61   34   35 1    
    62   34   58 1    
    63   34   59 1    
    64   35   60 1    
    65   35   61 1    
    66   36   62 1    
    67   36   63 1    
    68   36   64 1    
@<TRIPOS>SUBSTRUCTURE
     1 UNK         1 GROUP             0       ****    0 ROOT    
