@<TRIPOS>MOLECULE
ZINC38547556_2200
58   61    1
SMALL
USER_CHARGES


@<TRIPOS>ATOM
      1 C1          1.8194   48.4950   20.8434 C.3       1 UNK         0.0000 
      2 C2          2.1899   49.9347   20.6095 C.ar      1 UNK         0.0000 
      3 C3          2.7009   50.3952   19.3951 C.ar      1 UNK         0.0000 
      4 C4          3.0330   51.7442   19.2621 C.ar      1 UNK         0.0000 
      5 C5          2.8412   52.6090   20.3404 C.ar      1 UNK         0.0000 
      6 C6          2.3279   52.1135   21.5418 C.ar      1 UNK         0.0000 
      7 N7          2.0244   50.8023   21.6259 N.pl3     1 UNK         0.0000 
      8 N8          2.1771   52.9707   22.6606 N.pl3     1 UNK         0.0000 
      9 C9          1.8719   52.4875   24.0199 C.3       1 UNK         0.0000 
     10 H10         2.3930   51.5357   24.0526 H         1 UNK         0.0000 
     11 C11         0.3745   52.1562   24.1580 C.ar      1 UNK         0.0000 
     12 C12        -0.5738   53.1607   23.9517 C.ar      1 UNK         0.0000 
     13 C13        -1.9367   52.8968   24.0811 C.ar      1 UNK         0.0000 
     14 C14        -2.3681   51.6256   24.4384 C.ar      1 UNK         0.0000 
     15 C15        -1.4363   50.6183   24.6659 C.ar      1 UNK         0.0000 
     16 C16        -0.0618   50.8700   24.5287 C.ar      1 UNK         0.0000 
     17 O17         0.8887   49.9030   24.7609 O.3       1 UNK         0.0000 
     18 C18         0.5877   48.8974   25.7234 C.3       1 UNK         0.0000 
     19 C19         2.5463   53.2965   25.1601 C.2       1 UNK         0.0000 
     20 C20         3.8024   53.9746   25.0424 C.2       1 UNK         0.0000 
     21 C21         4.2695   54.5035   26.2513 C.2       1 UNK         0.0000 
     22 S22         3.0803   54.3633   27.4936 S.3       1 UNK         0.0000 
     23 C23         2.0811   53.3647   26.4840 C.2       1 UNK         0.0000 
     24 N24         0.8965   52.7850   26.9307 N.am      1 UNK         0.0000 
     25 C25         0.4080   52.4550   28.1446 C.2       1 UNK         0.0000 
     26 O26        -0.7682   52.1093   28.2299 O.2       1 UNK         0.0000 
     27 C27         1.2277   52.4451   29.3307 C.2       1 UNK         0.0000 
     28 C28         2.5531   52.0832   29.5728 C.2       1 UNK         0.0000 
     29 C29         2.7389   52.0997   30.9578 C.2       1 UNK         0.0000 
     30 C30         1.5035   52.4153   31.5044 C.2       1 UNK         0.0000 
     31 O31         0.5919   52.6109   30.5224 O.3       1 UNK         0.0000 
     32 C32         5.6186   55.1275   26.5441 C.3       1 UNK         0.0000 
     33 C33         4.6714   54.0153   23.7929 C.3       1 UNK         0.0000 
     34 H34         2.0548   47.8801   19.9734 H         1 UNK         0.0000 
     35 H35         2.3719   48.0988   21.6948 H         1 UNK         0.0000 
     36 H36         0.7504   48.4091   21.0426 H         1 UNK         0.0000 
     37 H37         2.8681   49.7223   18.5632 H         1 UNK         0.0000 
     38 H38         3.4488   52.1018   18.3294 H         1 UNK         0.0000 
     39 H39         3.1045   53.6529   20.2382 H         1 UNK         0.0000 
     40 H40         2.3985   53.9488   22.5513 H         1 UNK         0.0000 
     41 H41        -0.2473   54.1549   23.6841 H         1 UNK         0.0000 
     42 H42        -2.6570   53.6843   23.9076 H         1 UNK         0.0000 
     43 H43        -3.4234   51.4225   24.5450 H         1 UNK         0.0000 
     44 H44        -1.7925   49.6412   24.9511 H         1 UNK         0.0000 
     45 H45         1.5218   48.4945   26.1004 H         1 UNK         0.0000 
     46 H46         0.0512   49.2906   26.5884 H         1 UNK         0.0000 
     47 H47         0.0080   48.0867   25.2841 H         1 UNK         0.0000 
     48 H48         0.3315   52.4216   26.1769 H         1 UNK         0.0000 
     49 H49         3.2959   51.8187   28.8324 H         1 UNK         0.0000 
     50 H50         3.6492   51.8898   31.4971 H         1 UNK         0.0000 
     51 H51         1.1300   52.5064   32.5150 H         1 UNK         0.0000 
     52 H52         5.8498   55.9296   25.8443 H         1 UNK         0.0000 
     53 H53         5.6931   55.5273   27.5545 H         1 UNK         0.0000 
     54 H54         6.4152   54.3914   26.4458 H         1 UNK         0.0000 
     55 H55         4.6824   53.0620   23.2667 H         1 UNK         0.0000 
     56 H56         4.3206   54.7626   23.0825 H         1 UNK         0.0000 
     57 H57         5.7199   54.2232   24.0022 H         1 UNK         0.0000 
     58 H58         1.6522   50.4603   22.5005 H         1 UNK         0.0000 
@<TRIPOS>BOND
     1    1    2 1    
     2    1   34 1    
     3    1   35 1    
     4    1   36 1    
     5    2    7 ar   
     6    2    3 ar   
     7    3    4 ar   
     8    3   37 1    
     9    4    5 ar   
    10    4   38 1    
    11    5    6 ar   
    12    5   39 1    
    13    6    7 ar   
    14    6    8 1    
    15    7   58 1    
    16    8    9 1    
    17    8   40 1    
    18    9   10 1    
    19    9   11 1    
    20    9   19 1    
    21   11   16 ar   
    22   11   12 ar   
    23   12   13 ar   
    24   12   41 1    
    25   13   14 ar   
    26   13   42 1    
    27   14   15 ar   
    28   14   43 1    
    29   15   16 ar   
    30   15   44 1    
    31   16   17 1    
    32   17   18 1    
    33   18   45 1    
    34   18   46 1    
    35   18   47 1    
    36   19   23 2    
    37   19   20 1    
    38   20   21 2    
    39   20   33 1    
    40   21   22 1    
    41   21   32 1    
    42   22   23 1    
    43   23   24 am   BACKBONE|DICT|INTERRES
    44   24   25 am   BACKBONE|DICT|INTERRES
    45   24   48 1    
    46   25   26 2    
    47   25   27 1    
    48   27   31 1    
    49   27   28 2    
    50   28   29 1    
    51   28   49 1    
    52   29   30 2    
    53   29   50 1    
    54   30   31 1    
    55   30   51 1    
    56   32   52 1    
    57   32   53 1    
    58   32   54 1    
    59   33   55 1    
    60   33   56 1    
    61   33   57 1    
@<TRIPOS>SUBSTRUCTURE
     1 UNK         1 GROUP             0       ****    0 ROOT    
