@<TRIPOS>MOLECULE
ZINC40313686_1839
41   43    1
SMALL
USER_CHARGES


@<TRIPOS>ATOM
      1 C1          6.2700   54.4759   25.9413 C.ar      1 UNK         0.0000 
      2 C2          5.7121   54.4471   27.2192 C.ar      1 UNK         0.0000 
      3 C3          4.3219   54.4710   27.3917 C.ar      1 UNK         0.0000 
      4 C4          3.5042   54.4863   26.2601 C.ar      1 UNK         0.0000 
      5 C5          4.0537   54.4967   24.9850 C.ar      1 UNK         0.0000 
      6 C6          5.4454   54.4981   24.8151 C.ar      1 UNK         0.0000 
      7 N7          6.0643   54.6026   23.5534 N.am      1 UNK         0.0000 
      8 C8          5.5122   54.3464   22.3460 C.2       1 UNK         0.0000 
      9 O9          4.4638   53.7250   22.1673 O.2       1 UNK         0.0000 
     10 C10         6.2297   54.8973   21.2255 C.ar      1 UNK         0.0000 
     11 C11         7.4529   55.5741   21.1347 C.ar      1 UNK         0.0000 
     12 C12         7.7250   55.8657   19.7898 C.ar      1 UNK         0.0000 
     13 C13         6.6505   55.3823   19.0717 C.ar      1 UNK         0.0000 
     14 N14         5.7656   54.7968   19.9371 N.pl3     1 UNK         0.0000 
     15 H15         4.9004   54.3426   19.6725 H         1 UNK         0.0000 
     16 N16         8.8166   56.4931   19.2779 N.pl3     1 UNK         0.0000 
     17 N17         3.7738   54.4892   28.6698 N.pl3     1 UNK         0.0000 
     18 C18         2.4655   55.0791   29.0037 C.3       1 UNK         0.0000 
     19 C19         1.3488   54.0122   29.0502 C.3       1 UNK         0.0000 
     20 C20         1.6866   52.8884   30.0438 C.3       1 UNK         0.0000 
     21 C21         3.1075   52.3580   29.7845 C.3       1 UNK         0.0000 
     22 C22         4.1503   53.4892   29.6761 C.3       1 UNK         0.0000 
     23 H23         7.3437   54.4839   25.8329 H         1 UNK         0.0000 
     24 H24         6.3674   54.4447   28.0787 H         1 UNK         0.0000 
     25 H25         2.4306   54.4969   26.3590 H         1 UNK         0.0000 
     26 H26         3.3774   54.5440   24.1461 H         1 UNK         0.0000 
     27 H27         6.9940   54.9923   23.5568 H         1 UNK         0.0000 
     28 H28         8.1090   55.8194   21.9566 H         1 UNK         0.0000 
     29 H29         6.4457   55.3899   18.0109 H         1 UNK         0.0000 
     30 H30         9.7148   56.4504   19.7452 H         1 UNK         0.0000 
     31 H31         8.8524   56.7533   18.3032 H         1 UNK         0.0000 
     32 H32         2.5506   55.5557   29.9818 H         1 UNK         0.0000 
     33 H33         2.2191   55.8832   28.3094 H         1 UNK         0.0000 
     34 H34         0.4073   54.4843   29.3349 H         1 UNK         0.0000 
     35 H35         1.1736   53.6017   28.0545 H         1 UNK         0.0000 
     36 H36         0.9588   52.0776   29.9661 H         1 UNK         0.0000 
     37 H37         1.6107   53.2694   31.0632 H         1 UNK         0.0000 
     38 H38         3.1387   51.7411   28.8852 H         1 UNK         0.0000 
     39 H39         3.3979   51.6963   30.6001 H         1 UNK         0.0000 
     40 H40         5.1149   53.0543   29.4225 H         1 UNK         0.0000 
     41 H41         4.2882   53.9855   30.6376 H         1 UNK         0.0000 
@<TRIPOS>BOND
     1    1    6 ar   
     2    1    2 ar   
     3    1   23 1    
     4    2    3 ar   
     5    2   24 1    
     6    3    4 ar   
     7    3   17 1    
     8    4    5 ar   
     9    4   25 1    
    10    5    6 ar   
    11    5   26 1    
    12    6    7 1    
    13    7    8 am   BACKBONE|DICT|INTERRES
    14    7   27 1    
    15    8    9 2    
    16    8   10 1    
    17   10   14 ar   
    18   10   11 ar   
    19   11   12 ar   
    20   11   28 1    
    21   12   13 ar   
    22   12   16 1    
    23   13   14 ar   
    24   13   29 1    
    25   14   15 1    
    26   16   30 1    
    27   16   31 1    
    28   17   22 1    
    29   17   18 1    
    30   18   19 1    
    31   18   32 1    
    32   18   33 1    
    33   19   20 1    
    34   19   34 1    
    35   19   35 1    
    36   20   21 1    
    37   20   36 1    
    38   20   37 1    
    39   21   22 1    
    40   21   38 1    
    41   21   39 1    
    42   22   40 1    
    43   22   41 1    
@<TRIPOS>SUBSTRUCTURE
     1 UNK         1 GROUP             0       ****    0 ROOT    
