@<TRIPOS>MOLECULE
ZINC03320340_1874
40   41    1
SMALL
USER_CHARGES


@<TRIPOS>ATOM
      1 C1         -2.5047   47.8312   22.4102 C.3       1 UNK         0.0000 
      2 C2         -1.6678   48.8943   23.0946 C.ar      1 UNK         0.0000 
      3 C3         -0.4569   48.5484   23.7017 C.ar      1 UNK         0.0000 
      4 C4          0.3090   49.5225   24.3373 C.ar      1 UNK         0.0000 
      5 C5         -0.1319   50.8517   24.3843 C.ar      1 UNK         0.0000 
      6 C6         -1.3618   51.2028   23.7903 C.ar      1 UNK         0.0000 
      7 C7         -2.1160   50.2166   23.1468 C.ar      1 UNK         0.0000 
      8 C8         -1.9018   52.6251   23.8534 C.3       1 UNK         0.0000 
      9 N9          0.6450   51.7935   25.1008 N.pl3     1 UNK         0.0000 
     10 C10         0.6170   51.8797   26.4744 C.2       1 UNK         0.0000 
     11 C11         1.3871   52.8535   27.0251 C.2       1 UNK         0.0000 
     12 S12         2.2814   53.6360   25.7136 S.3       1 UNK         0.0000 
     13 C13         1.5052   52.6654   24.4905 C.2       1 UNK         0.0000 
     14 S14         1.8917   52.8962   22.8828 S.2       1 UNK         0.0000 
     15 C15         1.5975   53.2403   28.4068 C.2       1 UNK         0.0000 
     16 O16         2.5822   53.8883   28.7590 O.2       1 UNK         0.0000 
     17 N17         0.6437   52.8354   29.2662 N.am      1 UNK         0.0000 
     18 C18         0.6102   53.0081   30.7186 C.3       1 UNK         0.0000 
     19 C19         1.8291   52.3703   31.4072 C.3       1 UNK         0.0000 
     20 C20         0.4050   54.4750   31.1371 C.3       1 UNK         0.0000 
     21 N21        -0.1567   50.9778   27.1839 N.pl3     1 UNK         0.0000 
     22 H22        -3.5672   48.0799   22.4570 H         1 UNK         0.0000 
     23 H23        -2.2116   47.7302   21.3633 H         1 UNK         0.0000 
     24 H24        -2.3882   46.8652   22.9031 H         1 UNK         0.0000 
     25 H25        -0.1019   47.5314   23.6847 H         1 UNK         0.0000 
     26 H26         1.2385   49.2316   24.8081 H         1 UNK         0.0000 
     27 H27        -3.0585   50.4736   22.6869 H         1 UNK         0.0000 
     28 H28        -2.9187   52.7053   23.4656 H         1 UNK         0.0000 
     29 H29        -1.9106   52.9794   24.8873 H         1 UNK         0.0000 
     30 H30        -1.2616   53.2962   23.2832 H         1 UNK         0.0000 
     31 H31        -0.1727   52.4120   28.8539 H         1 UNK         0.0000 
     32 H32        -0.2655   52.4533   31.0628 H         1 UNK         0.0000 
     33 H33         1.7426   52.4790   32.4817 H         1 UNK         0.0000 
     34 H34         2.7681   52.8465   31.1237 H         1 UNK         0.0000 
     35 H35         1.9039   51.3068   31.2001 H         1 UNK         0.0000 
     36 H36         0.3064   54.5580   32.2200 H         1 UNK         0.0000 
     37 H37         1.2534   55.0987   30.8510 H         1 UNK         0.0000 
     38 H38        -0.4924   54.8963   30.6959 H         1 UNK         0.0000 
     39 H39        -0.0513   50.8584   28.1810 H         1 UNK         0.0000 
     40 H40        -0.6967   50.2641   26.7106 H         1 UNK         0.0000 
@<TRIPOS>BOND
     1    1    2 1    
     2    1   22 1    
     3    1   23 1    
     4    1   24 1    
     5    2    7 ar   
     6    2    3 ar   
     7    3    4 ar   
     8    3   25 1    
     9    4    5 ar   
    10    4   26 1    
    11    5    6 ar   
    12    5    9 1    
    13    6    7 ar   
    14    6    8 1    
    15    7   27 1    
    16    8   28 1    
    17    8   29 1    
    18    8   30 1    
    19    9   13 1    
    20    9   10 1    
    21   10   11 2    
    22   10   21 1    
    23   11   12 1    
    24   11   15 1    
    25   12   13 1    
    26   13   14 2    
    27   15   16 2    
    28   15   17 am   BACKBONE|DICT|INTERRES
    29   17   18 1    
    30   17   31 1    
    31   18   19 1    
    32   18   20 1    
    33   18   32 1    
    34   19   33 1    
    35   19   34 1    
    36   19   35 1    
    37   20   36 1    
    38   20   37 1    
    39   20   38 1    
    40   21   39 1    
    41   21   40 1    
@<TRIPOS>SUBSTRUCTURE
     1 UNK         1 GROUP             0       ****    0 ROOT    
