@<TRIPOS>MOLECULE
ZINC08898650_971
59   63    1
SMALL
USER_CHARGES


@<TRIPOS>ATOM
      1 C1          3.5462   54.2067   22.6751 C.3       1 UNK         0.0000 
      2 C2          2.5160   53.2067   23.1656 C.ar      1 UNK         0.0000 
      3 C3          2.0307   53.2893   24.4738 C.ar      1 UNK         0.0000 
      4 C4          1.1051   52.3692   24.9825 C.ar      1 UNK         0.0000 
      5 C5          0.6620   51.3509   24.1170 C.ar      1 UNK         0.0000 
      6 C6          1.1597   51.2683   22.7915 C.ar      1 UNK         0.0000 
      7 C7          2.0915   52.1917   22.3047 C.ar      1 UNK         0.0000 
      8 S8          0.4293   49.8873   21.9885 S.3       1 UNK         0.0000 
      9 C9         -0.5047   49.5818   23.4550 C.2       1 UNK         0.0000 
     10 N10        -0.2472   50.3946   24.4471 N.2       1 UNK         0.0000 
     11 N11        -1.4634   48.5572   23.5630 N.am      1 UNK         0.0000 
     12 C12        -2.2891   48.4014   24.7731 C.3       1 UNK         0.0000 
     13 H13        -1.6025   48.2460   25.6102 H         1 UNK         0.0000 
     14 C14        -3.0630   47.1392   24.5017 C.2       1 UNK         0.0000 
     15 C15        -2.7096   46.7106   23.2861 C.2       1 UNK         0.0000 
     16 C16        -1.7599   47.5992   22.6366 C.2       1 UNK         0.0000 
     17 O17        -1.2958   47.4941   21.4960 O.2       1 UNK         0.0000 
     18 O18        -3.0907   45.6516   22.6583 O.co2     1 UNK         0.0000 
     19 C19        -3.9267   46.4728   25.4831 C.2       1 UNK         0.0000 
     20 O20        -3.6956   45.2968   25.7718 O.2       1 UNK         0.0000 
     21 C21        -5.0312   47.2134   26.1560 C.ar      1 UNK         0.0000 
     22 C22        -5.8636   48.0733   25.4268 C.ar      1 UNK         0.0000 
     23 C23        -6.9009   48.7479   26.0665 C.ar      1 UNK         0.0000 
     24 C24        -7.1202   48.5490   27.4287 C.ar      1 UNK         0.0000 
     25 C25        -6.3148   47.6743   28.1568 C.ar      1 UNK         0.0000 
     26 C26        -5.2760   46.9997   27.5204 C.ar      1 UNK         0.0000 
     27 C27        -3.1374   49.6333   25.1364 C.ar      1 UNK         0.0000 
     28 C28        -3.6925   50.4671   24.1620 C.ar      1 UNK         0.0000 
     29 C29        -4.4381   51.5834   24.5370 C.ar      1 UNK         0.0000 
     30 C30        -4.6450   51.8908   25.8946 C.ar      1 UNK         0.0000 
     31 C31        -4.0803   51.0623   26.8804 C.ar      1 UNK         0.0000 
     32 C32        -3.3203   49.9534   26.4812 C.ar      1 UNK         0.0000 
     33 O33        -4.3215   51.3677   28.2109 O.3       1 UNK         0.0000 
     34 C34        -3.7787   50.5276   29.2313 C.3       1 UNK         0.0000 
     35 O35        -5.3902   52.9751   26.3243 O.3       1 UNK         0.0000 
     36 C36        -6.0497   53.7951   25.3658 C.3       1 UNK         0.0000 
     37 C37         0.6371   52.4953   26.4244 C.3       1 UNK         0.0000 
     38 H38         3.0691   54.9871   22.0818 H         1 UNK         0.0000 
     39 H39         4.0948   54.6629   23.5019 H         1 UNK         0.0000 
     40 H40         4.2891   53.7128   22.0448 H         1 UNK         0.0000 
     41 H41         2.3906   54.0799   25.1172 H         1 UNK         0.0000 
     42 H42         2.4698   52.1203   21.2950 H         1 UNK         0.0000 
     43 H43        -5.7043   48.2319   24.3682 H         1 UNK         0.0000 
     44 H44        -7.5306   49.4261   25.5094 H         1 UNK         0.0000 
     45 H45        -7.9225   49.0776   27.9243 H         1 UNK         0.0000 
     46 H46        -6.4899   47.5262   29.2133 H         1 UNK         0.0000 
     47 H47        -4.6460   46.3331   28.0945 H         1 UNK         0.0000 
     48 H48        -3.5530   50.2499   23.1128 H         1 UNK         0.0000 
     49 H49        -4.8588   52.1954   23.7546 H         1 UNK         0.0000 
     50 H50        -2.8956   49.2970   27.2213 H         1 UNK         0.0000 
     51 H51        -4.0867   50.8960   30.2091 H         1 UNK         0.0000 
     52 H52        -4.1369   49.5009   29.1448 H         1 UNK         0.0000 
     53 H53        -2.6876   50.5207   29.2128 H         1 UNK         0.0000 
     54 H54        -6.6227   54.5620   25.8854 H         1 UNK         0.0000 
     55 H55        -6.7515   53.2202   24.7585 H         1 UNK         0.0000 
     56 H56        -5.3391   54.3007   24.7091 H         1 UNK         0.0000 
     57 H57         1.0993   53.3358   26.9423 H         1 UNK         0.0000 
     58 H58        -0.4454   52.6153   26.4614 H         1 UNK         0.0000 
     59 H59         0.8763   51.5835   26.9724 H         1 UNK         0.0000 
@<TRIPOS>BOND
     1    1    2 1    
     2    1   38 1    
     3    1   39 1    
     4    1   40 1    
     5    2    7 ar   
     6    2    3 ar   
     7    3    4 ar   
     8    3   41 1    
     9    4    5 ar   
    10    4   37 1    
    11    5   10 1    
    12    5    6 ar   
    13    6    7 ar   
    14    6    8 1    
    15    7   42 1    
    16    8    9 1    
    17    9   10 2    
    18    9   11 am   BACKBONE|DICT|INTERRES
    19   11   16 am   BACKBONE|DICT|INTERRES
    20   11   12 1    
    21   12   13 1    
    22   12   14 1    
    23   12   27 1    
    24   14   15 2    
    25   14   19 1    
    26   15   16 1    
    27   15   18 1    
    28   16   17 2    
    29   19   20 2    
    30   19   21 1    
    31   21   26 ar   
    32   21   22 ar   
    33   22   23 ar   
    34   22   43 1    
    35   23   24 ar   
    36   23   44 1    
    37   24   25 ar   
    38   24   45 1    
    39   25   26 ar   
    40   25   46 1    
    41   26   47 1    
    42   27   32 ar   
    43   27   28 ar   
    44   28   29 ar   
    45   28   48 1    
    46   29   30 ar   
    47   29   49 1    
    48   30   31 ar   
    49   30   35 1    
    50   31   32 ar   
    51   31   33 1    
    52   32   50 1    
    53   33   34 1    
    54   34   51 1    
    55   34   52 1    
    56   34   53 1    
    57   35   36 1    
    58   36   54 1    
    59   36   55 1    
    60   36   56 1    
    61   37   57 1    
    62   37   58 1    
    63   37   59 1    
@<TRIPOS>SUBSTRUCTURE
     1 UNK         1 GROUP             0       ****    0 ROOT    
