@<TRIPOS>MOLECULE
ZINC07041666_1879
59   62    1
SMALL
USER_CHARGES


@<TRIPOS>ATOM
      1 C1          3.9043   52.0250   31.6809 C.3       1 UNK         0.0000 
      2 C2          3.5169   52.1733   30.2015 C.3       1 UNK         0.0000 
      3 H3          3.2410   51.1977   29.8132 H         1 UNK         0.0000 
      4 C4          2.3415   53.1752   29.9572 C.3       1 UNK         0.0000 
      5 H5          2.5915   54.0944   30.4816 H         1 UNK         0.0000 
      6 C6          1.0091   52.5772   30.5295 C.3       1 UNK         0.0000 
      7 H7          1.2332   51.6969   31.1130 H         1 UNK         0.0000 
      8 C8          0.2012   52.1038   29.2918 C.3       1 UNK         0.0000 
      9 C9          1.1514   52.3157   28.0998 C.3       1 UNK         0.0000 
     10 H10         1.8587   51.4850   28.1694 H         1 UNK         0.0000 
     11 C11         1.9638   53.5755   28.4858 C.3       1 UNK         0.0000 
     12 C12         3.0960   53.8671   27.4509 C.2       1 UNK         0.0000 
     13 O13         4.1059   54.4943   27.7659 O.2       1 UNK         0.0000 
     14 C14         2.9205   53.3392   26.0063 C.3       1 UNK         0.0000 
     15 C15         1.4582   53.0354   25.5948 C.3       1 UNK         0.0000 
     16 H16         1.1048   54.0524   25.7084 H         1 UNK         0.0000 
     17 C17         0.6515   52.1982   26.6386 C.3       1 UNK         0.0000 
     18 H18         0.8997   51.1718   26.3601 H         1 UNK         0.0000 
     19 C19        -0.8866   52.2287   26.4102 C.3       1 UNK         0.0000 
     20 C20        -1.2751   52.3896   24.9190 C.3       1 UNK         0.0000 
     21 C21        -0.1923   51.7799   24.0082 C.3       1 UNK         0.0000 
     22 H22         0.0011   50.7795   24.4039 H         1 UNK         0.0000 
     23 C23         1.1381   52.6301   24.0806 C.3       1 UNK         0.0000 
     24 C24         2.1687   51.7115   23.3895 C.3       1 UNK         0.0000 
     25 C25         1.8451   51.3124   21.9219 C.3       1 UNK         0.0000 
     26 C26         0.4229   50.7215   21.7784 C.3       1 UNK         0.0000 
     27 H27         0.4560   49.7533   22.2820 H         1 UNK         0.0000 
     28 C28        -0.6326   51.5533   22.5401 C.3       1 UNK         0.0000 
     29 O29         0.0634   50.5065   20.4310 O.3       1 UNK         0.0000 
     30 C30         1.1043   53.9519   23.2907 C.3       1 UNK         0.0000 
     31 C31         1.1456   54.9042   28.5774 C.3       1 UNK         0.0000 
     32 O32         0.2493   53.4255   31.3683 O.3       1 UNK         0.0000 
     33 O33         4.7044   52.4967   29.5335 O.3       1 UNK         0.0000 
     34 H34         3.0757   51.7111   32.3135 H         1 UNK         0.0000 
     35 H35         4.7030   51.2979   31.8018 H         1 UNK         0.0000 
     36 H36         4.3050   52.9500   32.0858 H         1 UNK         0.0000 
     37 H37        -0.6690   52.7471   29.1626 H         1 UNK         0.0000 
     38 H38        -0.1746   51.0810   29.3530 H         1 UNK         0.0000 
     39 H39         3.5761   52.4968   25.8897 H         1 UNK         0.0000 
     40 H40         3.3235   54.1071   25.3459 H         1 UNK         0.0000 
     41 H41        -1.3048   53.0925   26.9264 H         1 UNK         0.0000 
     42 H42        -1.3565   51.3551   26.8673 H         1 UNK         0.0000 
     43 H43        -1.5079   53.4092   24.6225 H         1 UNK         0.0000 
     44 H44        -2.2113   51.8507   24.7680 H         1 UNK         0.0000 
     45 H45         3.1043   52.2553   23.3705 H         1 UNK         0.0000 
     46 H46         2.3055   50.8117   23.9901 H         1 UNK         0.0000 
     47 H47         2.5838   50.5919   21.5674 H         1 UNK         0.0000 
     48 H48         1.9538   52.1792   21.2705 H         1 UNK         0.0000 
     49 H49        -1.5811   51.0146   22.5248 H         1 UNK         0.0000 
     50 H50        -0.8468   52.4992   22.0480 H         1 UNK         0.0000 
     51 H51         0.8041   50.0950   19.9786 H         1 UNK         0.0000 
     52 H52         1.9969   54.5576   23.4551 H         1 UNK         0.0000 
     53 H53         1.0111   53.8202   22.2173 H         1 UNK         0.0000 
     54 H54         0.2492   54.5089   23.6543 H         1 UNK         0.0000 
     55 H55         0.3045   54.8396   29.2631 H         1 UNK         0.0000 
     56 H56         1.7581   55.7322   28.9404 H         1 UNK         0.0000 
     57 H57         0.7052   55.2237   27.6494 H         1 UNK         0.0000 
     58 H58        -0.3440   52.8737   31.9011 H         1 UNK         0.0000 
     59 H59         4.5344   53.2018   28.8938 H         1 UNK         0.0000 
@<TRIPOS>BOND
     1    1    2 1    
     2    1   34 1    
     3    1   35 1    
     4    1   36 1    
     5    2    3 1    
     6    2    4 1    
     7    2   33 1    
     8    4    5 1    
     9    4   11 1    
    10    4    6 1    
    11    6    7 1    
    12    6    8 1    
    13    6   32 1    
    14    8    9 1    
    15    8   37 1    
    16    8   38 1    
    17    9   10 1    
    18    9   17 1    
    19    9   11 1    
    20   11   12 1    
    21   11   31 1    
    22   12   13 2    
    23   12   14 1    
    24   14   15 1    
    25   14   39 1    
    26   14   40 1    
    27   15   16 1    
    28   15   23 1    
    29   15   17 1    
    30   17   18 1    
    31   17   19 1    
    32   19   20 1    
    33   19   41 1    
    34   19   42 1    
    35   20   21 1    
    36   20   43 1    
    37   20   44 1    
    38   21   22 1    
    39   21   28 1    
    40   21   23 1    
    41   23   24 1    
    42   23   30 1    
    43   24   25 1    
    44   24   45 1    
    45   24   46 1    
    46   25   26 1    
    47   25   47 1    
    48   25   48 1    
    49   26   27 1    
    50   26   28 1    
    51   26   29 1    
    52   28   49 1    
    53   28   50 1    
    54   29   51 1    
    55   30   52 1    
    56   30   53 1    
    57   30   54 1    
    58   31   55 1    
    59   31   56 1    
    60   31   57 1    
    61   32   58 1    
    62   33   59 1    
@<TRIPOS>SUBSTRUCTURE
     1 UNK         1 GROUP             0       ****    0 ROOT    
