@<TRIPOS>MOLECULE
ZINC20504575_1222
72   75    1
SMALL
USER_CHARGES


@<TRIPOS>ATOM
      1 C1          2.7376   50.3335   21.0461 C.3       1 UNK         0.0000 
      2 C2          2.3091   51.6729   21.6957 C.3       1 UNK         0.0000 
      3 H3          1.4369   52.0354   21.1479 H         1 UNK         0.0000 
      4 C4          3.4364   52.7067   21.5059 C.2       1 UNK         0.0000 
      5 C5          3.9198   53.5011   22.4711 C.2       1 UNK         0.0000 
      6 S6          5.2468   54.4885   21.8737 S.3       1 UNK         0.0000 
      7 C7          4.9247   53.9633   20.1756 C.2       1 UNK         0.0000 
      8 N8          4.0025   52.9445   20.2739 N.pl3     1 UNK         0.0000 
      9 N9          5.4175   54.3955   19.0795 N.am      1 UNK         0.0000 
     10 C10         6.3726   55.3932   19.0264 C.2       1 UNK         0.0000 
     11 O11         6.4114   56.3897   19.7560 O.2       1 UNK         0.0000 
     12 C12         7.3514   55.1659   17.8554 C.3       1 UNK         0.0000 
     13 N13         8.4660   56.2443   17.6969 N.4       1 UNK         0.0000 
     14 C14         7.9503   57.6730   17.3943 C.3       1 UNK         0.0000 
     15 C15         9.5042   56.2187   18.8404 C.3       1 UNK         0.0000 
     16 C16         3.4220   53.5140   23.9019 C.3       1 UNK         0.0000 
     17 C17         1.9804   52.9293   23.9837 C.3       1 UNK         0.0000 
     18 C18         1.9078   51.5466   23.2260 C.3       1 UNK         0.0000 
     19 H19         2.6671   50.9152   23.6883 H         1 UNK         0.0000 
     20 C20         0.5176   50.8559   23.4979 C.3       1 UNK         0.0000 
     21 H21        -0.2441   51.4799   23.0297 H         1 UNK         0.0000 
     22 C22         0.1575   50.7197   25.0212 C.3       1 UNK         0.0000 
     23 H23         0.9561   50.1111   25.4492 H         1 UNK         0.0000 
     24 C24         0.2726   52.0996   25.7176 C.3       1 UNK         0.0000 
     25 C25         1.6527   52.7188   25.4871 C.3       1 UNK         0.0000 
     26 C26        -1.2127   50.0322   25.3790 C.3       1 UNK         0.0000 
     27 H27        -1.3699   50.1738   26.4472 H         1 UNK         0.0000 
     28 C28        -1.1665   48.4887   25.2774 C.3       1 UNK         0.0000 
     29 C29        -2.4288   50.6429   24.6229 C.2       1 UNK         0.0000 
     30 O30        -2.6975   50.1956   23.5046 O.2       1 UNK         0.0000 
     31 N31        -3.0525   51.7549   25.1128 N.am      1 UNK         0.0000 
     32 C32        -4.1466   52.3787   24.3494 C.3       1 UNK         0.0000 
     33 C33        -5.4683   51.6713   24.7216 C.3       1 UNK         0.0000 
     34 S34        -5.8780   51.8622   26.4902 S.3       1 UNK         0.0000 
     35 C35        -4.2761   51.3246   27.1800 C.3       1 UNK         0.0000 
     36 C36        -3.0985   52.0955   26.5457 C.3       1 UNK         0.0000 
     37 O37         0.4132   49.6035   22.8545 O.3       1 UNK         0.0000 
     38 C38         1.0067   53.9559   23.3624 C.3       1 UNK         0.0000 
     39 H39         3.1343   50.4648   20.0384 H         1 UNK         0.0000 
     40 H40         3.5041   49.8404   21.6371 H         1 UNK         0.0000 
     41 H41         1.9100   49.6367   20.9335 H         1 UNK         0.0000 
     42 H42         6.8088   55.1637   16.9099 H         1 UNK         0.0000 
     43 H43         7.8659   54.2107   17.9607 H         1 UNK         0.0000 
     44 H44         7.5032   58.0979   18.2949 H         1 UNK         0.0000 
     45 H45         7.2165   57.6007   16.5889 H         1 UNK         0.0000 
     46 H46         8.8098   58.2670   17.0773 H         1 UNK         0.0000 
     47 H47         9.0175   56.4989   19.7747 H         1 UNK         0.0000 
     48 H48         9.8978   55.2021   18.8945 H         1 UNK         0.0000 
     49 H49        10.3003   56.9207   18.5882 H         1 UNK         0.0000 
     50 H50         4.1077   52.9193   24.4976 H         1 UNK         0.0000 
     51 H51         3.4546   54.5196   24.3242 H         1 UNK         0.0000 
     52 H52        -0.5225   52.7732   25.4015 H         1 UNK         0.0000 
     53 H53         0.1209   51.9791   26.7906 H         1 UNK         0.0000 
     54 H54         2.4024   52.0967   25.9695 H         1 UNK         0.0000 
     55 H55         1.7006   53.6738   26.0132 H         1 UNK         0.0000 
     56 H56        -2.0470   48.0399   25.7420 H         1 UNK         0.0000 
     57 H57        -1.1307   48.1278   24.2502 H         1 UNK         0.0000 
     58 H58        -0.2963   48.0965   25.8027 H         1 UNK         0.0000 
     59 H59        -4.1899   53.4399   24.5953 H         1 UNK         0.0000 
     60 H60        -3.9243   52.3830   23.2814 H         1 UNK         0.0000 
     61 H61        -5.4124   50.6023   24.5139 H         1 UNK         0.0000 
     62 H62        -6.2947   52.0721   24.1318 H         1 UNK         0.0000 
     63 H63        -4.1815   50.2499   27.0172 H         1 UNK         0.0000 
     64 H64        -4.3044   51.4799   28.2581 H         1 UNK         0.0000 
     65 H65        -2.1464   51.9649   27.0577 H         1 UNK         0.0000 
     66 H66        -3.2534   53.1704   26.6377 H         1 UNK         0.0000 
     67 H67         0.9900   48.9854   23.3098 H         1 UNK         0.0000 
     68 H68        -0.0367   53.6576   23.4335 H         1 UNK         0.0000 
     69 H69         1.1042   54.9042   23.8778 H         1 UNK         0.0000 
     70 H70         1.2204   54.1337   22.3090 H         1 UNK         0.0000 
     71 H71         8.9775   55.9681   16.8651 H         1 UNK         0.0000 
     72 H72         3.7551   52.4232   19.4448 H         1 UNK         0.0000 
@<TRIPOS>BOND
     1    1    2 1    
     2    1   39 1    
     3    1   40 1    
     4    1   41 1    
     5    2    3 1    
     6    2   18 1    
     7    2    4 1    
     8    4    8 1    
     9    4    5 2    
    10    5    6 1    
    11    5   16 1    
    12    6    7 1    
    13    7    8 1    
    14    7    9 2    BACKBONE|DICT|INTERRES
    15    8   72 1    
    16    9   10 am   BACKBONE|DICT|INTERRES
    17   10   11 2    
    18   10   12 1    
    19   12   13 1    
    20   12   42 1    
    21   12   43 1    
    22   13   14 1    
    23   13   15 1    
    24   13   71 1    
    25   14   44 1    
    26   14   45 1    
    27   14   46 1    
    28   15   47 1    
    29   15   48 1    
    30   15   49 1    
    31   16   17 1    
    32   16   50 1    
    33   16   51 1    
    34   17   25 1    
    35   17   18 1    
    36   17   38 1    
    37   18   19 1    
    38   18   20 1    
    39   20   21 1    
    40   20   22 1    
    41   20   37 1    
    42   22   23 1    
    43   22   24 1    
    44   22   26 1    
    45   24   25 1    
    46   24   52 1    
    47   24   53 1    
    48   25   54 1    
    49   25   55 1    
    50   26   27 1    
    51   26   28 1    
    52   26   29 1    
    53   28   56 1    
    54   28   57 1    
    55   28   58 1    
    56   29   30 2    
    57   29   31 am   BACKBONE|DICT|INTERRES
    58   31   36 1    
    59   31   32 1    
    60   32   33 1    
    61   32   59 1    
    62   32   60 1    
    63   33   34 1    
    64   33   61 1    
    65   33   62 1    
    66   34   35 1    
    67   35   36 1    
    68   35   63 1    
    69   35   64 1    
    70   36   65 1    
    71   36   66 1    
    72   37   67 1    
    73   38   68 1    
    74   38   69 1    
    75   38   70 1    
@<TRIPOS>SUBSTRUCTURE
     1 UNK         1 GROUP             0       ****    0 ROOT    
