@<TRIPOS>MOLECULE
ZINC40095108_5915
64   67    1
SMALL
USER_CHARGES


@<TRIPOS>ATOM
      1 C1          4.6224   53.2947   28.5417 C.3       1 UNK         0.0000 
      2 C2          4.5349   54.3091   27.3979 C.3       1 UNK         0.0000 
      3 H3          4.2806   55.2968   27.7889 H         1 UNK         0.0000 
      4 C4          3.5455   53.9423   26.2768 C.3       1 UNK         0.0000 
      5 C5          4.3693   54.1401   25.0479 C.ar      1 UNK         0.0000 
      6 C6          4.0760   54.0399   23.6843 C.ar      1 UNK         0.0000 
      7 C7          5.1077   54.1526   22.7298 C.ar      1 UNK         0.0000 
      8 C8          6.4270   54.3225   23.1895 C.ar      1 UNK         0.0000 
      9 C9          6.7065   54.4630   24.5472 C.ar      1 UNK         0.0000 
     10 C10         5.6669   54.3667   25.4528 C.ar      1 UNK         0.0000 
     11 O11         5.8293   54.4214   26.8089 O.3       1 UNK         0.0000 
     12 C12         4.7979   53.9772   21.2665 C.2       1 UNK         0.0000 
     13 O13         3.8177   53.3086   20.9391 O.2       1 UNK         0.0000 
     14 C14         5.6127   54.6213   20.2085 C.2       1 UNK         0.0000 
     15 C15         6.4361   55.6853   20.2407 C.2       1 UNK         0.0000 
     16 C16         7.1405   55.8913   18.9875 C.2       1 UNK         0.0000 
     17 O17         8.0100   56.7254   18.7110 O.2       1 UNK         0.0000 
     18 N18         6.6341   54.9430   18.1648 N.am      1 UNK         0.0000 
     19 C19         5.6059   54.1090   18.7845 C.3       1 UNK         0.0000 
     20 H20         5.9387   53.0698   18.7334 H         1 UNK         0.0000 
     21 C21         4.2503   54.2367   18.0728 C.ar      1 UNK         0.0000 
     22 C22         3.5230   53.0873   17.7461 C.ar      1 UNK         0.0000 
     23 C23         2.2816   53.1985   17.1245 C.ar      1 UNK         0.0000 
     24 C24         1.7549   54.4579   16.8229 C.ar      1 UNK         0.0000 
     25 C25         2.4860   55.6058   17.1412 C.ar      1 UNK         0.0000 
     26 C26         3.7165   55.4966   17.7785 C.ar      1 UNK         0.0000 
     27 C27         0.3707   54.5726   16.1820 C.3       1 UNK         0.0000 
     28 C28        -0.6738   55.0592   17.2052 C.3       1 UNK         0.0000 
     29 C29         0.3745   55.4456   14.9114 C.3       1 UNK         0.0000 
     30 C30         7.0895   54.7522   16.7759 C.3       1 UNK         0.0000 
     31 C31         6.5057   55.7401   15.7422 C.3       1 UNK         0.0000 
     32 O32         6.9506   57.0659   16.0022 O.3       1 UNK         0.0000 
     33 C33         6.2682   58.0790   15.2750 C.3       1 UNK         0.0000 
     34 C34         6.9599   59.4253   15.5440 C.3       1 UNK         0.0000 
     35 O35         6.3040   60.4912   14.8815 O.3       1 UNK         0.0000 
     36 O36         6.7043   56.4965   21.2038 O.co2     1 UNK         0.0000 
     37 H37         3.6575   53.1592   29.0369 H         1 UNK         0.0000 
     38 H38         5.3471   53.6295   29.2819 H         1 UNK         0.0000 
     39 H39         4.9615   52.3210   28.1777 H         1 UNK         0.0000 
     40 H40         3.2415   52.8969   26.3491 H         1 UNK         0.0000 
     41 H41         2.6738   54.5839   26.3084 H         1 UNK         0.0000 
     42 H42         3.0614   53.8465   23.3648 H         1 UNK         0.0000 
     43 H43         7.2617   54.3533   22.5038 H         1 UNK         0.0000 
     44 H44         7.7208   54.6098   24.8808 H         1 UNK         0.0000 
     45 H45         3.9059   52.1024   17.9828 H         1 UNK         0.0000 
     46 H46         1.7310   52.2995   16.8907 H         1 UNK         0.0000 
     47 H47         2.0910   56.5872   16.9229 H         1 UNK         0.0000 
     48 H48         4.2587   56.3937   18.0386 H         1 UNK         0.0000 
     49 H49         0.0710   53.5735   15.8605 H         1 UNK         0.0000 
     50 H50        -0.6953   54.4111   18.0816 H         1 UNK         0.0000 
     51 H51        -0.4497   56.0699   17.5487 H         1 UNK         0.0000 
     52 H52        -1.6760   55.0700   16.7730 H         1 UNK         0.0000 
     53 H53         1.1242   55.1008   14.1980 H         1 UNK         0.0000 
     54 H54        -0.5928   55.4131   14.4107 H         1 UNK         0.0000 
     55 H55         0.5871   56.4905   15.1369 H         1 UNK         0.0000 
     56 H56         8.1677   54.9197   16.7937 H         1 UNK         0.0000 
     57 H57         6.9600   53.7199   16.4499 H         1 UNK         0.0000 
     58 H58         6.8178   55.4425   14.7408 H         1 UNK         0.0000 
     59 H59         5.4178   55.6810   15.7460 H         1 UNK         0.0000 
     60 H60         6.2927   57.8530   14.2069 H         1 UNK         0.0000 
     61 H61         5.2255   58.1189   15.5973 H         1 UNK         0.0000 
     62 H62         7.0000   59.6238   16.6154 H         1 UNK         0.0000 
     63 H63         8.0003   59.3774   15.2173 H         1 UNK         0.0000 
     64 H64         5.6791   60.8954   15.5077 H         1 UNK         0.0000 
@<TRIPOS>BOND
     1    1    2 1    
     2    1   37 1    
     3    1   38 1    
     4    1   39 1    
     5    2    3 1    
     6    2   11 1    
     7    2    4 1    
     8    4    5 1    
     9    4   40 1    
    10    4   41 1    
    11    5   10 ar   
    12    5    6 ar   
    13    6    7 ar   
    14    6   42 1    
    15    7    8 ar   
    16    7   12 1    
    17    8    9 ar   
    18    8   43 1    
    19    9   10 ar   
    20    9   44 1    
    21   10   11 1    
    22   12   13 2    
    23   12   14 1    
    24   14   19 1    
    25   14   15 2    
    26   15   16 1    
    27   15   36 1    
    28   16   17 2    
    29   16   18 am   BACKBONE|DICT|INTERRES
    30   18   19 1    
    31   18   30 1    
    32   19   20 1    
    33   19   21 1    
    34   21   26 ar   
    35   21   22 ar   
    36   22   23 ar   
    37   22   45 1    
    38   23   24 ar   
    39   23   46 1    
    40   24   25 ar   
    41   24   27 1    
    42   25   26 ar   
    43   25   47 1    
    44   26   48 1    
    45   27   28 1    
    46   27   29 1    
    47   27   49 1    
    48   28   50 1    
    49   28   51 1    
    50   28   52 1    
    51   29   53 1    
    52   29   54 1    
    53   29   55 1    
    54   30   31 1    
    55   30   56 1    
    56   30   57 1    
    57   31   32 1    
    58   31   58 1    
    59   31   59 1    
    60   32   33 1    
    61   33   34 1    
    62   33   60 1    
    63   33   61 1    
    64   34   35 1    
    65   34   62 1    
    66   34   63 1    
    67   35   64 1    
@<TRIPOS>SUBSTRUCTURE
     1 UNK         1 GROUP             0       ****    0 ROOT    
