@<TRIPOS>MOLECULE
ZINC50309955_1700
44   45    1
SMALL
USER_CHARGES


@<TRIPOS>ATOM
      1 C1          3.6499   52.1278   31.3982 C.3       1 UNK         0.0000 
      2 C2          3.6922   52.1196   29.8601 C.3       1 UNK         0.0000 
      3 C3          3.2109   53.4400   29.2070 C.3       1 UNK         0.0000 
      4 H4          2.2749   53.7096   29.7011 H         1 UNK         0.0000 
      5 C5          4.1676   54.6373   29.4251 C.3       1 UNK         0.0000 
      6 O6          5.3570   54.5023   28.6621 O.3       1 UNK         0.0000 
      7 C7          5.1250   54.4532   27.2614 C.3       1 UNK         0.0000 
      8 H8          4.6542   55.3705   26.9149 H         1 UNK         0.0000 
      9 C9          4.2286   53.2500   26.9224 C.3       1 UNK         0.0000 
     10 N10         2.9931   53.3280   27.7434 N.am      1 UNK         0.0000 
     11 C11         1.7241   53.1009   27.2804 C.2       1 UNK         0.0000 
     12 O12         0.7472   53.0439   28.0324 O.2       1 UNK         0.0000 
     13 C13         1.5040   52.8963   25.8570 C.ar      1 UNK         0.0000 
     14 C14         0.7055   51.8570   25.3055 C.ar      1 UNK         0.0000 
     15 C15         0.7898   52.0201   23.9261 C.ar      1 UNK         0.0000 
     16 N16         1.5431   53.1507   23.7632 N.pl3     1 UNK         0.0000 
     17 H17         1.7794   53.5534   22.8670 H         1 UNK         0.0000 
     18 N18         1.9475   53.6969   24.9087 N.2       1 UNK         0.0000 
     19 C19         0.2491   51.2118   22.7566 C.3       1 UNK         0.0000 
     20 C20        -0.5355   52.0815   21.7569 C.3       1 UNK         0.0000 
     21 C21         1.3793   50.4284   22.0619 C.3       1 UNK         0.0000 
     22 N22         0.0302   50.8636   25.9633 N.pl3     1 UNK         0.0000 
     23 C23         6.4932   54.3543   26.5769 C.3       1 UNK         0.0000 
     24 H24         3.9796   51.1762   31.8117 H         1 UNK         0.0000 
     25 H25         4.3039   52.8955   31.8169 H         1 UNK         0.0000 
     26 H26         2.6380   52.3090   31.7660 H         1 UNK         0.0000 
     27 H27         3.0675   51.2998   29.4990 H         1 UNK         0.0000 
     28 H28         4.7052   51.8898   29.5272 H         1 UNK         0.0000 
     29 H29         4.4280   54.7411   30.4752 H         1 UNK         0.0000 
     30 H30         3.6583   55.5612   29.1403 H         1 UNK         0.0000 
     31 H31         4.7834   52.3583   27.2012 H         1 UNK         0.0000 
     32 H32         4.0772   53.2228   25.8467 H         1 UNK         0.0000 
     33 H33        -0.4512   50.4717   23.1490 H         1 UNK         0.0000 
     34 H34        -1.3715   52.5839   22.2460 H         1 UNK         0.0000 
     35 H35        -0.9461   51.4765   20.9477 H         1 UNK         0.0000 
     36 H36         0.1019   52.8421   21.3010 H         1 UNK         0.0000 
     37 H37         1.8795   49.7529   22.7589 H         1 UNK         0.0000 
     38 H38         0.9953   49.8225   21.2407 H         1 UNK         0.0000 
     39 H39         2.1357   51.0972   21.6459 H         1 UNK         0.0000 
     40 H40        -0.0116   50.8271   26.9740 H         1 UNK         0.0000 
     41 H41        -0.4661   50.1314   25.4764 H         1 UNK         0.0000 
     42 H42         6.3965   54.3220   25.4905 H         1 UNK         0.0000 
     43 H43         7.1039   55.2199   26.8314 H         1 UNK         0.0000 
     44 H44         7.0328   53.4611   26.8943 H         1 UNK         0.0000 
@<TRIPOS>BOND
     1    1    2 1    
     2    1   24 1    
     3    1   25 1    
     4    1   26 1    
     5    2    3 1    
     6    2   27 1    
     7    2   28 1    
     8    3    4 1    
     9    3   10 1    
    10    3    5 1    
    11    5    6 1    
    12    5   29 1    
    13    5   30 1    
    14    6    7 1    
    15    7    8 1    
    16    7    9 1    
    17    7   23 1    
    18    9   10 1    
    19    9   31 1    
    20    9   32 1    
    21   10   11 am   BACKBONE|DICT|INTERRES
    22   11   12 2    
    23   11   13 1    
    24   13   18 ar   
    25   13   14 ar   
    26   14   15 ar   
    27   14   22 1    
    28   15   16 ar   
    29   15   19 1    
    30   16   17 1    
    31   16   18 ar   
    32   19   20 1    
    33   19   21 1    
    34   19   33 1    
    35   20   34 1    
    36   20   35 1    
    37   20   36 1    
    38   21   37 1    
    39   21   38 1    
    40   21   39 1    
    41   22   40 1    
    42   22   41 1    
    43   23   42 1    
    44   23   43 1    
    45   23   44 1    
@<TRIPOS>SUBSTRUCTURE
     1 UNK         1 GROUP             0       ****    0 ROOT    
