ZINC10121229_2850
                    3D
 Schrodinger Suite 2024-2.
 64 66  0  0  1  0            999 V2000
    2.6828   52.5058   30.7886 C   0  0  0  0  0  0
    3.9048   53.1691   30.1282 C   0  0  0  0  0  0
    3.6497   53.7481   28.7235 C   0  0  1  0  0  0
    3.2881   52.9201   28.1117 H   0  0  0  0  0  0
    2.6346   54.9085   28.7209 C   0  0  0  0  0  0
    4.9107   54.2195   28.2407 O   0  0  0  0  0  0
    5.1370   54.3952   26.8865 C   0  0  0  0  0  0
    6.3848   54.8973   26.5222 C   0  0  0  0  0  0
    6.7044   55.0978   25.1807 C   0  0  0  0  0  0
    5.7970   54.7675   24.1856 C   0  0  0  0  0  0
    4.5323   54.2653   24.5110 C   0  0  0  0  0  0
    4.2131   54.0964   25.8722 C   0  0  0  0  0  0
    3.5736   53.8775   23.4064 C   0  0  0  0  0  0
    3.9512   53.8375   22.2322 O   0  0  0  0  0  0
    2.3049   53.6198   23.8073 N   0  0  0  0  0  0
    1.3792   52.7101   23.3720 C   0  0  0  0  0  0
    1.6492   51.4858   22.2428 S   0  0  0  0  0  0
    0.2044   52.8972   24.0443 N   0  0  0  0  0  0
   -1.0238   52.2237   23.9853 C   0  0  0  0  0  0
   -1.6594   51.9451   22.7710 C   0  0  0  0  0  0
   -2.8955   51.3149   22.7703 C   0  0  0  0  0  0
   -3.5166   51.0050   23.9809 C   0  0  0  0  0  0
   -2.8848   51.2793   25.1956 C   0  0  0  0  0  0
   -1.6373   51.8950   25.1960 C   0  0  0  0  0  0
   -5.1604   50.3114   23.9746 S   0  0  0  0  0  0
   -5.3811   49.7219   22.6493 O   0  0  0  0  0  0
   -5.3221   49.5139   25.1947 O   0  0  0  0  0  0
   -6.2583   51.6971   24.0814 N   0  0  0  0  0  0
   -6.5122   52.3551   25.2918 C   0  0  0  0  0  0
   -7.4627   51.8253   26.1882 C   0  0  0  0  0  0
   -7.6949   52.4647   27.4072 C   0  0  0  0  0  0
   -7.0066   53.6265   27.7352 C   0  0  0  0  0  0
   -6.0997   54.1781   26.8366 C   0  0  0  0  0  0
   -5.8500   53.5601   25.6087 C   0  0  0  0  0  0
   -4.8837   54.2457   24.6464 C   0  0  0  0  0  0
   -8.2780   50.5762   25.8702 C   0  0  0  0  0  0
    2.9451   52.0855   31.7618 H   0  0  0  0  0  0
    2.2917   51.6970   30.1706 H   0  0  0  0  0  0
    1.8717   53.2162   30.9504 H   0  0  0  0  0  0
    4.3037   53.9511   30.7746 H   0  0  0  0  0  0
    4.7027   52.4268   30.0543 H   0  0  0  0  0  0
    1.6517   54.5891   29.0684 H   0  0  0  0  0  0
    2.9682   55.7233   29.3646 H   0  0  0  0  0  0
    2.4986   55.3208   27.7235 H   0  0  0  0  0  0
    7.1022   55.1360   27.2940 H   0  0  0  0  0  0
    7.6655   55.4884   24.8827 H   0  0  0  0  0  0
    6.0907   54.9052   23.1537 H   0  0  0  0  0  0
    3.2524   53.6930   26.1452 H   0  0  0  0  0  0
    2.1325   53.9370   24.7467 H   0  0  0  0  0  0
    0.2344   53.5857   24.7785 H   0  0  0  0  0  0
   -1.2013   52.2141   21.8314 H   0  0  0  0  0  0
   -3.3802   51.0959   21.8305 H   0  0  0  0  0  0
   -3.3645   51.0332   26.1324 H   0  0  0  0  0  0
   -1.1568   52.1133   26.1388 H   0  0  0  0  0  0
   -6.5341   52.1459   23.2173 H   0  0  0  0  0  0
   -8.4090   52.0577   28.1073 H   0  0  0  0  0  0
   -7.1897   54.0967   28.6881 H   0  0  0  0  0  0
   -5.5930   55.0959   27.1016 H   0  0  0  0  0  0
   -4.1708   54.8804   25.1757 H   0  0  0  0  0  0
   -4.2889   53.5301   24.0836 H   0  0  0  0  0  0
   -5.4320   54.8591   23.9302 H   0  0  0  0  0  0
   -9.2575   50.6146   26.3491 H   0  0  0  0  0  0
   -8.4704   50.4808   24.8024 H   0  0  0  0  0  0
   -7.7626   49.6801   26.2145 H   0  0  0  0  0  0
  1  2  1  0  0  0
  1 37  1  0  0  0
  1 38  1  0  0  0
  1 39  1  0  0  0
  2  3  1  0  0  0
  2 40  1  0  0  0
  2 41  1  0  0  0
  3  4  1  0  0  0
  3  5  1  0  0  0
  3  6  1  0  0  0
  5 42  1  0  0  0
  5 43  1  0  0  0
  5 44  1  0  0  0
  6  7  1  0  0  0
  7 12  2  0  0  0
  7  8  1  0  0  0
  8  9  2  0  0  0
  8 45  1  0  0  0
  9 10  1  0  0  0
  9 46  1  0  0  0
 10 11  2  0  0  0
 10 47  1  0  0  0
 11 12  1  0  0  0
 11 13  1  0  0  0
 12 48  1  0  0  0
 13 14  2  0  0  0
 13 15  1  0  0  0
 15 16  1  0  0  0
 15 49  1  0  0  0
 16 17  2  0  0  0
 16 18  1  0  0  0
 18 19  1  0  0  0
 18 50  1  0  0  0
 19 24  2  0  0  0
 19 20  1  0  0  0
 20 21  2  0  0  0
 20 51  1  0  0  0
 21 22  1  0  0  0
 21 52  1  0  0  0
 22 23  2  0  0  0
 22 25  1  0  0  0
 23 24  1  0  0  0
 23 53  1  0  0  0
 24 54  1  0  0  0
 25 26  2  0  0  0
 25 27  2  0  0  0
 25 28  1  0  0  0
 28 29  1  0  0  0
 28 55  1  0  0  0
 29 34  2  0  0  0
 29 30  1  0  0  0
 30 31  2  0  0  0
 30 36  1  0  0  0
 31 32  1  0  0  0
 31 56  1  0  0  0
 32 33  2  0  0  0
 32 57  1  0  0  0
 33 34  1  0  0  0
 33 58  1  0  0  0
 34 35  1  0  0  0
 35 59  1  0  0  0
 35 60  1  0  0  0
 35 61  1  0  0  0
 36 62  1  0  0  0
 36 63  1  0  0  0
 36 64  1  0  0  0
M  END
> <i_i_glide_confnum>
313

> <i_i_glide_lignum>
2851

> <i_i_glide_posenum>
88

> <i_i_glide_rotatable_bonds>
11

> <i_m_Source_File_Index>
4752

> <b_m_subgroup_collapsed>
0

> <r_i_docking_score>
-3.66258

> <r_i_glide_ecoul>
2.51318

> <r_i_glide_eff_state_penalty>
0

> <r_i_glide_einternal>
5.29588

> <r_i_glide_emodel>
-48.6061

> <r_i_glide_energy>
-43.8674

> <r_i_glide_erotb>
0.782848

> <r_i_glide_esite>
-0.00276005

> <r_i_glide_evdw>
-46.3806

> <r_i_glide_gscore>
-3.66258

> <r_i_glide_hbond>
-0.305734

> <r_i_glide_ligand_efficiency>
-0.104645

> <r_i_glide_ligand_efficiency_ln>
-0.804018

> <r_i_glide_ligand_efficiency_sa>
-0.342301

> <r_i_glide_lipo>
-2.43879

> <r_i_glide_metal>
0

> <r_i_glide_rewards>
0.243904

> <s_i_glide_gridfile>
wee1_glide-grid

> <s_m_Source_File>
wee1_decoys_glide_SP.sdf

> <s_m_Source_Path>
/Users/zhangxujun/Desktop

> <s_m_entry_id>
5027

> <s_m_entry_name>
wee1_decoys_glide_SP.4752

> <s_m_subgroup_title>
wee1_decoys_glide_SP

> <s_m_subgroupid>
wee1_decoys_glide_SP


$$$$
