@<TRIPOS>MOLECULE
ZINC09132450_1423
50   54    1
SMALL
USER_CHARGES


@<TRIPOS>ATOM
      1 C1         -0.3470   50.3351   22.7194 C.ar      1 UNK         0.0000 
      2 C2         -0.8695   49.4235   21.7975 C.ar      1 UNK         0.0000 
      3 C3         -1.3124   48.2049   22.2869 C.ar      1 UNK         0.0000 
      4 C4         -1.2375   47.8852   23.6134 C.ar      1 UNK         0.0000 
      5 C5         -0.7211   48.7741   24.5576 C.ar      1 UNK         0.0000 
      6 C6         -0.2720   50.0372   24.1018 C.ar      1 UNK         0.0000 
      7 C7          0.2985   51.0852   25.0348 C.2       1 UNK         0.0000 
      8 O8          0.9849   51.9970   24.5640 O.2       1 UNK         0.0000 
      9 N9         -0.0158   50.9887   26.3492 N.am      1 UNK         0.0000 
     10 C10         0.3591   51.9076   27.3283 C.2       1 UNK         0.0000 
     11 N11         1.2712   52.8602   27.2285 N.2       1 UNK         0.0000 
     12 C12         1.2812   53.6069   28.3150 C.2       1 UNK         0.0000 
     13 C13         0.4093   53.2585   29.3151 C.2       1 UNK         0.0000 
     14 S14        -0.4975   51.8661   28.8460 S.3       1 UNK         0.0000 
     15 C15         0.5010   54.1356   30.5248 C.3       1 UNK         0.0000 
     16 C16         1.3646   55.2967   29.9824 C.3       1 UNK         0.0000 
     17 C17         2.1283   54.7890   28.7219 C.3       1 UNK         0.0000 
     18 H18         2.1910   55.5680   27.9621 H         1 UNK         0.0000 
     19 C19         3.5657   54.3171   29.0315 C.2       1 UNK         0.0000 
     20 O20         3.8280   53.7941   30.1158 O.2       1 UNK         0.0000 
     21 N21         4.4981   54.5079   28.0843 N.am      1 UNK         0.0000 
     22 C22         5.9215   54.2195   28.2777 C.3       1 UNK         0.0000 
     23 C23         6.7864   54.3590   27.0049 C.3       1 UNK         0.0000 
     24 H24         7.8362   54.1431   27.2267 H         1 UNK         0.0000 
     25 C25         6.2991   53.5026   25.8358 C.3       1 UNK         0.0000 
     26 C26         5.8648   54.4678   24.7584 C.3       1 UNK         0.0000 
     27 C27         6.6450   55.7182   25.0913 C.3       1 UNK         0.0000 
     28 O28         6.7041   55.6967   26.5115 O.3       1 UNK         0.0000 
     29 O29        -1.7014   46.6184   23.7919 O.3       1 UNK         0.0000 
     30 C30        -2.1569   46.1844   22.5306 C.3       1 UNK         0.0000 
     31 O31        -1.8236   47.1628   21.5871 O.3       1 UNK         0.0000 
     32 H32         0.0008   51.2893   22.3447 H         1 UNK         0.0000 
     33 H33        -0.9167   49.6646   20.7454 H         1 UNK         0.0000 
     34 H34        -0.6602   48.4827   25.5993 H         1 UNK         0.0000 
     35 H35        -0.6449   50.2521   26.6399 H         1 UNK         0.0000 
     36 H36         0.9815   53.6216   31.3586 H         1 UNK         0.0000 
     37 H37        -0.4728   54.4782   30.8675 H         1 UNK         0.0000 
     38 H38         2.0134   55.7165   30.7544 H         1 UNK         0.0000 
     39 H39         0.7061   56.1193   29.6877 H         1 UNK         0.0000 
     40 H40         4.2429   54.9448   27.2082 H         1 UNK         0.0000 
     41 H41         6.0413   53.2068   28.6662 H         1 UNK         0.0000 
     42 H42         6.2989   54.8799   29.0544 H         1 UNK         0.0000 
     43 H43         5.4357   52.8933   26.0950 H         1 UNK         0.0000 
     44 H44         7.1172   52.8993   25.4405 H         1 UNK         0.0000 
     45 H45         4.7909   54.6586   24.8182 H         1 UNK         0.0000 
     46 H46         6.0872   54.1026   23.7523 H         1 UNK         0.0000 
     47 H47         6.1344   56.6145   24.7380 H         1 UNK         0.0000 
     48 H48         7.6500   55.7265   24.6732 H         1 UNK         0.0000 
     49 H49        -3.2444   46.0787   22.5566 H         1 UNK         0.0000 
     50 H50        -1.6692   45.2563   22.2307 H         1 UNK         0.0000 
@<TRIPOS>BOND
     1    1    6 ar   
     2    1    2 ar   
     3    1   32 1    
     4    2    3 ar   
     5    2   33 1    
     6    3   31 1    
     7    3    4 ar   
     8    4    5 ar   
     9    4   29 1    
    10    5    6 ar   
    11    5   34 1    
    12    6    7 1    
    13    7    8 2    
    14    7    9 am   BACKBONE|DICT|INTERRES
    15    9   10 am   BACKBONE|DICT|INTERRES
    16    9   35 1    
    17   10   14 1    
    18   10   11 2    
    19   11   12 1    
    20   12   17 1    
    21   12   13 2    
    22   13   14 1    
    23   13   15 1    
    24   15   16 1    
    25   15   36 1    
    26   15   37 1    
    27   16   17 1    
    28   16   38 1    
    29   16   39 1    
    30   17   18 1    
    31   17   19 1    
    32   19   20 2    
    33   19   21 am   BACKBONE|DICT|INTERRES
    34   21   22 1    
    35   21   40 1    
    36   22   23 1    
    37   22   41 1    
    38   22   42 1    
    39   23   24 1    
    40   23   28 1    
    41   23   25 1    
    42   25   26 1    
    43   25   43 1    
    44   25   44 1    
    45   26   27 1    
    46   26   45 1    
    47   26   46 1    
    48   27   28 1    
    49   27   47 1    
    50   27   48 1    
    51   29   30 1    
    52   30   31 1    
    53   30   49 1    
    54   30   50 1    
@<TRIPOS>SUBSTRUCTURE
     1 UNK         1 GROUP             0       ****    0 ROOT    
