@<TRIPOS>MOLECULE
ZINC38659974_845
55   58    1
SMALL
USER_CHARGES


@<TRIPOS>ATOM
      1 C1         10.3739   54.2513   17.8356 C.3       1 UNK         0.0000 
      2 O2          9.7085   53.3606   16.9453 O.3       1 UNK         0.0000 
      3 C3          8.3289   53.3774   16.8834 C.ar      1 UNK         0.0000 
      4 C4          7.7255   52.5331   15.9557 C.ar      1 UNK         0.0000 
      5 C5          6.3391   52.4967   15.8206 C.ar      1 UNK         0.0000 
      6 C6          5.5127   53.2984   16.6271 C.ar      1 UNK         0.0000 
      7 C7          6.1122   54.1535   17.5690 C.ar      1 UNK         0.0000 
      8 C8          7.5097   54.1843   17.6835 C.ar      1 UNK         0.0000 
      9 C9          5.2712   55.0748   18.4671 C.3       1 UNK         0.0000 
     10 H10         4.2128   54.8795   18.2875 H         1 UNK         0.0000 
     11 C11         5.5385   54.8263   19.9604 C.ar      1 UNK         0.0000 
     12 C12         4.8806   53.8270   20.6847 C.ar      1 UNK         0.0000 
     13 C13         5.1117   53.6632   22.0510 C.ar      1 UNK         0.0000 
     14 C14         6.0159   54.4969   22.7274 C.ar      1 UNK         0.0000 
     15 C15         6.7045   55.4728   22.0051 C.ar      1 UNK         0.0000 
     16 C16         6.4293   55.6697   20.6522 C.ar      1 UNK         0.0000 
     17 O17         7.0108   56.7636   20.0331 O.3       1 UNK         0.0000 
     18 C18         6.3835   57.2616   18.9324 C.2       1 UNK         0.0000 
     19 C19         5.5246   56.5536   18.1703 C.2       1 UNK         0.0000 
     20 C20         4.8842   57.1423   17.0398 C.1       1 UNK         0.0000 
     21 N21         4.3461   57.6024   16.1259 N.1       1 UNK         0.0000 
     22 N22         6.7879   58.5544   18.7410 N.pl3     1 UNK         0.0000 
     23 O23         6.2555   54.4053   24.0859 O.3       1 UNK         0.0000 
     24 C24         5.2258   54.4531   24.9845 C.2       1 UNK         0.0000 
     25 O25         4.0241   54.4967   24.7069 O.2       1 UNK         0.0000 
     26 C26         5.7414   54.4875   26.4352 C.3       1 UNK         0.0000 
     27 C27         4.7467   53.9777   27.4857 C.ar      1 UNK         0.0000 
     28 C28         3.4610   54.5163   27.6145 C.ar      1 UNK         0.0000 
     29 C29         2.5980   54.0573   28.6047 C.ar      1 UNK         0.0000 
     30 C30         3.0213   53.0588   29.4770 C.ar      1 UNK         0.0000 
     31 C31         4.3007   52.5198   29.3652 C.ar      1 UNK         0.0000 
     32 C32         5.1624   52.9878   28.3772 C.ar      1 UNK         0.0000 
     33 Cl33        1.9542   52.4967   30.7095 Cl        1 UNK         0.0000 
     34 O34         4.1315   53.2951   16.5391 O.3       1 UNK         0.0000 
     35 C35         3.4848   52.3958   15.6444 C.3       1 UNK         0.0000 
     36 H36        11.4488   54.0787   17.7845 H         1 UNK         0.0000 
     37 H37        10.0658   54.0977   18.8704 H         1 UNK         0.0000 
     38 H38        10.1929   55.2926   17.5647 H         1 UNK         0.0000 
     39 H39         8.3397   51.8999   15.3327 H         1 UNK         0.0000 
     40 H40         5.9208   51.8211   15.0912 H         1 UNK         0.0000 
     41 H41         7.9528   54.8506   18.4059 H         1 UNK         0.0000 
     42 H42         4.1767   53.1774   20.1829 H         1 UNK         0.0000 
     43 H43         4.5741   52.8967   22.5881 H         1 UNK         0.0000 
     44 H44         7.4140   56.1068   22.5129 H         1 UNK         0.0000 
     45 H45         6.3065   59.1572   18.0823 H         1 UNK         0.0000 
     46 H46         7.7027   58.8560   19.0404 H         1 UNK         0.0000 
     47 H47         6.6620   53.9057   26.4904 H         1 UNK         0.0000 
     48 H48         6.0013   55.5173   26.6762 H         1 UNK         0.0000 
     49 H49         3.1250   55.2965   26.9495 H         1 UNK         0.0000 
     50 H50         1.6062   54.4759   28.6944 H         1 UNK         0.0000 
     51 H51         4.6306   51.7485   30.0448 H         1 UNK         0.0000 
     52 H52         6.1541   52.5687   28.2958 H         1 UNK         0.0000 
     53 H53         2.4057   52.5194   15.7318 H         1 UNK         0.0000 
     54 H54         3.7564   52.5989   14.6074 H         1 UNK         0.0000 
     55 H55         3.7144   51.3556   15.8780 H         1 UNK         0.0000 
@<TRIPOS>BOND
     1    1    2 1    
     2    1   36 1    
     3    1   37 1    
     4    1   38 1    
     5    2    3 1    
     6    3    8 ar   
     7    3    4 ar   
     8    4    5 ar   
     9    4   39 1    
    10    5    6 ar   
    11    5   40 1    
    12    6    7 ar   
    13    6   34 1    
    14    7    8 ar   
    15    7    9 1    
    16    8   41 1    
    17    9   10 1    
    18    9   19 1    
    19    9   11 1    
    20   11   16 ar   
    21   11   12 ar   
    22   12   13 ar   
    23   12   42 1    
    24   13   14 ar   
    25   13   43 1    
    26   14   15 ar   
    27   14   23 1    
    28   15   16 ar   
    29   15   44 1    
    30   16   17 1    
    31   17   18 1    
    32   18   19 2    
    33   18   22 1    
    34   19   20 1    
    35   20   21 3    
    36   22   45 1    
    37   22   46 1    
    38   23   24 1    
    39   24   25 2    
    40   24   26 1    
    41   26   27 1    
    42   26   47 1    
    43   26   48 1    
    44   27   32 ar   
    45   27   28 ar   
    46   28   29 ar   
    47   28   49 1    
    48   29   30 ar   
    49   29   50 1    
    50   30   31 ar   
    51   30   33 1    
    52   31   32 ar   
    53   31   51 1    
    54   32   52 1    
    55   34   35 1    
    56   35   53 1    
    57   35   54 1    
    58   35   55 1    
@<TRIPOS>SUBSTRUCTURE
     1 UNK         1 GROUP             0       ****    0 ROOT    
