ZINC39266348_6053
                    3D
 Schrodinger Suite 2024-2.
 66 70  0  0  1  0            999 V2000
   -0.1823   47.1094   17.8498 C   0  0  0  0  0  0
   -0.9192   47.8764   18.7480 C   0  0  0  0  0  0
   -0.6403   49.2340   18.8850 C   0  0  0  0  0  0
    0.3721   49.8302   18.1201 C   0  0  0  0  0  0
    1.1060   49.0456   17.2220 C   0  0  0  0  0  0
    0.8309   47.6874   17.0878 C   0  0  0  0  0  0
    0.7259   51.3170   18.2955 C   0  0  0  0  0  0
   -0.2941   52.3559   17.7794 C   0  0  0  0  0  0
    0.1057   53.6946   17.6812 C   0  0  0  0  0  0
   -0.7787   54.6700   17.2291 C   0  0  0  0  0  0
   -2.0695   54.3073   16.8564 C   0  0  0  0  0  0
   -2.4791   52.9787   16.9306 C   0  0  0  0  0  0
   -1.5933   52.0049   17.3870 C   0  0  0  0  0  0
    1.2568   51.5726   19.6438 N   0  0  0  0  0  0
    0.5691   51.8695   20.7643 C   0  0  0  0  0  0
   -0.6418   52.0978   20.7706 O   0  0  0  0  0  0
    1.3747   51.8570   22.0834 C   0  0  2  0  0  0
    1.9051   50.9057   22.1620 H   0  0  0  0  0  0
    0.5387   52.0545   23.3751 C   0  0  0  0  0  0
    0.9012   53.4326   23.9128 C   0  0  0  0  0  0
    2.3498   53.6028   23.5021 C   0  0  0  0  0  0
    2.4044   53.0233   22.0742 N   0  3  1  0  0  0
    3.8191   52.6241   21.5719 C   0  0  0  0  0  0
    4.9153   53.6496   21.8279 C   0  0  0  0  0  0
    5.3994   54.4732   20.8075 C   0  0  0  0  0  0
    6.4559   55.3486   21.0644 C   0  0  0  0  0  0
    6.9900   55.4414   22.3516 C   0  0  0  0  0  0
    6.4655   54.6841   23.3995 C   0  0  0  0  0  0
    5.4844   53.7374   23.1002 C   0  0  0  0  0  0
    6.9469   54.8810   24.6828 O   0  0  0  0  0  0
    6.1871   54.6014   25.8057 C   0  0  0  0  0  0
    4.8091   54.8496   25.8769 C   0  0  0  0  0  0
    4.0870   54.4965   27.0149 C   0  0  0  0  0  0
    4.7490   53.9342   28.1031 C   0  0  0  0  0  0
    6.1246   53.7276   28.0607 C   0  0  0  0  0  0
    6.8379   54.0745   26.9189 C   0  0  0  0  0  0
   -0.3946   46.0557   17.7423 H   0  0  0  0  0  0
   -1.7032   47.4211   19.3370 H   0  0  0  0  0  0
   -1.2112   49.8214   19.5878 H   0  0  0  0  0  0
    1.9049   49.4764   16.6337 H   0  0  0  0  0  0
    1.4068   47.0876   16.3986 H   0  0  0  0  0  0
    1.5951   51.4837   17.6552 H   0  0  0  0  0  0
    1.1040   53.9859   17.9743 H   0  0  0  0  0  0
   -0.4600   55.7008   17.1643 H   0  0  0  0  0  0
   -2.7542   55.0596   16.4918 H   0  0  0  0  0  0
   -3.4772   52.7009   16.6278 H   0  0  0  0  0  0
   -1.9340   50.9819   17.4258 H   0  0  0  0  0  0
    2.2333   51.3388   19.7430 H   0  0  0  0  0  0
   -0.5368   51.9177   23.2554 H   0  0  0  0  0  0
    0.8505   51.3111   24.1124 H   0  0  0  0  0  0
    0.3031   54.2193   23.4616 H   0  0  0  0  0  0
    0.7745   53.5003   24.9935 H   0  0  0  0  0  0
    2.7105   54.6320   23.4717 H   0  0  0  0  0  0
    3.0066   52.9942   24.1242 H   0  0  0  0  0  0
    4.0625   51.6886   22.0776 H   0  0  0  0  0  0
    3.7070   52.4121   20.5074 H   0  0  0  0  0  0
    4.9867   54.4110   19.8094 H   0  0  0  0  0  0
    6.8595   55.9531   20.2653 H   0  0  0  0  0  0
    7.8143   56.1068   22.5487 H   0  0  0  0  0  0
    5.1478   53.0844   23.8852 H   0  0  0  0  0  0
    4.2958   55.2983   25.0417 H   0  0  0  0  0  0
    3.0218   54.6685   27.0602 H   0  0  0  0  0  0
    4.1944   53.6629   28.9893 H   0  0  0  0  0  0
    6.6434   53.2968   28.9017 H   0  0  0  0  0  0
    7.9027   53.9124   26.8971 H   0  0  0  0  0  0
    2.0539   53.7533   21.4592 H   0  0  0  0  0  0
  1  6  2  0  0  0
  1  2  1  0  0  0
  1 37  1  0  0  0
  2  3  2  0  0  0
  2 38  1  0  0  0
  3  4  1  0  0  0
  3 39  1  0  0  0
  4  5  2  0  0  0
  4  7  1  0  0  0
  5  6  1  0  0  0
  5 40  1  0  0  0
  6 41  1  0  0  0
  7  8  1  0  0  0
  7 14  1  0  0  0
  7 42  1  0  0  0
  8 13  2  0  0  0
  8  9  1  0  0  0
  9 10  2  0  0  0
  9 43  1  0  0  0
 10 11  1  0  0  0
 10 44  1  0  0  0
 11 12  2  0  0  0
 11 45  1  0  0  0
 12 13  1  0  0  0
 12 46  1  0  0  0
 13 47  1  0  0  0
 14 15  1  0  0  0
 14 48  1  0  0  0
 15 16  2  0  0  0
 15 17  1  0  0  0
 17 18  1  0  0  0
 17 22  1  0  0  0
 17 19  1  0  0  0
 19 20  1  0  0  0
 19 49  1  0  0  0
 19 50  1  0  0  0
 20 21  1  0  0  0
 20 51  1  0  0  0
 20 52  1  0  0  0
 21 22  1  0  0  0
 21 53  1  0  0  0
 21 54  1  0  0  0
 22 23  1  0  0  0
 22 66  1  0  0  0
 23 24  1  0  0  0
 23 55  1  0  0  0
 23 56  1  0  0  0
 24 29  2  0  0  0
 24 25  1  0  0  0
 25 26  2  0  0  0
 25 57  1  0  0  0
 26 27  1  0  0  0
 26 58  1  0  0  0
 27 28  2  0  0  0
 27 59  1  0  0  0
 28 29  1  0  0  0
 28 30  1  0  0  0
 29 60  1  0  0  0
 30 31  1  0  0  0
 31 36  2  0  0  0
 31 32  1  0  0  0
 32 33  2  0  0  0
 32 61  1  0  0  0
 33 34  1  0  0  0
 33 62  1  0  0  0
 34 35  2  0  0  0
 34 63  1  0  0  0
 35 36  1  0  0  0
 35 64  1  0  0  0
 36 65  1  0  0  0
M  CHG  1  22   1
M  END
> <i_i_glide_confnum>
260

> <i_i_glide_lignum>
6054

> <i_i_glide_posenum>
400

> <i_i_glide_rotatable_bonds>
9

> <i_m_Source_File_Index>
5405

> <b_m_subgroup_collapsed>
0

> <r_i_docking_score>
-5.68794

> <r_i_glide_ecoul>
-3.88043

> <r_i_glide_eff_state_penalty>
0

> <r_i_glide_einternal>
10.7815

> <r_i_glide_emodel>
-57.0974

> <r_i_glide_energy>
-44.0055

> <r_i_glide_erotb>
0.843939

> <r_i_glide_esite>
-0.0234393

> <r_i_glide_evdw>
-40.1251

> <r_i_glide_gscore>
-5.68794

> <r_i_glide_hbond>
-0.0232763

> <r_i_glide_ligand_efficiency>
-0.162512

> <r_i_glide_ligand_efficiency_ln>
-1.24863

> <r_i_glide_ligand_efficiency_sa>
-0.531589

> <r_i_glide_lipo>
-3.58327

> <r_i_glide_metal>
0

> <r_i_glide_rewards>
-0.313575

> <s_i_glide_gridfile>
wee1_glide-grid

> <s_m_Source_File>
wee1_decoys_glide_SP.sdf

> <s_m_Source_Path>
/Users/zhangxujun/Desktop

> <s_m_entry_id>
5680

> <s_m_entry_name>
wee1_decoys_glide_SP.5405

> <s_m_subgroup_title>
wee1_decoys_glide_SP

> <s_m_subgroupid>
wee1_decoys_glide_SP


$$$$
