@<TRIPOS>MOLECULE
ZINC41552072_2731
55   58    1
SMALL
USER_CHARGES


@<TRIPOS>ATOM
      1 C1          5.7079   56.3438   18.2855 C.3       1 UNK         0.0000 
      2 C2          6.6879   55.2300   18.6986 C.3       1 UNK         0.0000 
      3 C3          7.9612   55.2447   17.8438 C.3       1 UNK         0.0000 
      4 O4          7.1098   55.4122   20.0500 O.3       1 UNK         0.0000 
      5 C5          6.3057   55.0264   21.1044 C.ar      1 UNK         0.0000 
      6 C6          5.0412   54.4330   20.9831 C.ar      1 UNK         0.0000 
      7 C7          4.3033   54.0966   22.1170 C.ar      1 UNK         0.0000 
      8 C8          4.8050   54.3507   23.4038 C.ar      1 UNK         0.0000 
      9 C9          4.0272   54.1319   24.6634 C.2       1 UNK         0.0000 
     10 C10         4.6629   54.4133   25.8366 C.2       1 UNK         0.0000 
     11 C11         6.0532   54.8782   25.9174 C.2       1 UNK         0.0000 
     12 O12         6.7043   55.0823   26.9359 O.2       1 UNK         0.0000 
     13 O13         6.7040   55.1237   24.7337 O.3       1 UNK         0.0000 
     14 C14         6.0988   54.8916   23.5123 C.ar      1 UNK         0.0000 
     15 C15         6.8299   55.2344   22.3778 C.ar      1 UNK         0.0000 
     16 C16         2.6078   53.7645   24.7053 C.2       1 UNK         0.0000 
     17 O17         1.8371   54.1196   23.8119 O.2       1 UNK         0.0000 
     18 N18         2.2123   53.0228   25.7701 N.am      1 UNK         0.0000 
     19 C19         0.9397   52.5175   26.0436 C.2       1 UNK         0.0000 
     20 C20         0.3998   52.2336   27.3212 C.2       1 UNK         0.0000 
     21 C21        -0.9378   51.7236   27.2051 C.2       1 UNK         0.0000 
     22 C22        -1.3432   51.5791   25.8670 C.2       1 UNK         0.0000 
     23 S23        -0.1459   52.0980   24.7483 S.3       1 UNK         0.0000 
     24 C24        -2.7022   51.0845   25.3925 C.3       1 UNK         0.0000 
     25 C25        -3.3906   50.3255   26.5399 C.3       1 UNK         0.0000 
     26 C26        -3.3526   51.1379   27.8403 C.3       1 UNK         0.0000 
     27 C27        -1.9123   51.3736   28.3441 C.3       1 UNK         0.0000 
     28 C28         1.1314   52.5081   28.5680 C.2       1 UNK         0.0000 
     29 O29         2.2160   53.0967   28.5703 O.2       1 UNK         0.0000 
     30 N30         0.5512   52.0969   29.7055 N.am      1 UNK         0.0000 
     31 C31         1.0654   52.3489   31.0456 C.3       1 UNK         0.0000 
     32 H32         5.4113   56.2378   17.2417 H         1 UNK         0.0000 
     33 H33         6.1578   57.3299   18.4027 H         1 UNK         0.0000 
     34 H34         4.7967   56.3278   18.8815 H         1 UNK         0.0000 
     35 H35         6.2267   54.2503   18.5622 H         1 UNK         0.0000 
     36 H36         7.7311   55.1001   16.7878 H         1 UNK         0.0000 
     37 H37         8.4964   56.1896   17.9441 H         1 UNK         0.0000 
     38 H38         8.6412   54.4468   18.1452 H         1 UNK         0.0000 
     39 H39         4.5992   54.2367   20.0186 H         1 UNK         0.0000 
     40 H40         3.3276   53.6603   21.9658 H         1 UNK         0.0000 
     41 H41         4.1443   54.3301   26.7818 H         1 UNK         0.0000 
     42 H42         7.8152   55.6666   22.4817 H         1 UNK         0.0000 
     43 H43         2.8720   52.9208   26.5289 H         1 UNK         0.0000 
     44 H44        -3.3203   51.9315   25.0924 H         1 UNK         0.0000 
     45 H45        -2.6081   50.4377   24.5195 H         1 UNK         0.0000 
     46 H46        -4.4222   50.1005   26.2671 H         1 UNK         0.0000 
     47 H47        -2.9015   49.3614   26.6972 H         1 UNK         0.0000 
     48 H48        -3.8494   52.0957   27.6811 H         1 UNK         0.0000 
     49 H49        -3.9253   50.6252   28.6147 H         1 UNK         0.0000 
     50 H50        -1.5530   50.4967   28.8499 H         1 UNK         0.0000 
     51 H51        -1.9407   52.0968   29.1448 H         1 UNK         0.0000 
     52 H52        -0.2726   51.5166   29.6405 H         1 UNK         0.0000 
     53 H53         0.3045   52.1018   31.7871 H         1 UNK         0.0000 
     54 H54         1.9469   51.7391   31.2441 H         1 UNK         0.0000 
     55 H55         1.3304   53.3989   31.1724 H         1 UNK         0.0000 
@<TRIPOS>BOND
     1    1    2 1    
     2    1   32 1    
     3    1   33 1    
     4    1   34 1    
     5    2    3 1    
     6    2    4 1    
     7    2   35 1    
     8    3   36 1    
     9    3   37 1    
    10    3   38 1    
    11    4    5 1    
    12    5   15 ar   
    13    5    6 ar   
    14    6    7 ar   
    15    6   39 1    
    16    7    8 ar   
    17    7   40 1    
    18    8   14 ar   
    19    8    9 1    
    20    9   10 2    
    21    9   16 1    
    22   10   11 1    
    23   10   41 1    
    24   11   12 2    
    25   11   13 1    
    26   13   14 1    
    27   14   15 ar   
    28   15   42 1    
    29   16   17 2    
    30   16   18 am   BACKBONE|DICT|INTERRES
    31   18   19 am   BACKBONE|DICT|INTERRES
    32   18   43 1    
    33   19   23 1    
    34   19   20 2    
    35   20   21 1    
    36   20   28 1    
    37   21   27 1    
    38   21   22 2    
    39   22   23 1    
    40   22   24 1    
    41   24   25 1    
    42   24   44 1    
    43   24   45 1    
    44   25   26 1    
    45   25   46 1    
    46   25   47 1    
    47   26   27 1    
    48   26   48 1    
    49   26   49 1    
    50   27   50 1    
    51   27   51 1    
    52   28   29 2    
    53   28   30 am   BACKBONE|DICT|INTERRES
    54   30   31 1    
    55   30   52 1    
    56   31   53 1    
    57   31   54 1    
    58   31   55 1    
@<TRIPOS>SUBSTRUCTURE
     1 UNK         1 GROUP             0       ****    0 ROOT    
