@<TRIPOS>MOLECULE
ZINC48025355_6200
64   66    1
SMALL
USER_CHARGES


@<TRIPOS>ATOM
      1 C1          2.4550   51.4136   21.2209 C.3       1 UNK         0.0000 
      2 C2          3.8716   51.1274   20.7235 C.3       1 UNK         0.0000 
      3 C3          4.9384   51.9951   21.4217 C.3       1 UNK         0.0000 
      4 C4          4.7068   53.5060   21.1777 C.3       1 UNK         0.0000 
      5 C5          3.2585   53.7627   21.7362 C.3       1 UNK         0.0000 
      6 C6          2.1611   52.9016   21.0596 C.3       1 UNK         0.0000 
      7 C7          5.6921   54.3313   22.0784 C.3       1 UNK         0.0000 
      8 N8          5.6638   54.0238   23.5262 N.am      1 UNK         0.0000 
      9 C9          6.2832   54.7442   24.4788 C.2       1 UNK         0.0000 
     10 O10         6.9995   55.6967   24.2045 O.2       1 UNK         0.0000 
     11 C11         6.1063   54.4052   25.9739 C.3       1 UNK         0.0000 
     12 N12         4.7761   53.6972   26.3724 N.4       1 UNK         0.0000 
     13 C13         4.7812   53.5153   27.9197 C.3       1 UNK         0.0000 
     14 C14         3.4703   52.8472   28.3905 C.3       1 UNK         0.0000 
     15 C15         2.2174   53.5942   27.8818 C.3       1 UNK         0.0000 
     16 C16         2.2872   53.6379   26.3463 C.3       1 UNK         0.0000 
     17 C17         3.5056   54.4539   25.8980 C.3       1 UNK         0.0000 
     18 C18         0.8982   52.9322   28.3605 C.3       1 UNK         0.0000 
     19 C19         0.5903   53.0701   29.8555 C.2       1 UNK         0.0000 
     20 O20         0.1866   52.0991   30.4848 O.2       1 UNK         0.0000 
     21 N21         0.7352   54.2587   30.4419 N.am      1 UNK         0.0000 
     22 N22         4.8622   53.8068   19.7207 N.3       1 UNK         0.0000 
     23 C23         6.0939   53.3936   19.0190 C.3       1 UNK         0.0000 
     24 C24         5.9663   53.5362   17.4856 C.3       1 UNK         0.0000 
     25 O25         5.6100   54.8694   17.1329 O.3       1 UNK         0.0000 
     26 C26         4.3995   55.2929   17.7514 C.3       1 UNK         0.0000 
     27 C27         4.4934   55.1528   19.2866 C.3       1 UNK         0.0000 
     28 H28         1.7280   50.8237   20.6608 H         1 UNK         0.0000 
     29 H29         2.3554   51.1209   22.2669 H         1 UNK         0.0000 
     30 H30         3.9035   51.2776   19.6440 H         1 UNK         0.0000 
     31 H31         4.0919   50.0969   20.8834 H         1 UNK         0.0000 
     32 H32         5.9040   51.6967   21.0554 H         1 UNK         0.0000 
     33 H33         4.9805   51.7743   22.4798 H         1 UNK         0.0000 
     34 H34         3.2072   53.5016   22.7928 H         1 UNK         0.0000 
     35 H35         3.0022   54.8195   21.6816 H         1 UNK         0.0000 
     36 H36         2.1148   53.1356   19.9944 H         1 UNK         0.0000 
     37 H37         1.1819   53.1425   21.4744 H         1 UNK         0.0000 
     38 H38         5.5106   55.3904   21.9193 H         1 UNK         0.0000 
     39 H39         6.7037   54.2145   21.7168 H         1 UNK         0.0000 
     40 H40         5.1488   53.2006   23.7964 H         1 UNK         0.0000 
     41 H41         6.1252   55.3304   26.5509 H         1 UNK         0.0000 
     42 H42         6.9188   53.7648   26.3214 H         1 UNK         0.0000 
     43 H43         4.9192   54.5006   28.3720 H         1 UNK         0.0000 
     44 H44         5.6340   52.8783   28.1627 H         1 UNK         0.0000 
     45 H45         3.4560   52.7949   29.4796 H         1 UNK         0.0000 
     46 H46         3.4344   51.8030   28.0857 H         1 UNK         0.0000 
     47 H47         2.2557   54.6280   28.2336 H         1 UNK         0.0000 
     48 H48         2.2838   52.6312   25.9247 H         1 UNK         0.0000 
     49 H49         1.3885   54.0938   25.9350 H         1 UNK         0.0000 
     50 H50         3.5208   55.4596   26.3162 H         1 UNK         0.0000 
     51 H51         3.5114   54.5170   24.8127 H         1 UNK         0.0000 
     52 H52         0.9107   51.8700   28.1061 H         1 UNK         0.0000 
     53 H53         0.0377   53.3378   27.8286 H         1 UNK         0.0000 
     54 H54         1.0349   55.0708   29.9249 H         1 UNK         0.0000 
     55 H55         0.5007   54.3309   31.4225 H         1 UNK         0.0000 
     56 H56         6.9557   53.9505   19.3873 H         1 UNK         0.0000 
     57 H57         6.3018   52.3420   19.1906 H         1 UNK         0.0000 
     58 H58         5.2092   52.8376   17.1215 H         1 UNK         0.0000 
     59 H59         6.9069   53.2726   17.0001 H         1 UNK         0.0000 
     60 H60         3.5632   54.6959   17.3828 H         1 UNK         0.0000 
     61 H61         4.2011   56.3296   17.4770 H         1 UNK         0.0000 
     62 H62         3.5049   55.2974   19.6776 H         1 UNK         0.0000 
     63 H63         5.1411   55.9133   19.7213 H         1 UNK         0.0000 
     64 H64         4.7504   52.7751   25.9498 H         1 UNK         0.0000 
@<TRIPOS>BOND
     1    1    6 1    
     2    1    2 1    
     3    1   28 1    
     4    1   29 1    
     5    2    3 1    
     6    2   30 1    
     7    2   31 1    
     8    3    4 1    
     9    3   32 1    
    10    3   33 1    
    11    4    5 1    
    12    4    7 1    
    13    4   22 1    
    14    5    6 1    
    15    5   34 1    
    16    5   35 1    
    17    6   36 1    
    18    6   37 1    
    19    7    8 1    
    20    7   38 1    
    21    7   39 1    
    22    8    9 am   BACKBONE|DICT|INTERRES
    23    8   40 1    
    24    9   10 2    
    25    9   11 1    
    26   11   12 1    
    27   11   41 1    
    28   11   42 1    
    29   12   17 1    
    30   12   13 1    
    31   12   64 1    
    32   13   14 1    
    33   13   43 1    
    34   13   44 1    
    35   14   15 1    
    36   14   45 1    
    37   14   46 1    
    38   15   16 1    
    39   15   18 1    
    40   15   47 1    
    41   16   17 1    
    42   16   48 1    
    43   16   49 1    
    44   17   50 1    
    45   17   51 1    
    46   18   19 1    
    47   18   52 1    
    48   18   53 1    
    49   19   20 2    
    50   19   21 am   BACKBONE|DICT|INTERRES
    51   21   54 1    
    52   21   55 1    
    53   22   27 1    
    54   22   23 1    
    55   23   24 1    
    56   23   56 1    
    57   23   57 1    
    58   24   25 1    
    59   24   58 1    
    60   24   59 1    
    61   25   26 1    
    62   26   27 1    
    63   26   60 1    
    64   26   61 1    
    65   27   62 1    
    66   27   63 1    
@<TRIPOS>SUBSTRUCTURE
     1 UNK         1 GROUP             0       ****    0 ROOT    
