@<TRIPOS>MOLECULE
ZINC59015208_454
41   43    1
SMALL
USER_CHARGES


@<TRIPOS>ATOM
      1 C1          0.7311   50.0526   23.2312 C.ar      1 UNK         0.0000 
      2 C2         -0.2963   49.6343   24.0729 C.ar      1 UNK         0.0000 
      3 C3         -1.1074   50.5803   24.6926 C.ar      1 UNK         0.0000 
      4 C4         -0.8804   51.9405   24.5026 C.ar      1 UNK         0.0000 
      5 C5          0.1528   52.3579   23.6684 C.ar      1 UNK         0.0000 
      6 C6          0.9581   51.4193   23.0117 C.ar      1 UNK         0.0000 
      7 C7          2.0172   51.8949   22.1182 C.2       1 UNK         0.0000 
      8 N8          2.6068   51.1663   21.2509 N.2       1 UNK         0.0000 
      9 N9          3.6850   51.6794   20.4791 N.pl3     1 UNK         0.0000 
     10 C10         4.3676   52.8626   20.6743 C.ar      1 UNK         0.0000 
     11 N11         5.1044   53.1679   21.7041 N.2       1 UNK         0.0000 
     12 C12         5.5404   54.3896   21.4158 C.ar      1 UNK         0.0000 
     13 N13         5.1044   54.8954   20.2777 N.2       1 UNK         0.0000 
     14 N14         4.3224   53.9159   19.8159 N.pl3     1 UNK         0.0000 
     15 S15         6.7044   55.2686   22.4254 S.3       1 UNK         0.0000 
     16 C16         6.8584   54.1553   23.8662 C.3       1 UNK         0.0000 
     17 C17         6.1370   54.6321   25.1234 C.2       1 UNK         0.0000 
     18 O18         6.7045   55.4201   25.8813 O.2       1 UNK         0.0000 
     19 N19         4.9159   54.0966   25.3214 N.am      1 UNK         0.0000 
     20 C20         4.0975   54.1263   26.4637 C.ar      1 UNK         0.0000 
     21 C21         4.5434   54.4966   27.7415 C.ar      1 UNK         0.0000 
     22 C22         3.6562   54.4966   28.8153 C.ar      1 UNK         0.0000 
     23 C23         2.3332   54.1040   28.6230 C.ar      1 UNK         0.0000 
     24 C24         1.8981   53.6880   27.3672 C.ar      1 UNK         0.0000 
     25 C25         2.7791   53.6968   26.2894 C.ar      1 UNK         0.0000 
     26 Br26        1.1069   54.1363   30.0808 Br        1 UNK         0.0000 
     27 Cl27       -2.4157   50.0642   25.6895 Cl        1 UNK         0.0000 
     28 H28         1.3507   49.3055   22.7547 H         1 UNK         0.0000 
     29 H29        -0.4661   48.5805   24.2402 H         1 UNK         0.0000 
     30 H30        -1.5102   52.6676   24.9929 H         1 UNK         0.0000 
     31 H31         0.3094   53.4182   23.5253 H         1 UNK         0.0000 
     32 H32         2.2752   52.9431   22.2503 H         1 UNK         0.0000 
     33 H33         4.0367   51.0149   19.7942 H         1 UNK         0.0000 
     34 H34         7.9044   54.0964   24.1249 H         1 UNK         0.0000 
     35 H35         6.5986   53.1284   23.6349 H         1 UNK         0.0000 
     36 H36         4.5382   53.5666   24.5515 H         1 UNK         0.0000 
     37 H37         5.5647   54.7960   27.9225 H         1 UNK         0.0000 
     38 H38         3.9988   54.8057   29.7907 H         1 UNK         0.0000 
     39 H39         0.8770   53.3640   27.2290 H         1 UNK         0.0000 
     40 H40         2.4262   53.3769   25.3199 H         1 UNK         0.0000 
     41 H41         3.8094   53.9598   18.9472 H         1 UNK         0.0000 
@<TRIPOS>BOND
     1    1    6 ar   
     2    1    2 ar   
     3    1   28 1    
     4    2    3 ar   
     5    2   29 1    
     6    3    4 ar   
     7    3   27 1    
     8    4    5 ar   
     9    4   30 1    
    10    5    6 ar   
    11    5   31 1    
    12    6    7 1    
    13    7    8 2    
    14    7   32 1    
    15    8    9 1    
    16    9   10 1    
    17    9   33 1    
    18   10   14 ar   
    19   10   11 ar   
    20   11   12 ar   
    21   12   13 ar   
    22   12   15 1    
    23   13   14 ar   
    24   14   41 1    
    25   15   16 1    
    26   16   17 1    
    27   16   34 1    
    28   16   35 1    
    29   17   18 2    
    30   17   19 am   BACKBONE|DICT|INTERRES
    31   19   20 1    
    32   19   36 1    
    33   20   25 ar   
    34   20   21 ar   
    35   21   22 ar   
    36   21   37 1    
    37   22   23 ar   
    38   22   38 1    
    39   23   24 ar   
    40   23   26 1    
    41   24   25 ar   
    42   24   39 1    
    43   25   40 1    
@<TRIPOS>SUBSTRUCTURE
     1 UNK         1 GROUP             0       ****    0 ROOT    
