ZINC34684007_1131
                    3D
 Schrodinger Suite 2024-2.
 63 66  0  0  1  0            999 V2000
    5.5648   54.2893   28.8820 C   0  0  0  0  0  0
    4.8138   54.1992   27.5771 C   0  0  0  0  0  0
    5.4993   54.2118   26.3623 C   0  0  0  0  0  0
    4.7901   54.0968   25.1707 C   0  0  0  0  0  0
    3.3995   53.9567   25.1991 C   0  0  0  0  0  0
    2.7179   53.9724   26.4162 C   0  0  0  0  0  0
    3.4257   54.0880   27.6052 C   0  0  0  0  0  0
    2.4874   53.8104   23.6665 S   0  0  0  0  0  0
    3.4688   53.7098   22.5802 O   0  0  0  0  0  0
    1.5059   54.8944   23.6809 O   0  0  0  0  0  0
    1.5621   52.2761   23.7119 N   0  0  0  0  0  0
    1.6432   51.4065   22.6114 C   0  0  0  0  0  0
    2.2392   50.1481   22.7367 C   0  0  0  0  0  0
    2.3044   49.2963   21.6340 C   0  0  0  0  0  0
    1.8141   49.7028   20.3900 C   0  0  0  0  0  0
    1.2278   50.9663   20.2625 C   0  0  0  0  0  0
    1.1422   51.8101   21.3686 C   0  0  0  0  0  0
    0.7369   51.3807   19.0707 F   0  0  0  0  0  0
    1.9591   48.7949   19.1796 C   0  0  0  0  0  0
    0.3907   52.1965   24.6114 C   0  0  1  0  0  0
   -0.9305   51.9168   23.8638 C   0  0  0  0  0  0
   -2.1135   51.9917   24.8433 C   0  0  0  0  0  0
   -1.9056   50.9383   25.9652 N   0  3  1  0  0  0
   -0.5563   51.1115   26.7060 C   0  0  0  0  0  0
    0.5956   51.1105   25.6874 C   0  0  0  0  0  0
   -3.0605   50.9193   27.0007 C   0  0  0  0  0  0
   -4.4502   50.6924   26.4129 C   0  0  0  0  0  0
   -4.9347   49.3820   26.3317 C   0  0  0  0  0  0
   -6.1974   49.1256   25.7995 C   0  0  0  0  0  0
   -6.9929   50.1795   25.3540 C   0  0  0  0  0  0
   -6.5277   51.4898   25.4460 C   0  0  0  0  0  0
   -5.2682   51.7542   25.9847 C   0  0  0  0  0  0
   -4.8647   53.0597   26.0798 O   0  0  0  0  0  0
    6.6110   53.9994   28.7820 H   0  0  0  0  0  0
    5.5041   55.2968   29.2922 H   0  0  0  0  0  0
    5.1044   53.6105   29.5995 H   0  0  0  0  0  0
    6.5752   54.2995   26.3382 H   0  0  0  0  0  0
    5.3249   54.1014   24.2320 H   0  0  0  0  0  0
    1.6448   53.9144   26.4608 H   0  0  0  0  0  0
    2.8926   54.0914   28.5459 H   0  0  0  0  0  0
    2.6850   49.8303   23.6730 H   0  0  0  0  0  0
    2.7783   48.3330   21.7427 H   0  0  0  0  0  0
    0.7044   52.7908   21.2507 H   0  0  0  0  0  0
    1.0013   48.3405   18.9212 H   0  0  0  0  0  0
    2.3021   49.3679   18.3172 H   0  0  0  0  0  0
    2.7006   48.0110   19.3435 H   0  0  0  0  0  0
    0.2714   53.1664   25.0895 H   0  0  0  0  0  0
   -0.9178   50.9322   23.3938 H   0  0  0  0  0  0
   -1.0782   52.6512   23.0712 H   0  0  0  0  0  0
   -3.0351   51.7269   24.3235 H   0  0  0  0  0  0
   -2.2141   52.9698   25.3150 H   0  0  0  0  0  0
   -0.6041   52.0384   27.2805 H   0  0  0  0  0  0
   -0.4603   50.2564   27.3786 H   0  0  0  0  0  0
    1.5039   51.3092   26.2488 H   0  0  0  0  0  0
    0.6890   50.1208   25.2385 H   0  0  0  0  0  0
   -2.9934   51.8463   27.5728 H   0  0  0  0  0  0
   -2.7973   50.0981   27.6756 H   0  0  0  0  0  0
   -4.3297   48.5553   26.6788 H   0  0  0  0  0  0
   -6.5606   48.1091   25.7370 H   0  0  0  0  0  0
   -7.9728   49.9803   24.9421 H   0  0  0  0  0  0
   -7.1505   52.3051   25.1078 H   0  0  0  0  0  0
   -4.0685   53.1717   26.5982 H   0  0  0  0  0  0
   -1.8790   50.0286   25.5202 H   0  0  0  0  0  0
  1  2  1  0  0  0
  1 34  1  0  0  0
  1 35  1  0  0  0
  1 36  1  0  0  0
  2  7  2  0  0  0
  2  3  1  0  0  0
  3  4  2  0  0  0
  3 37  1  0  0  0
  4  5  1  0  0  0
  4 38  1  0  0  0
  5  6  2  0  0  0
  5  8  1  0  0  0
  6  7  1  0  0  0
  6 39  1  0  0  0
  7 40  1  0  0  0
  8  9  2  0  0  0
  8 10  2  0  0  0
  8 11  1  0  0  0
 11 12  1  0  0  0
 11 20  1  0  0  0
 12 17  2  0  0  0
 12 13  1  0  0  0
 13 14  2  0  0  0
 13 41  1  0  0  0
 14 15  1  0  0  0
 14 42  1  0  0  0
 15 16  2  0  0  0
 15 19  1  0  0  0
 16 17  1  0  0  0
 16 18  1  0  0  0
 17 43  1  0  0  0
 19 44  1  0  0  0
 19 45  1  0  0  0
 19 46  1  0  0  0
 20 25  1  0  0  0
 20 21  1  0  0  0
 20 47  1  0  0  0
 21 22  1  0  0  0
 21 48  1  0  0  0
 21 49  1  0  0  0
 22 23  1  0  0  0
 22 50  1  0  0  0
 22 51  1  0  0  0
 23 24  1  0  0  0
 23 26  1  0  0  0
 23 63  1  0  0  0
 24 25  1  0  0  0
 24 52  1  0  0  0
 24 53  1  0  0  0
 25 54  1  0  0  0
 25 55  1  0  0  0
 26 27  1  0  0  0
 26 56  1  0  0  0
 26 57  1  0  0  0
 27 32  2  0  0  0
 27 28  1  0  0  0
 28 29  2  0  0  0
 28 58  1  0  0  0
 29 30  1  0  0  0
 29 59  1  0  0  0
 30 31  2  0  0  0
 30 60  1  0  0  0
 31 32  1  0  0  0
 31 61  1  0  0  0
 32 33  1  0  0  0
 33 62  1  0  0  0
M  CHG  1  23   1
M  END
> <i_i_glide_confnum>
66

> <i_i_glide_lignum>
1132

> <i_i_glide_posenum>
176

> <i_i_glide_rotatable_bonds>
7

> <i_m_Source_File_Index>
1406

> <b_m_subgroup_collapsed>
0

> <r_i_docking_score>
-0.70626

> <r_i_glide_ecoul>
-1.2183

> <r_i_glide_eff_state_penalty>
0

> <r_i_glide_einternal>
4.99582

> <r_i_glide_emodel>
-25.7475

> <r_i_glide_energy>
-35.1651

> <r_i_glide_erotb>
0.549581

> <r_i_glide_esite>
-0.0608723

> <r_i_glide_evdw>
-33.9468

> <r_i_glide_gscore>
-0.70626

> <r_i_glide_hbond>
0

> <r_i_glide_ligand_efficiency>
-0.0214018

> <r_i_glide_ligand_efficiency_ln>
-0.157069

> <r_i_glide_ligand_efficiency_sa>
-0.0686471

> <r_i_glide_lipo>
-1.91104

> <r_i_glide_metal>
0

> <r_i_glide_rewards>
2.59616

> <s_i_glide_gridfile>
wee1_glide-grid

> <s_m_Source_File>
wee1_decoys_glide_SP.sdf

> <s_m_Source_Path>
/Users/zhangxujun/Desktop

> <s_m_entry_id>
1681

> <s_m_entry_name>
wee1_decoys_glide_SP.1406

> <s_m_subgroup_title>
wee1_decoys_glide_SP

> <s_m_subgroupid>
wee1_decoys_glide_SP


$$$$
