@<TRIPOS>MOLECULE
ZINC54201117_3187
51   53    1
SMALL
USER_CHARGES


@<TRIPOS>ATOM
      1 C1          6.0440   54.0412   25.1163 C.3       1 UNK         0.0000 
      2 C2          5.8011   55.1720   26.1248 C.3       1 UNK         0.0000 
      3 C3          5.7468   54.7157   27.6002 C.3       1 UNK         0.0000 
      4 C4          4.4650   54.0157   28.0418 C.2       1 UNK         0.0000 
      5 N5          4.3057   53.5955   29.2764 N.2       1 UNK         0.0000 
      6 N6          3.0957   52.9609   29.5180 N.2       1 UNK         0.0000 
      7 C7          2.3432   52.9079   28.4519 C.2       1 UNK         0.0000 
      8 S8          3.0575   53.6937   27.0573 S.3       1 UNK         0.0000 
      9 N9          1.0909   52.3139   28.4995 N.am      1 UNK         0.0000 
     10 C10         0.2604   52.0429   27.4730 C.2       1 UNK         0.0000 
     11 O11         0.5136   52.2526   26.2855 O.2       1 UNK         0.0000 
     12 C12        -1.0871   51.4404   27.8952 C.3       1 UNK         0.0000 
     13 C13        -2.1109   51.2110   26.7526 C.3       1 UNK         0.0000 
     14 H14        -1.9941   52.0017   26.0078 H         1 UNK         0.0000 
     15 C15        -3.5641   51.2548   27.2257 C.ar      1 UNK         0.0000 
     16 C16        -4.4838   52.0607   26.5469 C.ar      1 UNK         0.0000 
     17 C17        -5.8092   52.1155   26.9691 C.ar      1 UNK         0.0000 
     18 C18        -6.2145   51.3684   28.0732 C.ar      1 UNK         0.0000 
     19 C19        -5.3088   50.5579   28.7524 C.ar      1 UNK         0.0000 
     20 C20        -3.9859   50.4967   28.3260 C.ar      1 UNK         0.0000 
     21 N21        -1.8434   49.9244   26.0816 N.pl3     1 UNK         0.0000 
     22 S22        -1.9943   49.7381   24.3417 S.o2      1 UNK         0.0000 
     23 O23        -2.0041   48.2988   24.0585 O.2       1 UNK         0.0000 
     24 O24        -3.0885   50.6017   23.8802 O.2       1 UNK         0.0000 
     25 C25        -0.4693   50.3820   23.6530 C.ar      1 UNK         0.0000 
     26 C26         0.7040   49.6377   23.7816 C.ar      1 UNK         0.0000 
     27 C27         1.8792   50.0969   23.1951 C.ar      1 UNK         0.0000 
     28 C28         1.8831   51.3026   22.4975 C.ar      1 UNK         0.0000 
     29 C29         0.7198   52.0614   22.3889 C.ar      1 UNK         0.0000 
     30 C30        -0.4613   51.6014   22.9685 C.ar      1 UNK         0.0000 
     31 Br31        3.4906   51.9145   21.6816 Br        1 UNK         0.0000 
     32 H32         6.1012   54.4301   24.0974 H         1 UNK         0.0000 
     33 H33         5.2427   53.3042   25.1375 H         1 UNK         0.0000 
     34 H34         6.9825   53.5223   25.3204 H         1 UNK         0.0000 
     35 H35         6.6039   55.9003   26.0128 H         1 UNK         0.0000 
     36 H36         4.8856   55.7016   25.8629 H         1 UNK         0.0000 
     37 H37         6.6065   54.0752   27.8071 H         1 UNK         0.0000 
     38 H38         5.9043   55.5887   28.2324 H         1 UNK         0.0000 
     39 H39         0.7913   52.0067   29.4134 H         1 UNK         0.0000 
     40 H40        -0.8942   50.4996   28.4120 H         1 UNK         0.0000 
     41 H41        -1.5205   52.0970   28.6482 H         1 UNK         0.0000 
     42 H42        -4.1777   52.6353   25.6847 H         1 UNK         0.0000 
     43 H43        -6.5215   52.7337   26.4434 H         1 UNK         0.0000 
     44 H44        -7.2422   51.4079   28.4001 H         1 UNK         0.0000 
     45 H45        -5.6280   49.9707   29.6015 H         1 UNK         0.0000 
     46 H46        -3.2948   49.8537   28.8515 H         1 UNK         0.0000 
     47 H47        -1.6951   49.0949   26.6746 H         1 UNK         0.0000 
     48 H48         0.7055   48.6998   24.3207 H         1 UNK         0.0000 
     49 H49         2.7859   49.5166   23.2802 H         1 UNK         0.0000 
     50 H50         0.7337   52.9964   21.8486 H         1 UNK         0.0000 
     51 H51        -1.3649   52.1853   22.8746 H         1 UNK         0.0000 
@<TRIPOS>BOND
     1    1    2 1    
     2    1   32 1    
     3    1   33 1    
     4    1   34 1    
     5    2    3 1    
     6    2   35 1    
     7    2   36 1    
     8    3    4 1    
     9    3   37 1    
    10    3   38 1    
    11    4    8 1    
    12    4    5 2    
    13    5    6 1    
    14    6    7 2    
    15    7    8 1    
    16    7    9 am   BACKBONE|DICT|INTERRES
    17    9   10 am   BACKBONE|DICT|INTERRES
    18    9   39 1    
    19   10   11 2    
    20   10   12 1    
    21   12   13 1    
    22   12   40 1    
    23   12   41 1    
    24   13   14 1    
    25   13   15 1    
    26   13   21 1    
    27   15   20 ar   
    28   15   16 ar   
    29   16   17 ar   
    30   16   42 1    
    31   17   18 ar   
    32   17   43 1    
    33   18   19 ar   
    34   18   44 1    
    35   19   20 ar   
    36   19   45 1    
    37   20   46 1    
    38   21   22 1    
    39   21   47 1    
    40   22   23 2    
    41   22   24 2    
    42   22   25 1    
    43   25   30 ar   
    44   25   26 ar   
    45   26   27 ar   
    46   26   48 1    
    47   27   28 ar   
    48   27   49 1    
    49   28   29 ar   
    50   28   31 1    
    51   29   30 ar   
    52   29   50 1    
    53   30   51 1    
@<TRIPOS>SUBSTRUCTURE
     1 UNK         1 GROUP             0       ****    0 ROOT    
