@<TRIPOS>MOLECULE
ZINC41549380_37
40   43    1
SMALL
USER_CHARGES


@<TRIPOS>ATOM
      1 C1          6.5639   55.4240   16.8040 C.3       1 UNK         0.0000 
      2 C2          5.9973   56.6553   17.5636 C.3       1 UNK         0.0000 
      3 C3          4.4523   56.7752   17.2575 C.2       1 UNK         0.0000 
      4 O4          3.5613   56.0958   17.7657 O.2       1 UNK         0.0000 
      5 N5          4.1698   57.7025   16.3246 N.am      1 UNK         0.0000 
      6 C6          5.0817   58.4929   15.6379 C.ar      1 UNK         0.0000 
      7 C7          4.7051   59.2359   14.5160 C.ar      1 UNK         0.0000 
      8 C8          5.6548   60.0217   13.8570 C.ar      1 UNK         0.0000 
      9 C9          6.9754   60.0608   14.3154 C.ar      1 UNK         0.0000 
     10 C10         7.3532   59.3124   15.4322 C.ar      1 UNK         0.0000 
     11 C11         6.4023   58.5281   16.0825 C.ar      1 UNK         0.0000 
     12 O12         6.7818   57.8302   17.2100 O.3       1 UNK         0.0000 
     13 Cl13        5.1946   60.9492   12.4756 Cl        1 UNK         0.0000 
     14 C14         6.2125   56.4273   19.0983 C.2       1 UNK         0.0000 
     15 O15         6.8877   57.2376   19.7402 O.2       1 UNK         0.0000 
     16 N16         5.6487   55.3275   19.6635 N.am      1 UNK         0.0000 
     17 C17         5.7745   54.8968   20.9781 C.2       1 UNK         0.0000 
     18 N18         4.9721   53.9994   21.4896 N.2       1 UNK         0.0000 
     19 N19         5.2859   53.6958   22.8104 N.2       1 UNK         0.0000 
     20 C20         6.3061   54.3750   23.2845 C.2       1 UNK         0.0000 
     21 S21         7.0318   55.4001   22.0812 S.3       1 UNK         0.0000 
     22 C22         6.8875   54.2224   24.6822 C.3       1 UNK         0.0000 
     23 C23         5.9207   54.2287   25.8614 C.2       1 UNK         0.0000 
     24 C24         6.2415   54.0395   27.2080 C.2       1 UNK         0.0000 
     25 C25         5.1577   54.0947   28.0865 C.2       1 UNK         0.0000 
     26 C26         3.9639   54.3299   27.4332 C.2       1 UNK         0.0000 
     27 S27         4.1966   54.4963   25.7271 S.3       1 UNK         0.0000 
     28 H28         6.0242   54.4997   17.0229 H         1 UNK         0.0000 
     29 H29         6.5178   55.5743   15.7241 H         1 UNK         0.0000 
     30 H30         7.6147   55.2558   17.0475 H         1 UNK         0.0000 
     31 H31         3.1907   57.7660   16.0918 H         1 UNK         0.0000 
     32 H32         3.6846   59.2210   14.1644 H         1 UNK         0.0000 
     33 H33         7.7032   60.6795   13.8113 H         1 UNK         0.0000 
     34 H34         8.3679   59.3504   15.7988 H         1 UNK         0.0000 
     35 H35         4.9608   54.8360   19.1105 H         1 UNK         0.0000 
     36 H36         7.5042   53.3259   24.7114 H         1 UNK         0.0000 
     37 H37         7.5842   55.0411   24.8526 H         1 UNK         0.0000 
     38 H38         7.2512   53.8580   27.5457 H         1 UNK         0.0000 
     39 H39         5.2450   53.9660   29.1545 H         1 UNK         0.0000 
     40 H40         2.9758   54.4147   27.8603 H         1 UNK         0.0000 
@<TRIPOS>BOND
     1    1    2 1    
     2    1   28 1    
     3    1   29 1    
     4    1   30 1    
     5    2   12 1    
     6    2    3 1    
     7    2   14 1    
     8    3    4 2    
     9    3    5 am   BACKBONE|DICT|INTERRES
    10    5    6 1    
    11    5   31 1    
    12    6   11 ar   
    13    6    7 ar   
    14    7    8 ar   
    15    7   32 1    
    16    8    9 ar   
    17    8   13 1    
    18    9   10 ar   
    19    9   33 1    
    20   10   11 ar   
    21   10   34 1    
    22   11   12 1    
    23   14   15 2    
    24   14   16 am   BACKBONE|DICT|INTERRES
    25   16   17 am   BACKBONE|DICT|INTERRES
    26   16   35 1    
    27   17   21 1    
    28   17   18 2    
    29   18   19 1    
    30   19   20 2    
    31   20   21 1    
    32   20   22 1    
    33   22   23 1    
    34   22   36 1    
    35   22   37 1    
    36   23   27 1    
    37   23   24 2    
    38   24   25 1    
    39   24   38 1    
    40   25   26 2    
    41   25   39 1    
    42   26   27 1    
    43   26   40 1    
@<TRIPOS>SUBSTRUCTURE
     1 UNK         1 GROUP             0       ****    0 ROOT    
