ZINC46621258_3748
                    3D
 Schrodinger Suite 2024-2.
 50 53  0  0  1  0            999 V2000
    0.2993   51.8257   28.3149 C   0  0  0  0  0  0
   -0.0464   53.1471   28.0333 C   0  0  0  0  0  0
    0.9163   54.1596   28.0818 C   0  0  0  0  0  0
    2.2359   53.8420   28.3584 C   0  0  0  0  0  0
    2.5846   52.5142   28.6499 C   0  0  0  0  0  0
    1.6202   51.5133   28.6309 C   0  0  0  0  0  0
    3.8832   52.1313   28.8828 O   0  0  0  0  0  0
    4.7045   53.2213   29.2801 C   0  0  0  0  0  0
    4.5400   54.4550   28.3588 C   0  0  2  0  0  0
    5.1610   55.2897   28.6892 H   0  0  0  0  0  0
    3.1591   54.8762   28.3476 O   0  0  0  0  0  0
    5.0387   54.1607   26.9197 C   0  0  0  0  0  0
    6.1652   53.6807   26.7750 O   0  0  0  0  0  0
    4.2106   54.4731   25.8951 N   0  0  0  0  0  0
    4.4555   54.0962   24.5609 N   0  0  0  0  0  0
    5.5101   54.5556   23.8486 C   0  0  0  0  0  0
    6.3821   55.2977   24.3140 O   0  0  0  0  0  0
    5.5050   54.2276   22.3677 C   0  0  0  0  0  0
    6.2157   55.0471   21.4794 C   0  0  0  0  0  0
    6.2023   54.7997   20.1086 C   0  0  0  0  0  0
    5.5029   53.6912   19.6040 C   0  0  0  0  0  0
    4.7872   52.8765   20.4807 C   0  0  0  0  0  0
    4.7748   53.1471   21.8458 C   0  0  0  0  0  0
    5.4874   53.2969   18.2506 N   0  0  0  0  0  0
    5.9637   53.9398   17.1621 C   0  0  0  0  0  0
    6.5693   55.0130   17.1836 O   0  0  0  0  0  0
    5.7270   53.2478   15.8414 C   0  0  0  0  0  0
    6.6683   53.3737   14.8098 C   0  0  0  0  0  0
    6.4618   52.7560   13.5757 C   0  0  0  0  0  0
    5.3045   52.0102   13.3535 C   0  0  0  0  0  0
    4.3541   51.8830   14.3652 C   0  0  0  0  0  0
    4.5620   52.4966   15.6032 C   0  0  0  0  0  0
    2.9191   50.9673   14.0815 Cl  0  0  0  0  0  0
    7.6381   52.9151   12.3227 Cl  0  0  0  0  0  0
   -0.4455   51.0420   28.2659 H   0  0  0  0  0  0
   -1.0499   53.3734   27.7126 H   0  0  0  0  0  0
    0.6647   55.1862   27.8648 H   0  0  0  0  0  0
    1.9055   50.4967   28.8387 H   0  0  0  0  0  0
    5.7439   52.8971   29.2814 H   0  0  0  0  0  0
    4.4174   53.5144   30.2920 H   0  0  0  0  0  0
    3.2903   54.8646   26.0341 H   0  0  0  0  0  0
    3.9678   53.2480   24.3133 H   0  0  0  0  0  0
    6.7818   55.8937   21.8450 H   0  0  0  0  0  0
    6.7759   55.4568   19.4757 H   0  0  0  0  0  0
    4.2404   52.0210   20.1085 H   0  0  0  0  0  0
    4.1942   52.4972   22.4815 H   0  0  0  0  0  0
    5.1047   52.3691   18.0830 H   0  0  0  0  0  0
    7.5726   53.9502   14.9614 H   0  0  0  0  0  0
    5.1453   51.5309   12.3982 H   0  0  0  0  0  0
    3.8080   52.3770   16.3698 H   0  0  0  0  0  0
  1  6  2  0  0  0
  1  2  1  0  0  0
  1 35  1  0  0  0
  2  3  2  0  0  0
  2 36  1  0  0  0
  3  4  1  0  0  0
  3 37  1  0  0  0
  4 11  1  0  0  0
  4  5  2  0  0  0
  5  6  1  0  0  0
  5  7  1  0  0  0
  6 38  1  0  0  0
  7  8  1  0  0  0
  8  9  1  0  0  0
  8 39  1  0  0  0
  8 40  1  0  0  0
  9 10  1  0  0  0
  9 11  1  0  0  0
  9 12  1  0  0  0
 12 13  2  0  0  0
 12 14  1  0  0  0
 14 15  1  0  0  0
 14 41  1  0  0  0
 15 16  1  0  0  0
 15 42  1  0  0  0
 16 17  2  0  0  0
 16 18  1  0  0  0
 18 23  2  0  0  0
 18 19  1  0  0  0
 19 20  2  0  0  0
 19 43  1  0  0  0
 20 21  1  0  0  0
 20 44  1  0  0  0
 21 22  2  0  0  0
 21 24  1  0  0  0
 22 23  1  0  0  0
 22 45  1  0  0  0
 23 46  1  0  0  0
 24 25  1  0  0  0
 24 47  1  0  0  0
 25 26  2  0  0  0
 25 27  1  0  0  0
 27 32  2  0  0  0
 27 28  1  0  0  0
 28 29  2  0  0  0
 28 48  1  0  0  0
 29 30  1  0  0  0
 29 34  1  0  0  0
 30 31  2  0  0  0
 30 49  1  0  0  0
 31 32  1  0  0  0
 31 33  1  0  0  0
 32 50  1  0  0  0
M  END
> <i_i_glide_confnum>
36

> <i_i_glide_lignum>
3749

> <i_i_glide_posenum>
363

> <i_i_glide_rotatable_bonds>
8

> <i_m_Source_File_Index>
3674

> <b_m_subgroup_collapsed>
0

> <r_i_docking_score>
-4.70945

> <r_i_glide_ecoul>
-2.60489

> <r_i_glide_eff_state_penalty>
0

> <r_i_glide_einternal>
4.18727

> <r_i_glide_emodel>
-52.615

> <r_i_glide_energy>
-40.0589

> <r_i_glide_erotb>
0.601498

> <r_i_glide_esite>
-0.109806

> <r_i_glide_evdw>
-37.454

> <r_i_glide_gscore>
-4.70945

> <r_i_glide_hbond>
-0.150632

> <r_i_glide_ligand_efficiency>
-0.142711

> <r_i_glide_ligand_efficiency_ln>
-1.04736

> <r_i_glide_ligand_efficiency_sa>
-0.457749

> <r_i_glide_lipo>
-1.98373

> <r_i_glide_metal>
0

> <r_i_glide_rewards>
-0.803349

> <s_i_glide_gridfile>
wee1_glide-grid

> <s_m_Source_File>
wee1_decoys_glide_SP.sdf

> <s_m_Source_Path>
/Users/zhangxujun/Desktop

> <s_m_entry_id>
3949

> <s_m_entry_name>
wee1_decoys_glide_SP.3674

> <s_m_subgroup_title>
wee1_decoys_glide_SP

> <s_m_subgroupid>
wee1_decoys_glide_SP


$$$$
