@<TRIPOS>MOLECULE
ZINC41313882_4198
59   63    1
SMALL
USER_CHARGES


@<TRIPOS>ATOM
      1 C1          5.2823   57.3196   16.1980 C.3       1 UNK         0.0000 
      2 C2          4.7862   55.8842   16.2293 C.ar      1 UNK         0.0000 
      3 C3          4.3524   55.2578   15.0550 C.ar      1 UNK         0.0000 
      4 C4          3.8946   53.9372   15.0534 C.ar      1 UNK         0.0000 
      5 C5          3.8411   53.1811   16.2273 C.ar      1 UNK         0.0000 
      6 C6          4.2536   53.7777   17.4276 C.ar      1 UNK         0.0000 
      7 C7          4.7264   55.1109   17.3995 C.ar      1 UNK         0.0000 
      8 O8          5.1124   55.5175   18.6457 O.3       1 UNK         0.0000 
      9 C9          4.8460   54.4796   19.4917 C.2       1 UNK         0.0000 
     10 C10         4.3457   53.3805   18.7967 C.2       1 UNK         0.0000 
     11 C11         5.1925   54.6450   20.8728 C.2       1 UNK         0.0000 
     12 O12         6.2109   55.2579   21.2035 O.2       1 UNK         0.0000 
     13 N13         4.2716   54.1182   21.7067 N.am      1 UNK         0.0000 
     14 C14         4.2718   54.0947   23.1020 C.2       1 UNK         0.0000 
     15 C15         3.2097   53.6585   23.9236 C.2       1 UNK         0.0000 
     16 C16         3.5125   53.8088   25.3039 C.2       1 UNK         0.0000 
     17 C17         4.8434   54.2143   25.5024 C.2       1 UNK         0.0000 
     18 S18         5.6900   54.4966   24.0333 S.3       1 UNK         0.0000 
     19 C19         5.5416   54.3351   26.8414 C.3       1 UNK         0.0000 
     20 C20         4.4744   54.3340   27.9547 C.3       1 UNK         0.0000 
     21 H21         3.9881   55.3013   27.9998 H         1 UNK         0.0000 
     22 C22         3.4348   53.2309   27.7402 C.3       1 UNK         0.0000 
     23 C23         2.5843   53.5303   26.5044 C.3       1 UNK         0.0000 
     24 C24         5.1689   54.1224   29.2819 C.3       1 UNK         0.0000 
     25 C25         1.9323   53.2138   23.4063 C.2       1 UNK         0.0000 
     26 O26         1.4704   53.6922   22.3803 O.2       1 UNK         0.0000 
     27 N27         1.3271   52.2363   24.1003 N.am      1 UNK         0.0000 
     28 C28         0.0130   51.6608   23.8334 C.3       1 UNK         0.0000 
     29 H29        -0.7697   52.4258   23.8473 H         1 UNK         0.0000 
     30 C30        -0.3066   50.6362   24.9477 C.3       1 UNK         0.0000 
     31 C31        -1.5557   49.8378   24.5514 C.3       1 UNK         0.0000 
     32 S32        -1.4161   49.6327   22.6941 S.o2      1 UNK         0.0000 
     33 O33        -2.6430   50.1348   22.0737 O.2       1 UNK         0.0000 
     34 O34        -0.8962   48.3031   22.3648 O.2       1 UNK         0.0000 
     35 C35        -0.0446   50.8906   22.4992 C.3       1 UNK         0.0000 
     36 H36         5.2441   57.7512   15.1974 H         1 UNK         0.0000 
     37 H37         4.6789   57.9409   16.8614 H         1 UNK         0.0000 
     38 H38         6.3118   57.3708   16.5540 H         1 UNK         0.0000 
     39 H39         4.3724   55.8010   14.1205 H         1 UNK         0.0000 
     40 H40         3.5777   53.4891   14.1215 H         1 UNK         0.0000 
     41 H41         3.4975   52.1562   16.2170 H         1 UNK         0.0000 
     42 H42         4.0966   52.4142   19.2140 H         1 UNK         0.0000 
     43 H43         3.4176   53.7868   21.2735 H         1 UNK         0.0000 
     44 H44         6.2171   53.4864   26.9614 H         1 UNK         0.0000 
     45 H45         6.1393   55.2484   26.8893 H         1 UNK         0.0000 
     46 H46         3.9155   52.2570   27.6866 H         1 UNK         0.0000 
     47 H47         2.7817   53.1627   28.6111 H         1 UNK         0.0000 
     48 H48         1.9491   54.3932   26.6908 H         1 UNK         0.0000 
     49 H49         1.9132   52.6873   26.3841 H         1 UNK         0.0000 
     50 H50         5.6847   53.1621   29.2817 H         1 UNK         0.0000 
     51 H51         5.9041   54.8986   29.4875 H         1 UNK         0.0000 
     52 H52         4.4563   54.1256   30.1092 H         1 UNK         0.0000 
     53 H53         1.8120   51.8773   24.9091 H         1 UNK         0.0000 
     54 H54        -0.4393   51.1289   25.9126 H         1 UNK         0.0000 
     55 H55         0.5377   49.9532   25.0848 H         1 UNK         0.0000 
     56 H56        -2.4381   50.4508   24.7466 H         1 UNK         0.0000 
     57 H57        -1.7033   48.8740   25.0415 H         1 UNK         0.0000 
     58 H58         0.8538   50.2715   22.4642 H         1 UNK         0.0000 
     59 H59        -0.0725   51.4430   21.5591 H         1 UNK         0.0000 
@<TRIPOS>BOND
     1    1    2 1    
     2    1   36 1    
     3    1   37 1    
     4    1   38 1    
     5    2    7 ar   
     6    2    3 ar   
     7    3    4 ar   
     8    3   39 1    
     9    4    5 ar   
    10    4   40 1    
    11    5    6 ar   
    12    5   41 1    
    13    6   10 1    
    14    6    7 ar   
    15    7    8 1    
    16    8    9 1    
    17    9   10 2    
    18    9   11 1    
    19   10   42 1    
    20   11   12 2    
    21   11   13 am   BACKBONE|DICT|INTERRES
    22   13   14 am   BACKBONE|DICT|INTERRES
    23   13   43 1    
    24   14   18 1    
    25   14   15 2    
    26   15   16 1    
    27   15   25 1    
    28   16   23 1    
    29   16   17 2    
    30   17   18 1    
    31   17   19 1    
    32   19   20 1    
    33   19   44 1    
    34   19   45 1    
    35   20   21 1    
    36   20   22 1    
    37   20   24 1    
    38   22   23 1    
    39   22   46 1    
    40   22   47 1    
    41   23   48 1    
    42   23   49 1    
    43   24   50 1    
    44   24   51 1    
    45   24   52 1    
    46   25   26 2    
    47   25   27 am   BACKBONE|DICT|INTERRES
    48   27   28 1    
    49   27   53 1    
    50   28   29 1    
    51   28   35 1    
    52   28   30 1    
    53   30   31 1    
    54   30   54 1    
    55   30   55 1    
    56   31   32 1    
    57   31   56 1    
    58   31   57 1    
    59   32   33 2    
    60   32   34 2    
    61   32   35 1    
    62   35   58 1    
    63   35   59 1    
@<TRIPOS>SUBSTRUCTURE
     1 UNK         1 GROUP             0       ****    0 ROOT    
