ZINC43260174_3182
                    3D
 Schrodinger Suite 2024-2.
 66 69  0  0  1  0            999 V2000
    0.2362   53.4903   31.3431 C   0  0  0  0  0  0
    0.5235   53.2179   29.8817 C   0  0  0  0  0  0
    1.2970   54.1175   29.1544 C   0  0  0  0  0  0
    1.5450   53.8865   27.8056 C   0  0  0  0  0  0
    1.0089   52.7535   27.1683 C   0  0  0  0  0  0
    0.2368   51.8548   27.9105 C   0  0  0  0  0  0
   -0.0062   52.0856   29.2620 C   0  0  0  0  0  0
    1.1685   52.4465   25.8000 N   0  0  0  0  0  0
    1.9084   53.0725   24.8506 C   0  0  0  0  0  0
    2.5577   54.0945   25.0806 O   0  0  0  0  0  0
    1.8929   52.5052   23.6061 N   0  0  0  0  0  0
    1.3785   51.1361   23.3640 C   0  0  0  0  0  0
    2.2002   50.4554   22.2541 C   0  0  0  0  0  0
    1.9934   51.2689   21.0542 N   0  0  0  0  0  0
    2.5654   52.6364   21.1015 C   0  0  1  0  0  0
    1.9596   53.2925   20.4738 H   0  0  0  0  0  0
    2.5960   53.2643   22.5378 C   0  0  0  0  0  0
    4.0000   52.6936   20.5264 C   0  0  0  0  0  0
    4.8877   51.9767   20.9923 O   0  0  0  0  0  0
    4.2158   53.6048   19.5646 N   0  0  0  0  0  0
    5.5167   53.9011   18.9630 C   0  0  0  0  0  0
    6.2505   55.0367   19.7119 C   0  0  2  0  0  0
    6.2225   54.8803   20.7914 H   0  0  0  0  0  0
    5.9597   56.4658   19.2414 C   0  0  0  0  0  0
    6.9852   56.7807   18.1710 C   0  0  0  0  0  0
    7.9938   55.6408   18.2569 C   0  0  0  0  0  0
    7.6486   54.9347   19.4446 O   0  0  0  0  0  0
    1.4019   50.8184   19.9072 C   0  0  0  0  0  0
    1.3741   51.4864   18.8725 O   0  0  0  0  0  0
    0.7206   49.4712   19.8899 C   0  0  0  0  0  0
   -0.2917   49.1652   20.8098 C   0  0  0  0  0  0
   -0.9728   47.9523   20.7350 C   0  0  0  0  0  0
   -0.6549   47.0359   19.7357 C   0  0  0  0  0  0
    0.3414   47.3250   18.7971 C   0  0  0  0  0  0
    1.0245   48.5473   18.8789 C   0  0  0  0  0  0
    0.6471   46.3172   17.6906 C   0  0  0  0  0  0
    1.8130   46.5602   17.0903 F   0  0  0  0  0  0
    0.6768   45.0790   18.1855 F   0  0  0  0  0  0
   -0.3181   46.3795   16.7722 F   0  0  0  0  0  0
    1.1027   53.2617   31.9618 H   0  0  0  0  0  0
   -0.0350   54.5358   31.4966 H   0  0  0  0  0  0
   -0.6058   52.8965   31.6809 H   0  0  0  0  0  0
    1.7017   55.0000   29.6286 H   0  0  0  0  0  0
    2.1429   54.6165   27.2890 H   0  0  0  0  0  0
   -0.1870   50.9724   27.4507 H   0  0  0  0  0  0
   -0.6093   51.3824   29.8213 H   0  0  0  0  0  0
    0.6697   51.6243   25.4990 H   0  0  0  0  0  0
    1.4896   50.5064   24.2487 H   0  0  0  0  0  0
    0.3240   51.1859   23.0950 H   0  0  0  0  0  0
    3.2641   50.4552   22.4866 H   0  0  0  0  0  0
    1.9524   49.4025   22.1261 H   0  0  0  0  0  0
    3.6312   53.3937   22.8671 H   0  0  0  0  0  0
    2.1296   54.2476   22.4485 H   0  0  0  0  0  0
    3.4201   54.1167   19.2107 H   0  0  0  0  0  0
    5.3471   54.1853   17.9238 H   0  0  0  0  0  0
    6.1368   53.0024   18.9174 H   0  0  0  0  0  0
    6.0816   57.1431   20.0873 H   0  0  0  0  0  0
    4.9273   56.5948   18.9118 H   0  0  0  0  0  0
    7.4554   57.7470   18.3504 H   0  0  0  0  0  0
    6.5279   56.8151   17.1819 H   0  0  0  0  0  0
    9.0255   55.9901   18.3099 H   0  0  0  0  0  0
    7.9264   54.9676   17.4006 H   0  0  0  0  0  0
   -0.5811   49.8763   21.5688 H   0  0  0  0  0  0
   -1.7557   47.7285   21.4436 H   0  0  0  0  0  0
   -1.1978   46.1023   19.6822 H   0  0  0  0  0  0
    1.7873   48.7894   18.1469 H   0  0  0  0  0  0
  1  2  1  0  0  0
  1 40  1  0  0  0
  1 41  1  0  0  0
  1 42  1  0  0  0
  2  7  2  0  0  0
  2  3  1  0  0  0
  3  4  2  0  0  0
  3 43  1  0  0  0
  4  5  1  0  0  0
  4 44  1  0  0  0
  5  6  2  0  0  0
  5  8  1  0  0  0
  6  7  1  0  0  0
  6 45  1  0  0  0
  7 46  1  0  0  0
  8  9  1  0  0  0
  8 47  1  0  0  0
  9 10  2  0  0  0
  9 11  1  0  0  0
 11 17  1  0  0  0
 11 12  1  0  0  0
 12 13  1  0  0  0
 12 48  1  0  0  0
 12 49  1  0  0  0
 13 14  1  0  0  0
 13 50  1  0  0  0
 13 51  1  0  0  0
 14 15  1  0  0  0
 14 28  1  0  0  0
 15 16  1  0  0  0
 15 17  1  0  0  0
 15 18  1  0  0  0
 17 52  1  0  0  0
 17 53  1  0  0  0
 18 19  2  0  0  0
 18 20  1  0  0  0
 20 21  1  0  0  0
 20 54  1  0  0  0
 21 22  1  0  0  0
 21 55  1  0  0  0
 21 56  1  0  0  0
 22 23  1  0  0  0
 22 27  1  0  0  0
 22 24  1  0  0  0
 24 25  1  0  0  0
 24 57  1  0  0  0
 24 58  1  0  0  0
 25 26  1  0  0  0
 25 59  1  0  0  0
 25 60  1  0  0  0
 26 27  1  0  0  0
 26 61  1  0  0  0
 26 62  1  0  0  0
 28 29  2  0  0  0
 28 30  1  0  0  0
 30 35  2  0  0  0
 30 31  1  0  0  0
 31 32  2  0  0  0
 31 63  1  0  0  0
 32 33  1  0  0  0
 32 64  1  0  0  0
 33 34  2  0  0  0
 33 65  1  0  0  0
 34 35  1  0  0  0
 34 36  1  0  0  0
 35 66  1  0  0  0
 36 37  1  0  0  0
 36 38  1  0  0  0
 36 39  1  0  0  0
M  END
> <i_i_glide_confnum>
492

> <i_i_glide_lignum>
3183

> <i_i_glide_posenum>
170

> <i_i_glide_rotatable_bonds>
10

> <i_m_Source_File_Index>
5484

> <b_m_subgroup_collapsed>
0

> <r_i_docking_score>
-4.02747

> <r_i_glide_ecoul>
-4.72874

> <r_i_glide_eff_state_penalty>
0

> <r_i_glide_einternal>
8.87779

> <r_i_glide_emodel>
-52.3066

> <r_i_glide_energy>
-45.5368

> <r_i_glide_erotb>
0.611117

> <r_i_glide_esite>
-0.0925352

> <r_i_glide_evdw>
-40.8081

> <r_i_glide_gscore>
-4.02747

> <r_i_glide_hbond>
0

> <r_i_glide_ligand_efficiency>
-0.108851

> <r_i_glide_ligand_efficiency_ln>
-0.873464

> <r_i_glide_ligand_efficiency_sa>
-0.362714

> <r_i_glide_lipo>
-1.30633

> <r_i_glide_metal>
0

> <r_i_glide_rewards>
-0.490011

> <s_i_glide_gridfile>
wee1_glide-grid

> <s_m_Source_File>
wee1_decoys_glide_SP.sdf

> <s_m_Source_Path>
/Users/zhangxujun/Desktop

> <s_m_entry_id>
5759

> <s_m_entry_name>
wee1_decoys_glide_SP.5484

> <s_m_subgroup_title>
wee1_decoys_glide_SP

> <s_m_subgroupid>
wee1_decoys_glide_SP


$$$$
