@<TRIPOS>MOLECULE
ZINC17082738_6187
58   60    1
SMALL
USER_CHARGES


@<TRIPOS>ATOM
      1 C1          9.5647   50.7763   13.7173 C.3       1 UNK         0.0000 
      2 C2          8.0315   50.7592   13.5509 C.3       1 UNK         0.0000 
      3 N3          7.3101   51.7015   14.4283 N.pl3     1 UNK         0.0000 
      4 C4          7.5278   52.0967   15.7422 C.ar      1 UNK         0.0000 
      5 C5          6.5321   53.0336   16.0237 C.ar      1 UNK         0.0000 
      6 C6          5.7903   53.0937   14.8385 C.ar      1 UNK         0.0000 
      7 N7          6.2325   52.2972   13.9013 N.2       1 UNK         0.0000 
      8 C8          6.3476   53.8633   17.2835 C.3       1 UNK         0.0000 
      9 C9          3.8593   53.2348   17.5432 C.3       1 UNK         0.0000 
     10 C10         5.2173   54.1371   19.4844 C.3       1 UNK         0.0000 
     11 C11         4.5276   53.4289   20.6680 C.2       1 UNK         0.0000 
     12 O12         4.0233   52.3131   20.5488 O.2       1 UNK         0.0000 
     13 N13         4.5692   54.1292   21.8201 N.am      1 UNK         0.0000 
     14 C14         3.9616   53.8089   23.0333 C.2       1 UNK         0.0000 
     15 C15         4.4400   54.0977   24.3369 C.2       1 UNK         0.0000 
     16 C16         3.4512   53.7966   25.3216 C.2       1 UNK         0.0000 
     17 C17         2.3137   53.1746   24.7732 C.2       1 UNK         0.0000 
     18 S18         2.3788   53.0779   23.0512 S.3       1 UNK         0.0000 
     19 C19         1.1160   52.6503   25.5598 C.3       1 UNK         0.0000 
     20 C20         1.4637   52.6086   27.0692 C.3       1 UNK         0.0000 
     21 H21         2.1200   51.7584   27.2655 H         1 UNK         0.0000 
     22 C22         2.1570   53.9160   27.4894 C.3       1 UNK         0.0000 
     23 C23         3.5473   54.0617   26.8339 C.3       1 UNK         0.0000 
     24 C24         0.1932   52.3581   27.8998 C.3       1 UNK         0.0000 
     25 C25         5.7473   54.6869   24.6464 C.2       1 UNK         0.0000 
     26 O26         5.9899   55.2991   25.6816 O.2       1 UNK         0.0000 
     27 N27         6.7049   54.5096   23.7356 N.am      1 UNK         0.0000 
     28 C28         8.6509   51.5816   16.6210 C.3       1 UNK         0.0000 
     29 H29        10.0448   50.2470   12.8932 H         1 UNK         0.0000 
     30 H30         9.9628   51.7926   13.7231 H         1 UNK         0.0000 
     31 H31         9.8862   50.2702   14.6280 H         1 UNK         0.0000 
     32 H32         7.6249   49.7549   13.6841 H         1 UNK         0.0000 
     33 H33         7.8114   51.0272   12.5136 H         1 UNK         0.0000 
     34 H34         4.9340   53.7292   14.6630 H         1 UNK         0.0000 
     35 H35         6.0629   54.8941   17.0602 H         1 UNK         0.0000 
     36 H36         7.2650   53.8771   17.8740 H         1 UNK         0.0000 
     37 H37         3.6429   54.2121   17.1110 H         1 UNK         0.0000 
     38 H38         3.9168   52.4582   16.7808 H         1 UNK         0.0000 
     39 H39         3.1089   52.9598   18.2830 H         1 UNK         0.0000 
     40 H40         4.7182   55.0728   19.2226 H         1 UNK         0.0000 
     41 H41         6.2503   54.3567   19.7594 H         1 UNK         0.0000 
     42 H42         5.1376   54.9627   21.8253 H         1 UNK         0.0000 
     43 H43         0.8412   51.6517   25.2184 H         1 UNK         0.0000 
     44 H44         0.2599   53.2965   25.3812 H         1 UNK         0.0000 
     45 H45         2.2815   53.9309   28.5727 H         1 UNK         0.0000 
     46 H46         1.5096   54.7685   27.2821 H         1 UNK         0.0000 
     47 H47         3.9189   55.0631   27.0479 H         1 UNK         0.0000 
     48 H48         4.2508   53.3613   27.2864 H         1 UNK         0.0000 
     49 H49        -0.5277   53.1692   27.7879 H         1 UNK         0.0000 
     50 H50        -0.2999   51.4301   27.6030 H         1 UNK         0.0000 
     51 H51         0.4306   52.2686   28.9612 H         1 UNK         0.0000 
     52 H52         6.5481   53.8830   22.9626 H         1 UNK         0.0000 
     53 H53         7.6295   54.8949   23.8912 H         1 UNK         0.0000 
     54 H54         8.5082   51.8348   17.6737 H         1 UNK         0.0000 
     55 H55         8.7258   50.4968   16.5839 H         1 UNK         0.0000 
     56 H56         9.6183   51.9873   16.3252 H         1 UNK         0.0000 
     57 N57         5.2485   53.2967   18.2268 N.4       1 UNK         0.0000 
     58 H58         5.5039   52.3334   18.4519 H         1 UNK         0.0000 
@<TRIPOS>BOND
     1    1    2 1    
     2    1   29 1    
     3    1   30 1    
     4    1   31 1    
     5    2    3 1    
     6    2   32 1    
     7    2   33 1    
     8    3    7 ar   
     9    3    4 ar   
    10    4    5 ar   
    11    4   28 1    
    12    5    6 ar   
    13    5    8 1    
    14    6    7 ar   
    15    6   34 1    
    16    8   35 1    
    17    8   36 1    
    18    8   57 1    
    19    9   37 1    
    20    9   38 1    
    21    9   39 1    
    22    9   57 1    
    23   10   11 1    
    24   10   40 1    
    25   10   41 1    
    26   10   57 1    
    27   11   12 2    
    28   11   13 am   BACKBONE|DICT|INTERRES
    29   13   14 am   BACKBONE|DICT|INTERRES
    30   13   42 1    
    31   14   18 1    
    32   14   15 2    
    33   15   16 1    
    34   15   25 1    
    35   16   23 1    
    36   16   17 2    
    37   17   18 1    
    38   17   19 1    
    39   19   20 1    
    40   19   43 1    
    41   19   44 1    
    42   20   21 1    
    43   20   22 1    
    44   20   24 1    
    45   22   23 1    
    46   22   45 1    
    47   22   46 1    
    48   23   47 1    
    49   23   48 1    
    50   24   49 1    
    51   24   50 1    
    52   24   51 1    
    53   25   26 2    
    54   25   27 am   BACKBONE|DICT|INTERRES
    55   27   52 1    
    56   27   53 1    
    57   28   54 1    
    58   28   55 1    
    59   28   56 1    
    60   57   58 1    
@<TRIPOS>SUBSTRUCTURE
     1 UNK         1 GROUP             0       ****    0 ROOT    
