ZINC39636003_634
                    3D
 Schrodinger Suite 2024-2.
 66 69  0  0  1  0            999 V2000
    1.9918   48.9508   20.6513 C   0  0  0  0  0  0
    1.8508   50.0363   19.5610 C   0  0  1  0  0  0
    2.8070   50.5520   19.4460 H   0  0  0  0  0  0
    1.5489   49.4063   18.1847 C   0  0  0  0  0  0
    1.5749   50.4815   17.0804 C   0  0  0  0  0  0
    0.5742   51.6161   17.3764 C   0  0  0  0  0  0
    0.7338   52.1972   18.8000 C   0  0  0  0  0  0
    0.7630   51.0986   19.8892 C   0  0  2  0  0  0
   -0.1909   50.5633   19.8454 H   0  0  0  0  0  0
    0.8665   51.6328   21.2473 N   0  0  0  0  0  0
   -0.1430   52.0966   22.0074 C   0  0  0  0  0  0
   -1.3129   52.0961   21.6260 O   0  0  0  0  0  0
    0.1706   52.6559   23.4211 C   0  0  2  0  0  0
   -0.4687   53.5290   23.5680 H   0  0  0  0  0  0
    1.6076   53.2006   23.4880 C   0  0  0  0  0  0
    1.9077   53.1787   24.9188 N   0  0  0  0  0  0
    0.9533   52.3454   25.6603 C   0  0  0  0  0  0
    0.0475   51.6611   24.6044 C   0  0  0  0  0  0
    0.5526   50.2156   24.2943 C   0  0  0  0  0  0
    0.4744   49.2843   25.5314 C   0  0  0  0  0  0
   -0.9709   49.2967   26.0817 N   0  3  0  0  0  0
   -1.5556   50.6990   26.3364 C   0  0  0  0  0  0
   -1.4322   51.5003   25.0342 C   0  0  0  0  0  0
    2.9486   53.9070   25.4129 C   0  0  0  0  0  0
    3.6193   54.6292   24.6748 O   0  0  0  0  0  0
    3.3311   53.8121   26.8790 C   0  0  0  0  0  0
    2.3529   53.8416   27.8922 C   0  0  0  0  0  0
    2.6863   53.6712   29.2429 C   0  0  0  0  0  0
    4.0246   53.5313   29.5841 C   0  0  0  0  0  0
    5.0147   53.5621   28.6095 C   0  0  0  0  0  0
    4.6847   53.6972   27.2674 C   0  0  0  0  0  0
    6.1542   53.6970   26.0425 Br  0  0  0  0  0  0
    1.7821   53.6299   30.2846 O   0  0  0  0  0  0
    0.3879   53.5802   30.0008 C   0  0  0  0  0  0
    1.0373   48.4610   20.8461 H   0  0  0  0  0  0
    2.7023   48.1799   20.3538 H   0  0  0  0  0  0
    2.3495   49.3701   21.5918 H   0  0  0  0  0  0
    0.6019   48.8647   18.2002 H   0  0  0  0  0  0
    2.3035   48.6486   17.9586 H   0  0  0  0  0  0
    2.5839   50.8965   16.9993 H   0  0  0  0  0  0
    1.3594   50.0300   16.1117 H   0  0  0  0  0  0
    0.6818   52.4105   16.6360 H   0  0  0  0  0  0
   -0.4412   51.2316   17.2600 H   0  0  0  0  0  0
    1.6554   52.7795   18.8489 H   0  0  0  0  0  0
   -0.0791   52.8964   18.9968 H   0  0  0  0  0  0
    1.7915   51.5986   21.6451 H   0  0  0  0  0  0
    2.3284   52.5144   23.0402 H   0  0  0  0  0  0
    1.6811   54.1913   23.0327 H   0  0  0  0  0  0
    0.2990   53.0362   26.1869 H   0  0  0  0  0  0
    1.3787   51.6788   26.4080 H   0  0  0  0  0  0
    0.0025   49.7690   23.4641 H   0  0  0  0  0  0
    1.5913   50.2507   23.9601 H   0  0  0  0  0  0
    0.7026   48.2453   25.2858 H   0  0  0  0  0  0
    1.1043   49.5819   26.3678 H   0  0  0  0  0  0
   -1.5764   48.7944   25.4481 H   0  0  0  0  0  0
   -2.5904   50.5401   26.6416 H   0  0  0  0  0  0
   -1.0004   51.1204   27.1763 H   0  0  0  0  0  0
   -1.8631   52.4844   25.2261 H   0  0  0  0  0  0
   -2.0388   51.0736   24.2316 H   0  0  0  0  0  0
    1.3224   54.0160   27.6396 H   0  0  0  0  0  0
    4.2987   53.3955   30.6174 H   0  0  0  0  0  0
    6.0547   53.4676   28.8815 H   0  0  0  0  0  0
   -0.1617   53.4664   30.9358 H   0  0  0  0  0  0
    0.0420   54.4963   29.5218 H   0  0  0  0  0  0
    0.1375   52.7279   29.3667 H   0  0  0  0  0  0
   -1.0286   48.7931   26.9835 H   0  0  0  0  0  0
  1  2  1  0  0  0
  1 35  1  0  0  0
  1 36  1  0  0  0
  1 37  1  0  0  0
  2  3  1  0  0  0
  2  8  1  0  0  0
  2  4  1  0  0  0
  4  5  1  0  0  0
  4 38  1  0  0  0
  4 39  1  0  0  0
  5  6  1  0  0  0
  5 40  1  0  0  0
  5 41  1  0  0  0
  6  7  1  0  0  0
  6 42  1  0  0  0
  6 43  1  0  0  0
  7  8  1  0  0  0
  7 44  1  0  0  0
  7 45  1  0  0  0
  8  9  1  0  0  0
  8 10  1  0  0  0
 10 11  1  0  0  0
 10 46  1  0  0  0
 11 12  2  0  0  0
 11 13  1  0  0  0
 13 14  1  0  0  0
 13 18  1  0  0  0
 13 15  1  0  0  0
 15 16  1  0  0  0
 15 47  1  0  0  0
 15 48  1  0  0  0
 16 17  1  0  0  0
 16 24  1  0  0  0
 17 18  1  0  0  0
 17 49  1  0  0  0
 17 50  1  0  0  0
 18 23  1  0  0  0
 18 19  1  0  0  0
 19 20  1  0  0  0
 19 51  1  0  0  0
 19 52  1  0  0  0
 20 21  1  0  0  0
 20 53  1  0  0  0
 20 54  1  0  0  0
 21 22  1  0  0  0
 21 55  1  0  0  0
 21 66  1  0  0  0
 22 23  1  0  0  0
 22 56  1  0  0  0
 22 57  1  0  0  0
 23 58  1  0  0  0
 23 59  1  0  0  0
 24 25  2  0  0  0
 24 26  1  0  0  0
 26 31  2  0  0  0
 26 27  1  0  0  0
 27 28  2  0  0  0
 27 60  1  0  0  0
 28 29  1  0  0  0
 28 33  1  0  0  0
 29 30  2  0  0  0
 29 61  1  0  0  0
 30 31  1  0  0  0
 30 62  1  0  0  0
 31 32  1  0  0  0
 33 34  1  0  0  0
 34 63  1  0  0  0
 34 64  1  0  0  0
 34 65  1  0  0  0
M  CHG  1  21   1
M  END
> <i_i_glide_confnum>
213

> <i_i_glide_lignum>
635

> <i_i_glide_posenum>
380

> <i_i_glide_rotatable_bonds>
6

> <i_m_Source_File_Index>
2168

> <b_m_subgroup_collapsed>
0

> <r_i_docking_score>
-5.78957

> <r_i_glide_ecoul>
-8.53853

> <r_i_glide_eff_state_penalty>
0

> <r_i_glide_einternal>
8.84449

> <r_i_glide_emodel>
-58.1878

> <r_i_glide_energy>
-44.3298

> <r_i_glide_erotb>
0.418309

> <r_i_glide_esite>
-0.101492

> <r_i_glide_evdw>
-35.7913

> <r_i_glide_gscore>
-5.78957

> <r_i_glide_hbond>
-0.388042

> <r_i_glide_ligand_efficiency>
-0.18676

> <r_i_glide_ligand_efficiency_ln>
-1.30573

> <r_i_glide_ligand_efficiency_sa>
-0.586686

> <r_i_glide_lipo>
-1.96388

> <r_i_glide_metal>
0

> <r_i_glide_rewards>
-0.684129

> <s_i_glide_gridfile>
wee1_glide-grid

> <s_m_Source_File>
wee1_decoys_glide_SP.sdf

> <s_m_Source_Path>
/Users/zhangxujun/Desktop

> <s_m_entry_id>
2443

> <s_m_entry_name>
wee1_decoys_glide_SP.2168

> <s_m_subgroup_title>
wee1_decoys_glide_SP

> <s_m_subgroupid>
wee1_decoys_glide_SP


$$$$
