@<TRIPOS>MOLECULE
ZINC40062332_3279
52   55    1
SMALL
USER_CHARGES


@<TRIPOS>ATOM
      1 C1          3.1285   53.8141   24.1479 C.3       1 UNK         0.0000 
      2 C2          4.5641   54.0968   24.5524 C.ar      1 UNK         0.0000 
      3 C3          5.1715   54.1008   25.8165 C.ar      1 UNK         0.0000 
      4 C4          6.4610   54.5684   25.5455 C.ar      1 UNK         0.0000 
      5 N5          6.7044   54.7357   24.2748 N.2       1 UNK         0.0000 
      6 N6          5.5744   54.3906   23.6467 N.pl3     1 UNK         0.0000 
      7 C7          5.5801   54.3297   22.2268 C.ar      1 UNK         0.0000 
      8 C8          4.9661   53.2616   21.5580 C.ar      1 UNK         0.0000 
      9 C9          5.0023   53.1834   20.1665 C.ar      1 UNK         0.0000 
     10 C10         5.6552   54.1669   19.4270 C.ar      1 UNK         0.0000 
     11 C11         6.2991   55.2287   20.0746 C.ar      1 UNK         0.0000 
     12 C12         6.2645   55.2966   21.4732 C.ar      1 UNK         0.0000 
     13 C13         7.0484   56.2967   19.2825 C.3       1 UNK         0.0000 
     14 F14         8.3575   56.1315   19.4690 F         1 UNK         0.0000 
     15 F15         6.7045   57.5117   19.7124 F         1 UNK         0.0000 
     16 F16         6.7973   56.2303   17.9743 F         1 UNK         0.0000 
     17 C17         4.6170   53.6552   27.1683 C.3       1 UNK         0.0000 
     18 H18         3.9947   52.7723   27.0210 H         1 UNK         0.0000 
     19 C19         5.7423   53.2959   28.1611 C.3       1 UNK         0.0000 
     20 N20         3.7512   54.7269   27.6970 N.pl3     1 UNK         0.0000 
     21 S21         2.6251   54.4190   29.0238 S.o2      1 UNK         0.0000 
     22 O22         3.3323   53.6962   30.0842 O.2       1 UNK         0.0000 
     23 O23         1.9602   55.6912   29.3209 O.2       1 UNK         0.0000 
     24 C24         1.3654   53.3190   28.3970 C.ar      1 UNK         0.0000 
     25 C25         0.6223   52.5078   29.2660 C.ar      1 UNK         0.0000 
     26 C26        -0.4003   51.6969   28.7627 C.ar      1 UNK         0.0000 
     27 C27        -0.6700   51.7085   27.3942 C.ar      1 UNK         0.0000 
     28 C28         0.0878   52.4884   26.5234 C.ar      1 UNK         0.0000 
     29 C29         1.1045   53.2937   27.0284 C.ar      1 UNK         0.0000 
     30 N30        -0.2468   52.4953   25.1710 N.am      1 UNK         0.0000 
     31 C31        -1.4143   52.0785   24.6471 C.2       1 UNK         0.0000 
     32 O32        -1.6918   52.1995   23.4560 O.2       1 UNK         0.0000 
     33 C33        -2.3563   51.4478   25.7170 C.3       1 UNK         0.0000 
     34 O34        -1.6745   50.9168   26.8808 O.3       1 UNK         0.0000 
     35 H35         2.7716   52.8728   24.5645 H         1 UNK         0.0000 
     36 H36         2.4768   54.6087   24.5060 H         1 UNK         0.0000 
     37 H37         2.9489   53.7789   23.0761 H         1 UNK         0.0000 
     38 H38         7.2312   54.7216   26.2849 H         1 UNK         0.0000 
     39 H39         4.4777   52.4695   22.1053 H         1 UNK         0.0000 
     40 H40         4.5341   52.3526   19.6557 H         1 UNK         0.0000 
     41 H41         5.6742   54.0806   18.3496 H         1 UNK         0.0000 
     42 H42         6.7749   56.1050   21.9767 H         1 UNK         0.0000 
     43 H43         6.4601   52.6114   27.7077 H         1 UNK         0.0000 
     44 H44         6.2909   54.1776   28.4961 H         1 UNK         0.0000 
     45 H45         5.3574   52.7890   29.0431 H         1 UNK         0.0000 
     46 H46         4.2087   55.6386   27.7611 H         1 UNK         0.0000 
     47 H47         0.8211   52.5174   30.3288 H         1 UNK         0.0000 
     48 H48        -0.9835   51.0701   29.4232 H         1 UNK         0.0000 
     49 H49         1.6545   53.9430   26.3716 H         1 UNK         0.0000 
     50 H50         0.3569   52.9541   24.5069 H         1 UNK         0.0000 
     51 H51        -2.9632   50.6774   25.2423 H         1 UNK         0.0000 
     52 H52        -3.0160   52.2539   26.0408 H         1 UNK         0.0000 
@<TRIPOS>BOND
     1    1    2 1    
     2    1   35 1    
     3    1   36 1    
     4    1   37 1    
     5    2    6 ar   
     6    2    3 ar   
     7    3    4 ar   
     8    3   17 1    
     9    4    5 ar   
    10    4   38 1    
    11    5    6 ar   
    12    6    7 1    
    13    7   12 ar   
    14    7    8 ar   
    15    8    9 ar   
    16    8   39 1    
    17    9   10 ar   
    18    9   40 1    
    19   10   11 ar   
    20   10   41 1    
    21   11   12 ar   
    22   11   13 1    
    23   12   42 1    
    24   13   14 1    
    25   13   15 1    
    26   13   16 1    
    27   17   18 1    
    28   17   19 1    
    29   17   20 1    
    30   19   43 1    
    31   19   44 1    
    32   19   45 1    
    33   20   21 1    
    34   20   46 1    
    35   21   22 2    
    36   21   23 2    
    37   21   24 1    
    38   24   29 ar   
    39   24   25 ar   
    40   25   26 ar   
    41   25   47 1    
    42   26   27 ar   
    43   26   48 1    
    44   27   34 1    
    45   27   28 ar   
    46   28   29 ar   
    47   28   30 1    
    48   29   49 1    
    49   30   31 am   BACKBONE|DICT|INTERRES
    50   30   50 1    
    51   31   32 2    
    52   31   33 1    
    53   33   34 1    
    54   33   51 1    
    55   33   52 1    
@<TRIPOS>SUBSTRUCTURE
     1 UNK         1 GROUP             0       ****    0 ROOT    
