@<TRIPOS>MOLECULE
ZINC40307622_3586
35   36    1
SMALL
USER_CHARGES


@<TRIPOS>ATOM
      1 C1          5.7779   54.1384   25.7831 C.3       1 UNK         0.0000 
      2 C2          4.8997   54.0983   24.5355 C.ar      1 UNK         0.0000 
      3 C3          5.5209   54.1106   23.2817 C.ar      1 UNK         0.0000 
      4 C4          4.7557   54.0953   22.1174 C.ar      1 UNK         0.0000 
      5 C5          3.3728   54.0545   22.1983 C.ar      1 UNK         0.0000 
      6 C6          2.7235   54.0304   23.4359 C.ar      1 UNK         0.0000 
      7 C7          3.4924   54.0470   24.6237 C.ar      1 UNK         0.0000 
      8 N8          2.9073   54.0568   25.9109 N.am      1 UNK         0.0000 
      9 C9          1.9050   53.2736   26.3633 C.2       1 UNK         0.0000 
     10 O10         1.3700   52.4106   25.6687 O.2       1 UNK         0.0000 
     11 C11         1.4779   53.4715   27.8115 C.ar      1 UNK         0.0000 
     12 C12         1.8001   54.6656   28.4871 C.ar      1 UNK         0.0000 
     13 C13         1.4268   54.8656   29.8156 C.ar      1 UNK         0.0000 
     14 C14         0.7156   53.8844   30.4966 C.ar      1 UNK         0.0000 
     15 C15         0.3535   52.7131   29.8435 C.ar      1 UNK         0.0000 
     16 C16         0.7181   52.5017   28.5140 C.ar      1 UNK         0.0000 
     17 N17         0.3008   51.2971   27.9443 N.pl3     1 UNK         0.0000 
     18 Cl18        0.3034   54.1033   32.1557 Cl        1 UNK         0.0000 
     19 O19         1.3459   54.0210   23.4677 O.3       1 UNK         0.0000 
     20 C20         0.7310   52.9214   22.7915 C.3       1 UNK         0.0000 
     21 Br21        5.5760   54.1723   20.4045 Br        1 UNK         0.0000 
     22 H22         6.8423   54.0753   25.5429 H         1 UNK         0.0000 
     23 H23         5.6012   55.0581   26.3450 H         1 UNK         0.0000 
     24 H24         5.5392   53.2956   26.4383 H         1 UNK         0.0000 
     25 H25         6.5975   54.1541   23.2018 H         1 UNK         0.0000 
     26 H26         2.7979   54.0612   21.2846 H         1 UNK         0.0000 
     27 H27         3.3734   54.6304   26.5911 H         1 UNK         0.0000 
     28 H28         2.3437   55.4603   27.9995 H         1 UNK         0.0000 
     29 H29         1.6935   55.7871   30.3177 H         1 UNK         0.0000 
     30 H30        -0.2096   51.9644   30.3832 H         1 UNK         0.0000 
     31 H31         0.4761   51.1700   26.9538 H         1 UNK         0.0000 
     32 H32        -0.3059   50.6619   28.4489 H         1 UNK         0.0000 
     33 H33        -0.2992   52.8273   23.1306 H         1 UNK         0.0000 
     34 H34         0.7109   53.0794   21.7117 H         1 UNK         0.0000 
     35 H35         1.2335   51.9727   22.9947 H         1 UNK         0.0000 
@<TRIPOS>BOND
     1    1    2 1    
     2    1   22 1    
     3    1   23 1    
     4    1   24 1    
     5    2    7 ar   
     6    2    3 ar   
     7    3    4 ar   
     8    3   25 1    
     9    4    5 ar   
    10    4   21 1    
    11    5    6 ar   
    12    5   26 1    
    13    6    7 ar   
    14    6   19 1    
    15    7    8 1    
    16    8    9 am   BACKBONE|DICT|INTERRES
    17    8   27 1    
    18    9   10 2    
    19    9   11 1    
    20   11   16 ar   
    21   11   12 ar   
    22   12   13 ar   
    23   12   28 1    
    24   13   14 ar   
    25   13   29 1    
    26   14   15 ar   
    27   14   18 1    
    28   15   16 ar   
    29   15   30 1    
    30   16   17 1    
    31   17   31 1    
    32   17   32 1    
    33   19   20 1    
    34   20   33 1    
    35   20   34 1    
    36   20   35 1    
@<TRIPOS>SUBSTRUCTURE
     1 UNK         1 GROUP             0       ****    0 ROOT    
