ZINC00921953_5765
                    3D
 Schrodinger Suite 2024-2.
 73 77  0  0  1  0            999 V2000
    0.1546   54.1574   32.0278 C   0  0  0  0  0  0
    1.1062   53.2935   31.4316 O   0  0  0  0  0  0
    0.9432   52.9169   30.1148 C   0  0  0  0  0  0
   -0.0975   53.3542   29.2935 C   0  0  0  0  0  0
   -0.2599   52.8526   28.0029 C   0  0  0  0  0  0
    0.6046   51.8747   27.5071 C   0  0  0  0  0  0
    1.6579   51.4637   28.3271 C   0  0  0  0  0  0
    1.8779   52.0318   29.5875 C   0  0  0  0  0  0
    2.9706   51.6966   30.3510 O   0  0  0  0  0  0
    4.2282   52.0855   29.8145 C   0  0  0  0  0  0
    0.4917   51.2826   26.0988 C   0  0  1  0  0  0
    1.1039   50.3849   26.1552 H   0  0  0  0  0  0
   -0.9174   50.6793   25.7929 C   0  0  0  0  0  0
   -1.9390   51.0760   26.3530 O   0  0  0  0  0  0
   -0.9138   49.6894   24.8860 N   0  0  0  0  0  0
   -2.0526   48.8825   24.4770 C   0  0  0  0  0  0
   -1.8848   48.3630   23.0287 C   0  0  0  0  0  0
   -2.9955   47.3973   22.5779 C   0  0  0  0  0  0
   -3.1862   46.2464   23.5793 C   0  0  0  0  0  0
   -3.4982   46.7853   24.9859 C   0  0  0  0  0  0
   -2.4096   47.7541   25.4848 C   0  0  0  0  0  0
    1.0906   52.1309   24.9757 N   0  0  0  0  0  0
    0.9221   51.6658   23.6497 C   0  0  0  0  0  0
    1.7875   50.6930   23.1154 C   0  0  0  0  0  0
    1.5703   50.1736   21.8376 C   0  0  0  0  0  0
    0.4862   50.6227   21.0883 C   0  0  0  0  0  0
   -0.3881   51.5938   21.6162 C   0  0  0  0  0  0
   -0.1701   52.1109   22.8931 C   0  0  0  0  0  0
   -1.4544   52.0971   20.8935 O   0  0  0  0  0  0
   -1.8302   51.2901   19.7713 C   0  0  0  0  0  0
   -0.5796   50.7883   18.9980 C   0  0  0  0  0  0
    0.2645   50.0239   19.8651 O   0  0  0  0  0  0
    1.8951   53.2427   25.1558 C   0  0  0  0  0  0
    2.1782   53.6963   26.2636 O   0  0  0  0  0  0
    2.4927   54.0464   23.9679 C   0  0  0  0  0  0
    4.0173   54.1390   23.9754 C   0  0  0  0  0  0
    4.9210   53.7028   23.0019 C   0  0  0  0  0  0
    6.2636   53.9661   23.2996 C   0  0  0  0  0  0
    6.4303   54.5903   24.5163 C   0  0  0  0  0  0
    4.9165   54.8515   25.3019 S   0  0  0  0  0  0
    0.4557   54.3980   33.0475 H   0  0  0  0  0  0
    0.0889   55.0907   31.4658 H   0  0  0  0  0  0
   -0.8273   53.6902   32.0815 H   0  0  0  0  0  0
   -0.8224   54.0619   29.6544 H   0  0  0  0  0  0
   -1.0683   53.2199   27.3897 H   0  0  0  0  0  0
    2.3053   50.6915   27.9666 H   0  0  0  0  0  0
    5.0096   51.8022   30.5186 H   0  0  0  0  0  0
    4.4448   51.5690   28.8821 H   0  0  0  0  0  0
    4.2886   53.1637   29.6495 H   0  0  0  0  0  0
   -0.0179   49.4045   24.5197 H   0  0  0  0  0  0
   -2.9334   49.5289   24.4355 H   0  0  0  0  0  0
   -1.8348   49.2034   22.3331 H   0  0  0  0  0  0
   -0.9373   47.8290   22.9544 H   0  0  0  0  0  0
   -3.9337   47.9458   22.4646 H   0  0  0  0  0  0
   -2.7569   47.0004   21.5894 H   0  0  0  0  0  0
   -3.9861   45.5861   23.2372 H   0  0  0  0  0  0
   -2.2692   45.6542   23.6082 H   0  0  0  0  0  0
   -4.4623   47.2988   24.9764 H   0  0  0  0  0  0
   -3.6015   45.9639   25.6994 H   0  0  0  0  0  0
   -1.5110   47.1668   25.6930 H   0  0  0  0  0  0
   -2.7274   48.1884   26.4363 H   0  0  0  0  0  0
    2.6178   50.3041   23.6837 H   0  0  0  0  0  0
    2.2258   49.4110   21.4392 H   0  0  0  0  0  0
   -0.8579   52.8387   23.3021 H   0  0  0  0  0  0
   -2.4055   50.4286   20.1230 H   0  0  0  0  0  0
   -2.4732   51.8743   19.1114 H   0  0  0  0  0  0
   -0.8700   50.1722   18.1461 H   0  0  0  0  0  0
   -0.0194   51.6491   18.6204 H   0  0  0  0  0  0
    2.1377   53.7174   22.9940 H   0  0  0  0  0  0
    2.0872   55.0512   24.0769 H   0  0  0  0  0  0
    4.6048   53.2211   22.0868 H   0  0  0  0  0  0
    7.0925   53.7054   22.6621 H   0  0  0  0  0  0
    7.3575   54.9002   24.9735 H   0  0  0  0  0  0
  1  2  1  0  0  0
  1 41  1  0  0  0
  1 42  1  0  0  0
  1 43  1  0  0  0
  2  3  1  0  0  0
  3  8  2  0  0  0
  3  4  1  0  0  0
  4  5  2  0  0  0
  4 44  1  0  0  0
  5  6  1  0  0  0
  5 45  1  0  0  0
  6  7  2  0  0  0
  6 11  1  0  0  0
  7  8  1  0  0  0
  7 46  1  0  0  0
  8  9  1  0  0  0
  9 10  1  0  0  0
 10 47  1  0  0  0
 10 48  1  0  0  0
 10 49  1  0  0  0
 11 12  1  0  0  0
 11 13  1  0  0  0
 11 22  1  0  0  0
 13 14  2  0  0  0
 13 15  1  0  0  0
 15 16  1  0  0  0
 15 50  1  0  0  0
 16 21  1  0  0  0
 16 17  1  0  0  0
 16 51  1  0  0  0
 17 18  1  0  0  0
 17 52  1  0  0  0
 17 53  1  0  0  0
 18 19  1  0  0  0
 18 54  1  0  0  0
 18 55  1  0  0  0
 19 20  1  0  0  0
 19 56  1  0  0  0
 19 57  1  0  0  0
 20 21  1  0  0  0
 20 58  1  0  0  0
 20 59  1  0  0  0
 21 60  1  0  0  0
 21 61  1  0  0  0
 22 23  1  0  0  0
 22 33  1  0  0  0
 23 28  2  0  0  0
 23 24  1  0  0  0
 24 25  2  0  0  0
 24 62  1  0  0  0
 25 26  1  0  0  0
 25 63  1  0  0  0
 26 32  1  0  0  0
 26 27  2  0  0  0
 27 28  1  0  0  0
 27 29  1  0  0  0
 28 64  1  0  0  0
 29 30  1  0  0  0
 30 31  1  0  0  0
 30 65  1  0  0  0
 30 66  1  0  0  0
 31 32  1  0  0  0
 31 67  1  0  0  0
 31 68  1  0  0  0
 33 34  2  0  0  0
 33 35  1  0  0  0
 35 36  1  0  0  0
 35 69  1  0  0  0
 35 70  1  0  0  0
 36 40  1  0  0  0
 36 37  2  0  0  0
 37 38  1  0  0  0
 37 71  1  0  0  0
 38 39  2  0  0  0
 38 72  1  0  0  0
 39 40  1  0  0  0
 39 73  1  0  0  0
M  END
> <i_i_glide_confnum>
374

> <i_i_glide_lignum>
5766

> <i_i_glide_posenum>
311

> <i_i_glide_rotatable_bonds>
11

> <i_m_Source_File_Index>
1489

> <b_m_subgroup_collapsed>
0

> <r_i_docking_score>
-3.87602

> <r_i_glide_ecoul>
-3.27479

> <r_i_glide_eff_state_penalty>
0

> <r_i_glide_einternal>
10.9921

> <r_i_glide_emodel>
-46.3203

> <r_i_glide_energy>
-48.0039

> <r_i_glide_erotb>
0.409358

> <r_i_glide_esite>
-0.0773753

> <r_i_glide_evdw>
-44.7291

> <r_i_glide_gscore>
-3.87602

> <r_i_glide_hbond>
-0.344732

> <r_i_glide_ligand_efficiency>
-0.0993851

> <r_i_glide_ligand_efficiency_ln>
-0.831129

> <r_i_glide_ligand_efficiency_sa>
-0.337036

> <r_i_glide_lipo>
-2.77433

> <r_i_glide_metal>
0

> <r_i_glide_rewards>
1.63873

> <s_i_glide_gridfile>
wee1_glide-grid

> <s_m_Source_File>
wee1_decoys_glide_SP.sdf

> <s_m_Source_Path>
/Users/zhangxujun/Desktop

> <s_m_entry_id>
1764

> <s_m_entry_name>
wee1_decoys_glide_SP.1489

> <s_m_subgroup_title>
wee1_decoys_glide_SP

> <s_m_subgroupid>
wee1_decoys_glide_SP


$$$$
