@<TRIPOS>MOLECULE
ZINC11812975_3047
69   74    1
SMALL
USER_CHARGES


@<TRIPOS>ATOM
      1 C1          3.1074   54.6008   28.3568 C.ar      1 UNK         0.0000 
      2 C2          1.8245   54.6582   28.9173 C.ar      1 UNK         0.0000 
      3 C3          1.5239   53.7459   29.9211 C.ar      1 UNK         0.0000 
      4 C4          2.4339   52.8213   30.3489 C.ar      1 UNK         0.0000 
      5 C5          3.7167   52.7493   29.8173 C.ar      1 UNK         0.0000 
      6 C6          4.0608   53.6628   28.8061 C.ar      1 UNK         0.0000 
      7 C7          5.4600   53.6330   28.1998 C.3       1 UNK         0.0000 
      8 N8          5.4583   53.6995   26.7382 N.am      1 UNK         0.0000 
      9 C9          6.0495   54.6545   25.9991 C.2       1 UNK         0.0000 
     10 O10         6.7046   55.5825   26.4652 O.2       1 UNK         0.0000 
     11 C11         5.8504   54.5150   24.5830 C.2       1 UNK         0.0000 
     12 C12         4.8131   53.9228   23.8679 C.2       1 UNK         0.0000 
     13 C13         5.1256   54.0964   22.4908 C.ar      1 UNK         0.0000 
     14 C14         4.5617   53.6791   21.2819 C.ar      1 UNK         0.0000 
     15 C15         5.1625   54.0613   20.0683 C.ar      1 UNK         0.0000 
     16 C16         6.2976   54.8951   20.0933 C.ar      1 UNK         0.0000 
     17 C17         6.8866   55.3253   21.2850 C.ar      1 UNK         0.0000 
     18 C18         6.2868   54.8965   22.4707 C.ar      1 UNK         0.0000 
     19 O19         6.7045   55.1751   23.7412 O.3       1 UNK         0.0000 
     20 C20         4.6265   53.5675   18.7025 C.3       1 UNK         0.0000 
     21 C21         4.1448   54.7767   17.8531 C.3       1 UNK         0.0000 
     22 C22         3.4257   54.4251   16.5359 C.3       1 UNK         0.0000 
     23 C23         2.8052   52.1612   17.4718 C.3       1 UNK         0.0000 
     24 C24         3.4588   52.5406   18.8085 C.3       1 UNK         0.0000 
     25 C25         1.4104   53.1710   15.5858 C.3       1 UNK         0.0000 
     26 C26        -0.0808   53.5057   15.8381 C.3       1 UNK         0.0000 
     27 H27        -0.5978   53.3129   14.8953 H         1 UNK         0.0000 
     28 C28        -0.3156   54.9918   16.2091 C.3       1 UNK         0.0000 
     29 C29        -1.8173   55.3537   16.2338 C.3       1 UNK         0.0000 
     30 C30        -2.6142   54.2800   16.9665 C.2       1 UNK         0.0000 
     31 C31        -2.1257   53.0650   17.2852 C.2       1 UNK         0.0000 
     32 C32        -0.7309   52.5777   16.9048 C.3       1 UNK         0.0000 
     33 O33         5.6391   52.8972   17.9729 O.3       1 UNK         0.0000 
     34 O34         1.8980   52.0968   31.3639 O.3       1 UNK         0.0000 
     35 C35         0.5550   52.4985   31.4623 C.3       1 UNK         0.0000 
     36 O36         0.3854   53.6346   30.6533 O.3       1 UNK         0.0000 
     37 H37         3.3688   55.2965   27.5745 H         1 UNK         0.0000 
     38 H38         1.1061   55.3915   28.5807 H         1 UNK         0.0000 
     39 H39         4.4308   52.0263   30.1820 H         1 UNK         0.0000 
     40 H40         6.0307   54.4508   28.6488 H         1 UNK         0.0000 
     41 H41         5.9787   52.7165   28.4811 H         1 UNK         0.0000 
     42 H42         5.0663   52.9016   26.2594 H         1 UNK         0.0000 
     43 H43         3.9716   53.3939   24.2909 H         1 UNK         0.0000 
     44 H44         3.6866   53.0530   21.3208 H         1 UNK         0.0000 
     45 H45         6.7616   55.1815   19.1596 H         1 UNK         0.0000 
     46 H46         7.7804   55.9313   21.2963 H         1 UNK         0.0000 
     47 H47         3.5161   55.4208   18.4703 H         1 UNK         0.0000 
     48 H48         4.9959   55.4175   17.6225 H         1 UNK         0.0000 
     49 H49         4.0822   53.9313   15.8160 H         1 UNK         0.0000 
     50 H50         2.9916   55.3236   16.0935 H         1 UNK         0.0000 
     51 H51         3.4988   51.6971   16.7664 H         1 UNK         0.0000 
     52 H52         1.9630   51.4898   17.6426 H         1 UNK         0.0000 
     53 H53         3.8097   51.6357   19.3070 H         1 UNK         0.0000 
     54 H54         2.6790   52.9224   19.4675 H         1 UNK         0.0000 
     55 H55         1.8052   53.7722   14.7636 H         1 UNK         0.0000 
     56 H56         1.5599   52.1272   15.3014 H         1 UNK         0.0000 
     57 H57         0.1645   55.2297   17.1601 H         1 UNK         0.0000 
     58 H58         0.1854   55.6331   15.4822 H         1 UNK         0.0000 
     59 H59        -2.2021   55.4576   15.2183 H         1 UNK         0.0000 
     60 H60        -1.9542   56.3270   16.7059 H         1 UNK         0.0000 
     61 H61        -3.6323   54.4981   17.2536 H         1 UNK         0.0000 
     62 H62        -2.7738   52.3844   17.8194 H         1 UNK         0.0000 
     63 H63        -0.8065   51.5642   16.5074 H         1 UNK         0.0000 
     64 H64        -0.1322   52.5117   17.8121 H         1 UNK         0.0000 
     65 H65         5.5113   51.9298   18.0817 H         1 UNK         0.0000 
     66 H66        -0.0988   51.7009   31.1030 H         1 UNK         0.0000 
     67 H67         0.3042   52.7331   32.4983 H         1 UNK         0.0000 
     68 N68         2.2593   53.4640   16.8506 N.4       1 UNK         0.0000 
     69 H69         1.6447   53.9104   17.5187 H         1 UNK         0.0000 
@<TRIPOS>BOND
     1    1    6 ar   
     2    1    2 ar   
     3    1   37 1    
     4    2    3 ar   
     5    2   38 1    
     6    3   36 1    
     7    3    4 ar   
     8    4    5 ar   
     9    4   34 1    
    10    5    6 ar   
    11    5   39 1    
    12    6    7 1    
    13    7    8 1    
    14    7   40 1    
    15    7   41 1    
    16    8    9 am   BACKBONE|DICT|INTERRES
    17    8   42 1    
    18    9   10 2    
    19    9   11 1    
    20   11   19 1    
    21   11   12 2    
    22   12   13 1    
    23   12   43 1    
    24   13   18 ar   
    25   13   14 ar   
    26   14   15 ar   
    27   14   44 1    
    28   15   16 ar   
    29   15   20 1    
    30   16   17 ar   
    31   16   45 1    
    32   17   18 ar   
    33   17   46 1    
    34   18   19 1    
    35   20   24 1    
    36   20   21 1    
    37   20   33 1    
    38   21   22 1    
    39   21   47 1    
    40   21   48 1    
    41   22   49 1    
    42   22   50 1    
    43   22   68 1    
    44   23   24 1    
    45   23   51 1    
    46   23   52 1    
    47   23   68 1    
    48   24   53 1    
    49   24   54 1    
    50   25   26 1    
    51   25   55 1    
    52   25   56 1    
    53   25   68 1    
    54   26   27 1    
    55   26   32 1    
    56   26   28 1    
    57   28   29 1    
    58   28   57 1    
    59   28   58 1    
    60   29   30 1    
    61   29   59 1    
    62   29   60 1    
    63   30   31 2    
    64   30   61 1    
    65   31   32 1    
    66   31   62 1    
    67   32   63 1    
    68   32   64 1    
    69   33   65 1    
    70   34   35 1    
    71   35   36 1    
    72   35   66 1    
    73   35   67 1    
    74   68   69 1    
@<TRIPOS>SUBSTRUCTURE
     1 UNK         1 GROUP             0       ****    0 ROOT    
