ZINC19955546_5432
                    3D
 Schrodinger Suite 2024-2.
 79 85  0  0  1  0            999 V2000
    8.3608   55.7755   16.5178 C   0  0  0  0  0  0
    7.4503   55.3726   17.6520 C   0  0  0  0  0  0
    6.2186   54.7273   17.6099 C   0  0  0  0  0  0
    5.6439   54.5044   18.8620 C   0  0  0  0  0  0
    6.4165   54.9731   19.9208 C   0  0  0  0  0  0
    7.8790   55.6965   19.3066 S   0  0  0  0  0  0
    6.1605   54.8967   21.3921 C   0  0  0  0  0  0
    7.0231   55.4175   22.3494 C   0  0  0  0  0  0
    6.7006   55.2723   23.6938 C   0  0  0  0  0  0
    5.5226   54.6121   24.0976 C   0  0  0  0  0  0
    4.6857   54.0955   23.0605 C   0  0  0  0  0  0
    5.0248   54.2539   21.7479 N   0  0  0  0  0  0
    3.4529   53.4483   23.2417 N   0  0  0  0  0  0
    2.3096   54.2823   23.6518 C   0  0  0  0  0  0
    1.1466   53.4548   24.2508 C   0  0  0  0  0  0
    0.6774   52.2801   23.3616 C   0  0  0  0  0  0
    1.8754   51.5380   22.7399 C   0  0  0  0  0  0
    2.9548   52.5036   22.2115 C   0  0  0  0  0  0
   -0.2707   51.3440   24.1786 N   0  3  1  0  0  0
   -1.2035   50.5048   23.2690 C   0  0  0  0  0  0
   -2.2246   49.7588   24.1640 C   0  0  0  0  0  0
   -1.5494   48.8927   25.2501 C   0  0  1  0  0  0
   -0.5844   49.7455   26.0817 C   0  0  0  0  0  0
    0.4594   50.4162   25.1818 C   0  0  0  0  0  0
   -2.4952   48.2510   26.0814 O   0  0  0  0  0  0
    5.3012   54.4755   25.5996 C   0  0  0  0  0  0
    6.0751   55.0242   26.3892 O   0  0  0  0  0  0
    4.2929   53.7053   26.0386 N   0  0  0  0  0  0
    4.1285   53.2734   27.4315 C   0  0  0  0  0  0
    3.4486   54.2944   28.3719 C   0  0  2  0  0  0
    3.9873   55.2409   28.2793 H   0  0  0  0  0  0
    3.4374   53.8465   29.8755 C   0  0  0  0  0  0
    1.9399   53.9497   30.2974 C   0  0  1  0  0  0
    1.6188   53.3872   31.1769 H   0  0  0  0  0  0
    1.5043   55.4099   30.1945 C   0  0  0  0  0  0
    1.5127   55.7457   28.8880 C   0  0  0  0  0  0
    1.9361   54.5140   28.0869 C   0  0  2  0  0  0
    1.6079   54.4770   27.0493 H   0  0  0  0  0  0
    1.3083   53.5055   29.0182 C   0  0  0  0  0  0
    1.0548   52.0476   28.7098 C   0  0  0  0  0  0
   -0.1098   52.9938   28.8813 C   0  0  0  0  0  0
    7.9511   55.4973   15.5465 H   0  0  0  0  0  0
    8.5237   56.8527   16.5004 H   0  0  0  0  0  0
    9.3381   55.3008   16.5994 H   0  0  0  0  0  0
    5.7478   54.4219   16.6865 H   0  0  0  0  0  0
    4.6930   54.0069   18.9935 H   0  0  0  0  0  0
    7.9294   55.9315   22.0723 H   0  0  0  0  0  0
    7.3822   55.6914   24.4220 H   0  0  0  0  0  0
    2.6349   55.0081   24.3971 H   0  0  0  0  0  0
    1.9684   54.8704   22.7976 H   0  0  0  0  0  0
    1.4869   53.1013   25.2213 H   0  0  0  0  0  0
    0.2986   54.0957   24.4815 H   0  0  0  0  0  0
    0.1257   52.7417   22.5398 H   0  0  0  0  0  0
    1.5373   50.8424   21.9702 H   0  0  0  0  0  0
    2.3726   50.8992   23.4645 H   0  0  0  0  0  0
    2.5839   53.0649   21.3508 H   0  0  0  0  0  0
    3.7914   51.9047   21.8469 H   0  0  0  0  0  0
   -1.7242   51.2045   22.6133 H   0  0  0  0  0  0
   -0.5802   49.8321   22.6772 H   0  0  0  0  0  0
   -2.8631   50.4999   24.6472 H   0  0  0  0  0  0
   -2.8860   49.1402   23.5552 H   0  0  0  0  0  0
   -0.9543   48.1286   24.7440 H   0  0  0  0  0  0
   -0.0881   49.1345   26.8372 H   0  0  0  0  0  0
   -1.1359   50.5131   26.6277 H   0  0  0  0  0  0
    1.0509   49.6807   24.6352 H   0  0  0  0  0  0
    1.1045   51.0502   25.7712 H   0  0  0  0  0  0
   -2.1100   48.1609   26.9877 H   0  0  0  0  0  0
    3.6952   53.2774   25.3435 H   0  0  0  0  0  0
    5.0946   52.9707   27.8445 H   0  0  0  0  0  0
    3.5369   52.3620   27.4264 H   0  0  0  0  0  0
    4.0678   54.4961   30.4819 H   0  0  0  0  0  0
    3.7837   52.8177   29.9972 H   0  0  0  0  0  0
    1.2773   56.0471   31.0377 H   0  0  0  0  0  0
    1.3155   56.7159   28.4817 H   0  0  0  0  0  0
    1.2494   51.3062   29.4865 H   0  0  0  0  0  0
    1.3286   51.6849   27.7298 H   0  0  0  0  0  0
   -0.6824   53.2864   28.0012 H   0  0  0  0  0  0
   -0.7253   52.9224   29.7793 H   0  0  0  0  0  0
   -0.8582   51.9691   24.7122 H   0  0  0  0  0  0
  1  2  1  0  0  0
  1 42  1  0  0  0
  1 43  1  0  0  0
  1 44  1  0  0  0
  2  6  1  0  0  0
  2  3  2  0  0  0
  3  4  1  0  0  0
  3 45  1  0  0  0
  4  5  2  0  0  0
  4 46  1  0  0  0
  5  6  1  0  0  0
  5  7  1  0  0  0
  7 12  2  0  0  0
  7  8  1  0  0  0
  8  9  2  0  0  0
  8 47  1  0  0  0
  9 10  1  0  0  0
  9 48  1  0  0  0
 10 11  2  0  0  0
 10 26  1  0  0  0
 11 12  1  0  0  0
 11 13  1  0  0  0
 13 18  1  0  0  0
 13 14  1  0  0  0
 14 15  1  0  0  0
 14 49  1  0  0  0
 14 50  1  0  0  0
 15 16  1  0  0  0
 15 51  1  0  0  0
 15 52  1  0  0  0
 16 17  1  0  0  0
 16 19  1  0  0  0
 16 53  1  0  0  0
 17 18  1  0  0  0
 17 54  1  0  0  0
 17 55  1  0  0  0
 18 56  1  0  0  0
 18 57  1  0  0  0
 19 24  1  0  0  0
 19 20  1  0  0  0
 19 79  1  0  0  0
 20 21  1  0  0  0
 20 58  1  0  0  0
 20 59  1  0  0  0
 21 22  1  0  0  0
 21 60  1  0  0  0
 21 61  1  0  0  0
 22 23  1  0  0  0
 22 25  1  0  0  0
 22 62  1  0  0  0
 23 24  1  0  0  0
 23 63  1  0  0  0
 23 64  1  0  0  0
 24 65  1  0  0  0
 24 66  1  0  0  0
 25 67  1  0  0  0
 26 27  2  0  0  0
 26 28  1  0  0  0
 28 29  1  0  0  0
 28 68  1  0  0  0
 29 30  1  0  0  0
 29 69  1  0  0  0
 29 70  1  0  0  0
 30 31  1  0  0  0
 30 37  1  0  0  0
 30 32  1  0  0  0
 32 33  1  0  0  0
 32 71  1  0  0  0
 32 72  1  0  0  0
 33 34  1  0  0  0
 33 39  1  0  0  0
 33 35  1  0  0  0
 35 36  2  0  0  0
 35 73  1  0  0  0
 36 37  1  0  0  0
 36 74  1  0  0  0
 37 38  1  0  0  0
 37 39  1  0  0  0
 39 41  1  0  0  0
 39 40  1  0  0  0
 40 41  1  0  0  0
 40 75  1  0  0  0
 40 76  1  0  0  0
 41 77  1  0  0  0
 41 78  1  0  0  0
M  CHG  1  19   1
M  END
> <i_i_glide_confnum>
61

> <i_i_glide_lignum>
5433

> <i_i_glide_posenum>
112

> <i_i_glide_rotatable_bonds>
8

> <i_m_Source_File_Index>
1116

> <b_m_subgroup_collapsed>
0

> <r_i_docking_score>
-7.61467

> <r_i_glide_ecoul>
-9.44068

> <r_i_glide_eff_state_penalty>
0

> <r_i_glide_einternal>
12.6918

> <r_i_glide_emodel>
-71.6099

> <r_i_glide_energy>
-53.5267

> <r_i_glide_erotb>
0.434573

> <r_i_glide_esite>
0

> <r_i_glide_evdw>
-44.086

> <r_i_glide_gscore>
-7.61467

> <r_i_glide_hbond>
-0.158937

> <r_i_glide_ligand_efficiency>
-0.200386

> <r_i_glide_ligand_efficiency_ln>
-1.64195

> <r_i_glide_ligand_efficiency_sa>
-0.673693

> <r_i_glide_lipo>
-3.6484

> <r_i_glide_metal>
0

> <r_i_glide_rewards>
-0.62151

> <s_i_glide_gridfile>
wee1_glide-grid

> <s_m_Source_File>
wee1_decoys_glide_SP.sdf

> <s_m_Source_Path>
/Users/zhangxujun/Desktop

> <s_m_entry_id>
1391

> <s_m_entry_name>
wee1_decoys_glide_SP.1116

> <s_m_subgroup_title>
wee1_decoys_glide_SP

> <s_m_subgroupid>
wee1_decoys_glide_SP


$$$$
