ZINC04398130_5071
                    3D
 Schrodinger Suite 2024-2.
 47 50  0  0  1  0            999 V2000
    5.3658   54.5712   29.0917 C   0  0  0  0  0  0
    4.0451   54.1952   28.7340 O   0  0  0  0  0  0
    3.3207   53.3497   29.4966 C   0  0  0  0  0  0
    3.6830   52.8965   30.5847 O   0  0  0  0  0  0
    2.0340   53.0003   28.8740 C   0  0  0  0  0  0
    1.7377   53.0111   27.4778 C   0  0  0  0  0  0
    0.4943   52.4528   27.1739 C   0  0  0  0  0  0
   -0.4171   52.0784   28.5900 S   0  0  0  0  0  0
    0.8988   52.5734   29.5924 C   0  0  0  0  0  0
    0.7214   52.4965   30.9511 N   0  0  0  0  0  0
   -0.0399   52.2104   25.7676 C   0  0  0  0  0  0
    1.0462   52.4165   24.7687 N   0  0  0  0  0  0
    1.8170   53.6558   25.0234 C   0  0  0  0  0  0
    2.6173   53.5413   26.3410 C   0  0  0  0  0  0
    1.1196   51.6995   23.5244 C   0  0  0  0  0  0
    0.5206   50.4488   23.3274 C   0  0  0  0  0  0
    0.6145   49.7958   22.0958 C   0  0  0  0  0  0
    1.3186   50.4050   21.0175 C   0  0  0  0  0  0
    1.4674   49.8557   19.7008 C   0  0  0  0  0  0
    2.1728   50.5974   18.7439 C   0  0  0  0  0  0
    2.7255   51.8374   19.0820 C   0  0  0  0  0  0
    2.6239   52.3741   20.3250 N   0  0  0  0  0  0
    1.9300   51.6723   21.2508 C   0  0  0  0  0  0
    3.4979   52.6841   18.0682 C   0  0  0  0  0  0
    4.7441   52.8971   18.4974 F   0  0  0  0  0  0
    3.5551   52.1109   16.8649 F   0  0  0  0  0  0
    2.8946   53.8653   17.9244 F   0  0  0  0  0  0
    0.8582   48.4954   19.3434 C   0  0  0  0  0  0
   -0.4544   48.5033   19.5834 F   0  0  0  0  0  0
    1.0346   48.1806   18.0582 F   0  0  0  0  0  0
    1.4260   47.5395   20.0817 F   0  0  0  0  0  0
    5.7517   55.2952   28.3744 H   0  0  0  0  0  0
    6.0293   53.7055   29.0820 H   0  0  0  0  0  0
    5.3979   55.0288   30.0811 H   0  0  0  0  0  0
    1.4779   52.6946   31.5885 H   0  0  0  0  0  0
   -0.1394   52.1597   31.3776 H   0  0  0  0  0  0
   -0.4409   51.2013   25.6988 H   0  0  0  0  0  0
   -0.8509   52.8969   25.5207 H   0  0  0  0  0  0
    2.4886   53.8856   24.1977 H   0  0  0  0  0  0
    1.1054   54.4802   25.0440 H   0  0  0  0  0  0
    3.0059   54.5333   26.5666 H   0  0  0  0  0  0
    3.4848   52.8968   26.2015 H   0  0  0  0  0  0
   -0.0082   49.9538   24.1276 H   0  0  0  0  0  0
    0.1419   48.8340   21.9632 H   0  0  0  0  0  0
    2.3030   50.2125   17.7417 H   0  0  0  0  0  0
    1.7988   52.2387   22.4925 N   0  3  0  0  0  0
    2.2283   53.1407   22.6285 H   0  0  0  0  0  0
  1  2  1  0  0  0
  1 32  1  0  0  0
  1 33  1  0  0  0
  1 34  1  0  0  0
  2  3  1  0  0  0
  3  4  2  0  0  0
  3  5  1  0  0  0
  5  9  2  0  0  0
  5  6  1  0  0  0
  6 14  1  0  0  0
  6  7  2  0  0  0
  7  8  1  0  0  0
  7 11  1  0  0  0
  8  9  1  0  0  0
  9 10  1  0  0  0
 10 35  1  0  0  0
 10 36  1  0  0  0
 11 12  1  0  0  0
 11 37  1  0  0  0
 11 38  1  0  0  0
 12 13  1  0  0  0
 12 15  1  0  0  0
 13 14  1  0  0  0
 13 39  1  0  0  0
 13 40  1  0  0  0
 14 41  1  0  0  0
 14 42  1  0  0  0
 15 16  2  0  0  0
 15 46  1  0  0  0
 16 17  1  0  0  0
 16 43  1  0  0  0
 17 18  2  0  0  0
 17 44  1  0  0  0
 18 23  1  0  0  0
 18 19  1  0  0  0
 19 20  2  0  0  0
 19 28  1  0  0  0
 20 21  1  0  0  0
 20 45  1  0  0  0
 21 22  2  0  0  0
 21 24  1  0  0  0
 22 23  1  0  0  0
 23 46  2  0  0  0
 24 25  1  0  0  0
 24 26  1  0  0  0
 24 27  1  0  0  0
 28 29  1  0  0  0
 28 30  1  0  0  0
 28 31  1  0  0  0
 46 47  1  0  0  0
M  CHG  1  46   1
M  END
> <i_i_glide_confnum>
2

> <i_i_glide_lignum>
5072

> <i_i_glide_posenum>
343

> <i_i_glide_rotatable_bonds>
5

> <i_m_Source_File_Index>
1823

> <b_m_subgroup_collapsed>
0

> <r_i_docking_score>
-4.4919

> <r_i_glide_ecoul>
-4.26731

> <r_i_glide_eff_state_penalty>
0

> <r_i_glide_einternal>
6.46757

> <r_i_glide_emodel>
-47.8773

> <r_i_glide_energy>
-39.0055

> <r_i_glide_erotb>
0.177758

> <r_i_glide_esite>
-0.340847

> <r_i_glide_evdw>
-34.7382

> <r_i_glide_gscore>
-4.4919

> <r_i_glide_hbond>
-0.287609

> <r_i_glide_ligand_efficiency>
-0.140372

> <r_i_glide_ligand_efficiency_ln>
-1.00586

> <r_i_glide_ligand_efficiency_sa>
-0.445653

> <r_i_glide_lipo>
-1.14278

> <r_i_glide_metal>
0

> <r_i_glide_rewards>
-0.521417

> <s_i_glide_gridfile>
wee1_glide-grid

> <s_m_Source_File>
wee1_decoys_glide_SP.sdf

> <s_m_Source_Path>
/Users/zhangxujun/Desktop

> <s_m_entry_id>
2098

> <s_m_entry_name>
wee1_decoys_glide_SP.1823

> <s_m_subgroup_title>
wee1_decoys_glide_SP

> <s_m_subgroupid>
wee1_decoys_glide_SP


$$$$
