ZINC08962757_3360
                    3D
 Schrodinger Suite 2024-2.
 52 55  0  0  1  0            999 V2000
    6.4970   58.4613   18.3828 C   0  0  0  0  0  0
    7.6447   57.5483   18.8353 C   0  0  0  0  0  0
    7.3228   56.8966   20.0682 O   0  0  0  0  0  0
    6.5651   55.7454   20.0453 C   0  0  0  0  0  0
    6.0507   55.1117   18.9020 C   0  0  0  0  0  0
    5.2955   53.9438   18.9949 C   0  0  0  0  0  0
    5.0120   53.3611   20.2293 C   0  0  0  0  0  0
    5.5043   53.9748   21.3892 C   0  0  0  0  0  0
    6.2764   55.1530   21.2854 C   0  0  0  0  0  0
    6.6530   55.5955   22.5331 O   0  0  0  0  0  0
    6.0223   54.7782   23.4416 C   0  0  0  0  0  0
    5.4599   53.6967   22.7778 C   0  0  0  0  0  0
    6.0305   55.1391   24.8623 C   0  0  0  0  0  0
    6.7045   56.0777   25.2817 O   0  0  0  0  0  0
    5.2387   54.4149   25.7590 N   0  0  0  0  0  0
    3.9976   54.0969   25.6135 C   0  0  0  0  0  0
    3.2342   53.3501   26.5157 N   0  0  0  0  0  0
    1.9176   53.0186   26.1420 C   0  0  0  0  0  0
    0.9681   52.2711   26.8537 C   0  0  0  0  0  0
   -0.2748   51.9928   26.2816 C   0  0  0  0  0  0
   -0.5711   52.4500   24.9930 C   0  0  0  0  0  0
    0.3740   53.1953   24.2829 C   0  0  0  0  0  0
    1.5964   53.4920   24.8800 C   0  0  0  0  0  0
    2.8669   54.4967   24.2480 S   0  0  0  0  0  0
   -2.1760   52.1245   24.2833 S   0  0  0  0  0  0
   -3.1639   52.7178   25.1884 O   0  0  0  0  0  0
   -2.1214   52.4962   22.8654 O   0  0  0  0  0  0
   -2.3581   50.3925   24.3710 N   0  0  0  0  0  0
    3.6855   53.1167   27.8997 C   0  0  0  0  0  0
    3.2724   54.1858   28.9277 C   0  0  0  0  0  0
    3.6905   54.1018   30.0815 O   0  0  0  0  0  0
    2.3852   55.1104   28.4817 O   0  0  0  0  0  0
    1.9061   56.1297   29.3499 C   0  0  0  0  0  0
    6.7381   58.9616   17.4444 H   0  0  0  0  0  0
    5.5712   57.9060   18.2318 H   0  0  0  0  0  0
    6.3045   59.2394   19.1220 H   0  0  0  0  0  0
    8.5351   58.1569   18.9881 H   0  0  0  0  0  0
    7.9305   56.8415   18.0552 H   0  0  0  0  0  0
    6.2251   55.5128   17.9157 H   0  0  0  0  0  0
    4.9265   53.4759   18.0917 H   0  0  0  0  0  0
    4.4319   52.4511   20.2807 H   0  0  0  0  0  0
    4.9407   52.8965   23.2602 H   0  0  0  0  0  0
    1.1714   51.8891   27.8425 H   0  0  0  0  0  0
   -1.0020   51.4208   26.8424 H   0  0  0  0  0  0
    0.1486   53.5696   23.2950 H   0  0  0  0  0  0
   -1.6911   49.8807   23.7905 H   0  0  0  0  0  0
   -2.4269   50.0314   25.3260 H   0  0  0  0  0  0
    3.2617   52.1735   28.2400 H   0  0  0  0  0  0
    4.7699   52.9984   27.9336 H   0  0  0  0  0  0
    1.1685   56.7444   28.8345 H   0  0  0  0  0  0
    1.4274   55.7034   30.2329 H   0  0  0  0  0  0
    2.7164   56.7813   29.6781 H   0  0  0  0  0  0
  1  2  1  0  0  0
  1 34  1  0  0  0
  1 35  1  0  0  0
  1 36  1  0  0  0
  2  3  1  0  0  0
  2 37  1  0  0  0
  2 38  1  0  0  0
  3  4  1  0  0  0
  4  9  2  0  0  0
  4  5  1  0  0  0
  5  6  2  0  0  0
  5 39  1  0  0  0
  6  7  1  0  0  0
  6 40  1  0  0  0
  7  8  2  0  0  0
  7 41  1  0  0  0
  8 12  1  0  0  0
  8  9  1  0  0  0
  9 10  1  0  0  0
 10 11  1  0  0  0
 11 12  2  0  0  0
 11 13  1  0  0  0
 12 42  1  0  0  0
 13 14  2  0  0  0
 13 15  1  0  0  0
 15 16  2  0  0  0
 16 24  1  0  0  0
 16 17  1  0  0  0
 17 18  1  0  0  0
 17 29  1  0  0  0
 18 23  2  0  0  0
 18 19  1  0  0  0
 19 20  2  0  0  0
 19 43  1  0  0  0
 20 21  1  0  0  0
 20 44  1  0  0  0
 21 22  2  0  0  0
 21 25  1  0  0  0
 22 23  1  0  0  0
 22 45  1  0  0  0
 23 24  1  0  0  0
 25 26  2  0  0  0
 25 27  2  0  0  0
 25 28  1  0  0  0
 28 46  1  0  0  0
 28 47  1  0  0  0
 29 30  1  0  0  0
 29 48  1  0  0  0
 29 49  1  0  0  0
 30 31  2  0  0  0
 30 32  1  0  0  0
 32 33  1  0  0  0
 33 50  1  0  0  0
 33 51  1  0  0  0
 33 52  1  0  0  0
M  END
> <i_i_glide_confnum>
12

> <i_i_glide_lignum>
3361

> <i_i_glide_posenum>
104

> <i_i_glide_rotatable_bonds>
8

> <i_m_Source_File_Index>
2402

> <b_m_subgroup_collapsed>
0

> <r_i_docking_score>
-6.92258

> <r_i_glide_ecoul>
-10.0917

> <r_i_glide_eff_state_penalty>
0

> <r_i_glide_einternal>
5.17942

> <r_i_glide_emodel>
-74.4914

> <r_i_glide_energy>
-55.5231

> <r_i_glide_erotb>
0.424484

> <r_i_glide_esite>
-0.00850286

> <r_i_glide_evdw>
-45.4314

> <r_i_glide_gscore>
-6.92258

> <r_i_glide_hbond>
-0.757171

> <r_i_glide_ligand_efficiency>
-0.209775

> <r_i_glide_ligand_efficiency_ln>
-1.53955

> <r_i_glide_ligand_efficiency_sa>
-0.672861

> <r_i_glide_lipo>
-2.59238

> <r_i_glide_metal>
0

> <r_i_glide_rewards>
-0.203694

> <s_i_glide_gridfile>
wee1_glide-grid

> <s_m_Source_File>
wee1_decoys_glide_SP.sdf

> <s_m_Source_Path>
/Users/zhangxujun/Desktop

> <s_m_entry_id>
2677

> <s_m_entry_name>
wee1_decoys_glide_SP.2402

> <s_m_subgroup_title>
wee1_decoys_glide_SP

> <s_m_subgroupid>
wee1_decoys_glide_SP


$$$$
