@<TRIPOS>MOLECULE
ZINC36080571_5063
68   72    1
SMALL
USER_CHARGES


@<TRIPOS>ATOM
      1 C1          7.7981   55.2970   21.5505 C.3       1 UNK         0.0000 
      2 C2          6.3361   54.9156   21.2505 C.2       1 UNK         0.0000 
      3 N3          5.7997   54.9664   20.0883 N.2       1 UNK         0.0000 
      4 N4          6.5118   55.4824   19.0614 N.am      1 UNK         0.0000 
      5 C5          6.0049   55.6612   17.8232 C.2       1 UNK         0.0000 
      6 O6          6.5558   56.4232   17.0303 O.2       1 UNK         0.0000 
      7 C7          4.7450   54.9293   17.4142 C.ar      1 UNK         0.0000 
      8 C8          3.7278   55.6138   16.7405 C.ar      1 UNK         0.0000 
      9 C9          2.5658   54.9438   16.3635 C.ar      1 UNK         0.0000 
     10 C10         2.4083   53.5840   16.6339 C.ar      1 UNK         0.0000 
     11 C11         3.4363   52.8958   17.2939 C.ar      1 UNK         0.0000 
     12 C12         4.5935   53.5624   17.6795 C.ar      1 UNK         0.0000 
     13 O13         1.2280   53.0006   16.2145 O.3       1 UNK         0.0000 
     14 C14         1.0340   51.6064   16.4307 C.3       1 UNK         0.0000 
     15 C15         5.5010   54.4965   22.4131 C.ar      1 UNK         0.0000 
     16 C16         4.2161   53.9619   22.2148 C.ar      1 UNK         0.0000 
     17 C17         3.3692   53.6970   23.2844 C.ar      1 UNK         0.0000 
     18 C18         3.7903   53.9357   24.5893 C.ar      1 UNK         0.0000 
     19 C19         5.0609   54.4707   24.8421 C.ar      1 UNK         0.0000 
     20 C20         5.9046   54.7102   23.7454 C.ar      1 UNK         0.0000 
     21 C21         5.4871   54.8404   26.2602 C.3       1 UNK         0.0000 
     22 H22         5.5755   55.9206   26.2402 H         1 UNK         0.0000 
     23 C23         6.7888   54.2179   26.6944 C.2       1 UNK         0.0000 
     24 C24         6.6186   53.2967   27.6551 C.2       1 UNK         0.0000 
     25 C25         5.1632   53.1593   28.0386 C.3       1 UNK         0.0000 
     26 C26         4.5268   54.3775   27.3710 C.3       1 UNK         0.0000 
     27 H27         4.5670   55.1589   28.1319 H         1 UNK         0.0000 
     28 C28         3.0355   54.2671   26.9571 C.3       1 UNK         0.0000 
     29 H29         2.7043   55.2964   26.8818 H         1 UNK         0.0000 
     30 N30         2.8707   53.6951   25.6182 N.pl3     1 UNK         0.0000 
     31 C31         2.1078   53.6472   28.0217 C.ar      1 UNK         0.0000 
     32 C32         1.4918   52.4038   27.8016 C.ar      1 UNK         0.0000 
     33 C33         0.6060   51.8652   28.7292 C.ar      1 UNK         0.0000 
     34 C34         0.3218   52.5591   29.8988 C.ar      1 UNK         0.0000 
     35 C35         0.9359   53.7932   30.1561 C.ar      1 UNK         0.0000 
     36 C36         1.8335   54.3324   29.2160 C.ar      1 UNK         0.0000 
     37 O37         2.5251   55.4895   29.4977 O.3       1 UNK         0.0000 
     38 C38         1.7692   56.6907   29.5522 C.3       1 UNK         0.0000 
     39 O39         0.7040   54.5192   31.3042 O.3       1 UNK         0.0000 
     40 C40         0.1735   53.8575   32.4482 C.3       1 UNK         0.0000 
     41 H41         7.8521   56.2079   22.1448 H         1 UNK         0.0000 
     42 H42         8.3027   54.4968   22.0849 H         1 UNK         0.0000 
     43 H43         8.4033   55.4796   20.6634 H         1 UNK         0.0000 
     44 H44         7.3956   55.8992   19.3094 H         1 UNK         0.0000 
     45 H45         3.8282   56.6673   16.5141 H         1 UNK         0.0000 
     46 H46         1.7816   55.4807   15.8517 H         1 UNK         0.0000 
     47 H47         3.3692   51.8382   17.5095 H         1 UNK         0.0000 
     48 H48         5.3705   52.9968   18.1771 H         1 UNK         0.0000 
     49 H49         0.0661   51.3094   16.0271 H         1 UNK         0.0000 
     50 H50         1.0369   51.3620   17.4948 H         1 UNK         0.0000 
     51 H51         1.7982   51.0110   15.9282 H         1 UNK         0.0000 
     52 H52         3.8370   53.7826   21.2175 H         1 UNK         0.0000 
     53 H53         2.3803   53.3084   23.0885 H         1 UNK         0.0000 
     54 H54         6.8729   55.1417   23.9536 H         1 UNK         0.0000 
     55 H55         7.7211   54.4967   26.2376 H         1 UNK         0.0000 
     56 H56         7.3983   52.6928   28.0929 H         1 UNK         0.0000 
     57 H57         5.0260   53.1879   29.1204 H         1 UNK         0.0000 
     58 H58         4.7305   52.2304   27.6807 H         1 UNK         0.0000 
     59 H59         1.9211   53.4423   25.3901 H         1 UNK         0.0000 
     60 H60         1.6866   51.8394   26.9026 H         1 UNK         0.0000 
     61 H61         0.1343   50.9106   28.5394 H         1 UNK         0.0000 
     62 H62        -0.3775   52.1240   30.5994 H         1 UNK         0.0000 
     63 H63         1.9040   57.2610   28.6334 H         1 UNK         0.0000 
     64 H64         0.7043   56.5387   29.7047 H         1 UNK         0.0000 
     65 H65         2.1265   57.2960   30.3835 H         1 UNK         0.0000 
     66 H66         0.3164   54.4891   33.3232 H         1 UNK         0.0000 
     67 H67        -0.8956   53.6968   32.3459 H         1 UNK         0.0000 
     68 H68         0.6666   52.9047   32.6511 H         1 UNK         0.0000 
@<TRIPOS>BOND
     1    1    2 1    
     2    1   41 1    
     3    1   42 1    
     4    1   43 1    
     5    2    3 2    
     6    2   15 1    
     7    3    4 1    
     8    4    5 am   BACKBONE|DICT|INTERRES
     9    4   44 1    
    10    5    6 2    
    11    5    7 1    
    12    7   12 ar   
    13    7    8 ar   
    14    8    9 ar   
    15    8   45 1    
    16    9   10 ar   
    17    9   46 1    
    18   10   11 ar   
    19   10   13 1    
    20   11   12 ar   
    21   11   47 1    
    22   12   48 1    
    23   13   14 1    
    24   14   49 1    
    25   14   50 1    
    26   14   51 1    
    27   15   20 ar   
    28   15   16 ar   
    29   16   17 ar   
    30   16   52 1    
    31   17   18 ar   
    32   17   53 1    
    33   18   30 1    
    34   18   19 ar   
    35   19   20 ar   
    36   19   21 1    
    37   20   54 1    
    38   21   22 1    
    39   21   26 1    
    40   21   23 1    
    41   23   24 2    
    42   23   55 1    
    43   24   25 1    
    44   24   56 1    
    45   25   26 1    
    46   25   57 1    
    47   25   58 1    
    48   26   27 1    
    49   26   28 1    
    50   28   29 1    
    51   28   30 1    
    52   28   31 1    
    53   30   59 1    
    54   31   36 ar   
    55   31   32 ar   
    56   32   33 ar   
    57   32   60 1    
    58   33   34 ar   
    59   33   61 1    
    60   34   35 ar   
    61   34   62 1    
    62   35   36 ar   
    63   35   39 1    
    64   36   37 1    
    65   37   38 1    
    66   38   63 1    
    67   38   64 1    
    68   38   65 1    
    69   39   40 1    
    70   40   66 1    
    71   40   67 1    
    72   40   68 1    
@<TRIPOS>SUBSTRUCTURE
     1 UNK         1 GROUP             0       ****    0 ROOT    
