@<TRIPOS>MOLECULE
ZINC12499753_5291
50   52    1
SMALL
USER_CHARGES


@<TRIPOS>ATOM
      1 C1          5.8011   57.0823   18.3153 C.3       1 UNK         0.0000 
      2 C2          4.5058   56.8500   17.5524 C.ar      1 UNK         0.0000 
      3 C3          3.9067   57.9209   16.8808 C.ar      1 UNK         0.0000 
      4 C4          2.7063   57.7393   16.1976 C.ar      1 UNK         0.0000 
      5 C5          2.0925   56.4898   16.1946 C.ar      1 UNK         0.0000 
      6 C6          2.6892   55.4190   16.8549 C.ar      1 UNK         0.0000 
      7 C7          3.9168   55.5757   17.5228 C.ar      1 UNK         0.0000 
      8 O8          4.5912   54.5402   18.1528 O.3       1 UNK         0.0000 
      9 C9          4.1487   53.1820   17.9991 C.3       1 UNK         0.0000 
     10 C10         3.2167   52.7733   19.1466 C.2       1 UNK         0.0000 
     11 O11         2.2716   52.0215   18.9088 O.2       1 UNK         0.0000 
     12 N12         3.5246   53.2964   20.3618 N.am      1 UNK         0.0000 
     13 C13         3.1252   52.9940   21.6373 C.2       1 UNK         0.0000 
     14 S14         2.3034   51.5854   22.0815 S.2       1 UNK         0.0000 
     15 N15         3.5778   53.9689   22.4925 N.pl3     1 UNK         0.0000 
     16 C16         3.6528   53.9618   23.8879 C.2       1 UNK         0.0000 
     17 C17         4.7851   54.2850   24.6827 C.2       1 UNK         0.0000 
     18 C18         4.4393   54.2124   26.0677 C.2       1 UNK         0.0000 
     19 C19         3.0851   53.9260   26.2888 C.2       1 UNK         0.0000 
     20 S20         2.2149   53.6976   24.8245 S.3       1 UNK         0.0000 
     21 C21         2.4204   53.7671   27.6478 C.3       1 UNK         0.0000 
     22 C22         3.2900   54.4683   28.7079 C.3       1 UNK         0.0000 
     23 C23         4.7588   54.0345   28.6014 C.3       1 UNK         0.0000 
     24 C24         5.4071   54.4067   27.2490 C.3       1 UNK         0.0000 
     25 C25         6.1388   54.6529   24.1963 C.2       1 UNK         0.0000 
     26 O26         7.0581   54.9973   24.9404 O.2       1 UNK         0.0000 
     27 O27         6.2479   54.5876   22.8468 O.3       1 UNK         0.0000 
     28 C28         7.4785   54.8969   22.2065 C.3       1 UNK         0.0000 
     29 Br29        1.9033   59.1963   15.2748 Br        1 UNK         0.0000 
     30 H30         6.5941   56.4519   17.9122 H         1 UNK         0.0000 
     31 H31         6.1289   58.1213   18.2730 H         1 UNK         0.0000 
     32 H32         5.6625   56.8107   19.3621 H         1 UNK         0.0000 
     33 H33         4.3601   58.9032   16.8861 H         1 UNK         0.0000 
     34 H34         1.1555   56.3516   15.6743 H         1 UNK         0.0000 
     35 H35         2.1776   54.4694   16.8358 H         1 UNK         0.0000 
     36 H36         3.7092   52.9724   17.0238 H         1 UNK         0.0000 
     37 H37         5.0277   52.5398   18.0372 H         1 UNK         0.0000 
     38 H38         4.2809   53.9614   20.3101 H         1 UNK         0.0000 
     39 H39         4.1462   54.6858   22.0646 H         1 UNK         0.0000 
     40 H40         1.4115   54.1829   27.6463 H         1 UNK         0.0000 
     41 H41         2.3246   52.7082   27.8864 H         1 UNK         0.0000 
     42 H42         3.2119   55.5515   28.5961 H         1 UNK         0.0000 
     43 H43         2.9022   54.2378   29.6995 H         1 UNK         0.0000 
     44 H44         5.3364   54.4894   29.4083 H         1 UNK         0.0000 
     45 H45         4.8275   52.9551   28.7490 H         1 UNK         0.0000 
     46 H46         6.3045   53.7987   27.1182 H         1 UNK         0.0000 
     47 H47         5.7479   55.4408   27.2841 H         1 UNK         0.0000 
     48 H48         7.3519   54.8952   21.1231 H         1 UNK         0.0000 
     49 H49         7.8355   55.8890   22.4959 H         1 UNK         0.0000 
     50 H50         8.2306   54.1563   22.4786 H         1 UNK         0.0000 
@<TRIPOS>BOND
     1    1    2 1    
     2    1   30 1    
     3    1   31 1    
     4    1   32 1    
     5    2    7 ar   
     6    2    3 ar   
     7    3    4 ar   
     8    3   33 1    
     9    4    5 ar   
    10    4   29 1    
    11    5    6 ar   
    12    5   34 1    
    13    6    7 ar   
    14    6   35 1    
    15    7    8 1    
    16    8    9 1    
    17    9   10 1    
    18    9   36 1    
    19    9   37 1    
    20   10   11 2    
    21   10   12 am   BACKBONE|DICT|INTERRES
    22   12   13 am   BACKBONE|DICT|INTERRES
    23   12   38 1    
    24   13   14 2    
    25   13   15 1    
    26   15   16 1    
    27   15   39 1    
    28   16   20 1    
    29   16   17 2    
    30   17   18 1    
    31   17   25 1    
    32   18   24 1    
    33   18   19 2    
    34   19   20 1    
    35   19   21 1    
    36   21   22 1    
    37   21   40 1    
    38   21   41 1    
    39   22   23 1    
    40   22   42 1    
    41   22   43 1    
    42   23   24 1    
    43   23   44 1    
    44   23   45 1    
    45   24   46 1    
    46   24   47 1    
    47   25   26 2    
    48   25   27 1    
    49   27   28 1    
    50   28   48 1    
    51   28   49 1    
    52   28   50 1    
@<TRIPOS>SUBSTRUCTURE
     1 UNK         1 GROUP             0       ****    0 ROOT    
