@<TRIPOS>MOLECULE
ZINC39668086_5912
52   55    1
SMALL
USER_CHARGES


@<TRIPOS>ATOM
      1 C1          2.6036   53.7351   25.0639 C.3       1 UNK         0.0000 
      2 C2          4.0741   54.0950   25.1940 C.ar      1 UNK         0.0000 
      3 N3          4.6223   54.4203   23.9797 N.ar      1 UNK         0.0000 
      4 C4          5.9017   54.6204   23.9602 C.ar      1 UNK         0.0000 
      5 N5          6.7047   54.6519   24.9635 N.2       1 UNK         0.0000 
      6 C6          6.2527   54.4169   26.1987 C.ar      1 UNK         0.0000 
      7 O7          6.9394   54.4819   27.2171 O.2       1 UNK         0.0000 
      8 C8          4.8211   54.0610   26.3434 C.ar      1 UNK         0.0000 
      9 C9          4.2998   53.5534   27.6861 C.3       1 UNK         0.0000 
     10 C10         3.6670   54.6725   28.5294 C.3       1 UNK         0.0000 
     11 C11         2.8123   54.1447   29.6817 C.2       1 UNK         0.0000 
     12 O12         1.8831   54.8861   30.0668 O.co2     1 UNK         0.0000 
     13 O13         3.1200   53.0541   30.2134 O.co2     1 UNK         0.0000 
     14 S14         6.7043   54.8966   22.3706 S.3       1 UNK         0.0000 
     15 C15         5.3507   54.6877   21.1363 C.3       1 UNK         0.0000 
     16 C16         4.8605   53.2389   20.9353 C.2       1 UNK         0.0000 
     17 O17         5.2229   52.3489   21.7047 O.2       1 UNK         0.0000 
     18 C18         3.9335   52.9296   19.8341 C.2       1 UNK         0.0000 
     19 C19         3.5592   53.6257   18.7331 C.2       1 UNK         0.0000 
     20 C20         3.9124   54.9595   18.2043 C.2       1 UNK         0.0000 
     21 C21         3.3908   55.4139   17.0481 C.2       1 UNK         0.0000 
     22 C22         2.4717   54.5504   16.3264 C.2       1 UNK         0.0000 
     23 C23         2.1277   53.3221   16.7897 C.2       1 UNK         0.0000 
     24 C24         2.6571   52.8439   17.9945 C.2       1 UNK         0.0000 
     25 N25         2.4302   51.6944   18.5838 N.pl3     1 UNK         0.0000 
     26 C26         3.1940   51.5947   19.8358 C.3       1 UNK         0.0000 
     27 H27         3.8912   50.7648   19.7017 H         1 UNK         0.0000 
     28 C28         2.2677   51.3268   21.0287 C.ar      1 UNK         0.0000 
     29 C29         1.3894   52.3174   21.4847 C.ar      1 UNK         0.0000 
     30 C30         0.5606   52.0725   22.5751 C.ar      1 UNK         0.0000 
     31 C31         0.6101   50.8375   23.2141 C.ar      1 UNK         0.0000 
     32 C32         1.4783   49.8447   22.7681 C.ar      1 UNK         0.0000 
     33 C33         2.3046   50.0867   21.6729 C.ar      1 UNK         0.0000 
     34 F34        -0.1896   50.6019   24.2773 F         1 UNK         0.0000 
     35 H35         2.5071   52.7991   24.5151 H         1 UNK         0.0000 
     36 H36         2.1124   53.6130   26.0273 H         1 UNK         0.0000 
     37 H37         2.0617   54.5064   24.5158 H         1 UNK         0.0000 
     38 H38         3.5686   52.7676   27.4901 H         1 UNK         0.0000 
     39 H39         5.0901   53.0499   28.2475 H         1 UNK         0.0000 
     40 H40         4.4528   55.2966   28.9491 H         1 UNK         0.0000 
     41 H41         3.0382   55.3039   27.9014 H         1 UNK         0.0000 
     42 H42         5.7626   55.0466   20.1989 H         1 UNK         0.0000 
     43 H43         4.4944   55.2967   21.4108 H         1 UNK         0.0000 
     44 H44         4.5736   55.6382   18.7134 H         1 UNK         0.0000 
     45 H45         3.6397   56.3950   16.6700 H         1 UNK         0.0000 
     46 H46         2.0541   54.8977   15.3923 H         1 UNK         0.0000 
     47 H47         1.4434   52.7202   16.2091 H         1 UNK         0.0000 
     48 H48         1.3553   53.2795   20.9961 H         1 UNK         0.0000 
     49 H49        -0.1101   52.8385   22.9334 H         1 UNK         0.0000 
     50 H50         1.5102   48.8951   23.2801 H         1 UNK         0.0000 
     51 H51         2.9811   49.3146   21.3363 H         1 UNK         0.0000 
     52 H52         1.8354   50.9528   18.2263 H         1 UNK         0.0000 
@<TRIPOS>BOND
     1    1    2 1    
     2    1   35 1    
     3    1   36 1    
     4    1   37 1    
     5    2    8 ar   
     6    2    3 ar   
     7    3    4 ar   
     8    4    5 ar   
     9    4   14 1    
    10    5    6 ar   
    11    6    7 2    
    12    6    8 ar   
    13    8    9 1    
    14    9   10 1    
    15    9   38 1    
    16    9   39 1    
    17   10   11 1    
    18   10   40 1    
    19   10   41 1    
    20   11   12 2    
    21   11   13 1    
    22   14   15 1    
    23   15   16 1    
    24   15   42 1    
    25   15   43 1    
    26   16   17 2    
    27   16   18 1    
    28   18   26 1    
    29   18   19 2    
    30   19   24 1    
    31   19   20 1    
    32   20   21 2    
    33   20   44 1    
    34   21   22 1    
    35   21   45 1    
    36   22   23 2    
    37   22   46 1    
    38   23   24 1    
    39   23   47 1    
    40   24   25 2    
    41   25   26 1    
    42   25   52 1    
    43   26   27 1    
    44   26   28 1    
    45   28   33 ar   
    46   28   29 ar   
    47   29   30 ar   
    48   29   48 1    
    49   30   31 ar   
    50   30   49 1    
    51   31   32 ar   
    52   31   34 1    
    53   32   33 ar   
    54   32   50 1    
    55   33   51 1    
@<TRIPOS>SUBSTRUCTURE
     1 UNK         1 GROUP             0       ****    0 ROOT    
