@<TRIPOS>MOLECULE
ZINC35918680_4679
44   46    1
SMALL
USER_CHARGES


@<TRIPOS>ATOM
      1 C1          1.2766   49.6731   20.9052 C.3       1 UNK         0.0000 
      2 C2          1.3006   51.0588   20.2149 C.3       1 UNK         0.0000 
      3 C3          2.0767   50.9238   18.8878 C.3       1 UNK         0.0000 
      4 C4         -0.1405   51.5238   19.8915 C.3       1 UNK         0.0000 
      5 N5          2.0144   52.0439   21.0373 N.am      1 UNK         0.0000 
      6 C6          1.7109   52.4974   22.2730 C.2       1 UNK         0.0000 
      7 O7          0.6703   52.1780   22.8589 O.2       1 UNK         0.0000 
      8 C8          2.6999   53.4954   22.9418 C.3       1 UNK         0.0000 
      9 H9          2.2314   54.4636   22.7455 H         1 UNK         0.0000 
     10 C10         4.1397   53.4578   22.3125 C.3       1 UNK         0.0000 
     11 C11         5.1033   54.1892   23.2267 C.ar      1 UNK         0.0000 
     12 C12         4.7656   54.4965   24.5363 C.ar      1 UNK         0.0000 
     13 N13         5.8166   55.2267   25.0128 N.pl3     1 UNK         0.0000 
     14 H14         5.8948   55.6555   25.9241 H         1 UNK         0.0000 
     15 C15         6.7044   55.2946   23.9744 C.ar      1 UNK         0.0000 
     16 N16         6.3041   54.6464   22.9047 N.2       1 UNK         0.0000 
     17 C17         3.4250   54.2178   25.1976 C.3       1 UNK         0.0000 
     18 H18         2.8550   55.1386   25.1148 H         1 UNK         0.0000 
     19 N19         2.7050   53.2235   24.3966 N.3       1 UNK         0.0000 
     20 C20         3.4711   53.8690   26.6915 C.ar      1 UNK         0.0000 
     21 C21         4.6139   53.3140   27.2831 C.ar      1 UNK         0.0000 
     22 C22         4.6240   52.9979   28.6381 C.ar      1 UNK         0.0000 
     23 C23         3.4881   53.2215   29.4077 C.ar      1 UNK         0.0000 
     24 C24         2.3427   53.7684   28.8359 C.ar      1 UNK         0.0000 
     25 C25         2.3358   54.0888   27.4800 C.ar      1 UNK         0.0000 
     26 F26         3.4969   52.8941   30.7187 F         1 UNK         0.0000 
     27 H27         2.2863   49.3203   21.1279 H         1 UNK         0.0000 
     28 H28         0.7278   49.6960   21.8481 H         1 UNK         0.0000 
     29 H29         0.8019   48.9215   20.2747 H         1 UNK         0.0000 
     30 H30         1.6115   50.2004   18.2170 H         1 UNK         0.0000 
     31 H31         2.1285   51.8737   18.3502 H         1 UNK         0.0000 
     32 H32         3.1046   50.5907   19.0480 H         1 UNK         0.0000 
     33 H33        -0.7635   51.5852   20.7845 H         1 UNK         0.0000 
     34 H34        -0.1444   52.5093   19.4232 H         1 UNK         0.0000 
     35 H35        -0.6370   50.8357   19.2064 H         1 UNK         0.0000 
     36 H36         2.8507   52.4104   20.6077 H         1 UNK         0.0000 
     37 H37         4.4862   52.4321   22.1837 H         1 UNK         0.0000 
     38 H38         4.1297   53.9112   21.3195 H         1 UNK         0.0000 
     39 H39         7.6127   55.8638   24.0814 H         1 UNK         0.0000 
     40 H40         1.7470   53.1397   24.7149 H         1 UNK         0.0000 
     41 H41         5.4923   53.0946   26.6938 H         1 UNK         0.0000 
     42 H42         5.5042   52.5599   29.0835 H         1 UNK         0.0000 
     43 H43         1.4600   53.9305   29.4367 H         1 UNK         0.0000 
     44 H44         1.4408   54.4956   27.0399 H         1 UNK         0.0000 
@<TRIPOS>BOND
     1    1    2 1    
     2    1   27 1    
     3    1   28 1    
     4    1   29 1    
     5    2    3 1    
     6    2    4 1    
     7    2    5 1    
     8    3   30 1    
     9    3   31 1    
    10    3   32 1    
    11    4   33 1    
    12    4   34 1    
    13    4   35 1    
    14    5    6 am   BACKBONE|DICT|INTERRES
    15    5   36 1    
    16    6    7 2    
    17    6    8 1    
    18    8    9 1    
    19    8   19 1    
    20    8   10 1    
    21   10   11 1    
    22   10   37 1    
    23   10   38 1    
    24   11   16 ar   
    25   11   12 ar   
    26   12   13 ar   
    27   12   17 1    
    28   13   14 1    
    29   13   15 ar   
    30   15   16 ar   
    31   15   39 1    
    32   17   18 1    
    33   17   19 1    
    34   17   20 1    
    35   19   40 1    
    36   20   25 ar   
    37   20   21 ar   
    38   21   22 ar   
    39   21   41 1    
    40   22   23 ar   
    41   22   42 1    
    42   23   24 ar   
    43   23   26 1    
    44   24   25 ar   
    45   24   43 1    
    46   25   44 1    
@<TRIPOS>SUBSTRUCTURE
     1 UNK         1 GROUP             0       ****    0 ROOT    
