@<TRIPOS>MOLECULE
ZINC37201061_4787
39   41    1
SMALL
USER_CHARGES


@<TRIPOS>ATOM
      1 C1          2.6939   52.8024   29.1072 C.ar      1 UNK         0.0000 
      2 C2          1.9061   53.1892   28.0308 C.ar      1 UNK         0.0000 
      3 C3          2.4943   53.7997   26.9268 C.ar      1 UNK         0.0000 
      4 C4          3.8719   54.0434   26.8771 C.ar      1 UNK         0.0000 
      5 C5          4.6822   53.6072   27.9557 C.ar      1 UNK         0.0000 
      6 C6          4.0706   53.0061   29.0618 C.ar      1 UNK         0.0000 
      7 C7          6.2106   53.6962   27.8917 C.3       1 UNK         0.0000 
      8 C8          6.7042   54.6366   26.7810 C.3       1 UNK         0.0000 
      9 C9          5.9511   54.3517   25.4697 C.3       1 UNK         0.0000 
     10 H10         5.9942   53.2971   25.2108 H         1 UNK         0.0000 
     11 C11         4.4851   54.7810   25.6816 C.3       1 UNK         0.0000 
     12 N12         6.5966   55.0974   24.3883 N.pl3     1 UNK         0.0000 
     13 C13         6.3468   54.8774   23.0193 C.ar      1 UNK         0.0000 
     14 C14         7.1044   55.6108   22.1001 C.ar      1 UNK         0.0000 
     15 C15         6.8561   55.5204   20.7319 C.ar      1 UNK         0.0000 
     16 C16         5.8372   54.6943   20.2633 C.ar      1 UNK         0.0000 
     17 C17         5.0891   53.9309   21.1640 C.ar      1 UNK         0.0000 
     18 C18         5.3618   54.0039   22.5348 C.ar      1 UNK         0.0000 
     19 S19         3.7555   52.8961   20.5642 S.o2      1 UNK         0.0000 
     20 O20         2.7251   52.8770   21.6067 O.2       1 UNK         0.0000 
     21 O21         3.4540   53.2975   19.1877 O.2       1 UNK         0.0000 
     22 N22         4.4155   51.2959   20.4831 N.pl3     1 UNK         0.0000 
     23 H23         2.2403   52.3253   29.9639 H         1 UNK         0.0000 
     24 H24         0.8400   53.0154   28.0516 H         1 UNK         0.0000 
     25 H25         1.8656   54.0967   26.1003 H         1 UNK         0.0000 
     26 H26         4.6787   52.6582   29.8834 H         1 UNK         0.0000 
     27 H27         6.6187   54.0133   28.8519 H         1 UNK         0.0000 
     28 H28         6.6025   52.6943   27.7051 H         1 UNK         0.0000 
     29 H29         6.5603   55.6723   27.0949 H         1 UNK         0.0000 
     30 H30         7.7761   54.4959   26.6597 H         1 UNK         0.0000 
     31 H31         3.8793   54.6198   24.7912 H         1 UNK         0.0000 
     32 H32         4.4479   55.8502   25.8766 H         1 UNK         0.0000 
     33 H33         6.9692   56.0043   24.6204 H         1 UNK         0.0000 
     34 H34         7.9030   56.2494   22.4473 H         1 UNK         0.0000 
     35 H35         7.4513   56.0900   20.0330 H         1 UNK         0.0000 
     36 H36         5.6367   54.6411   19.2018 H         1 UNK         0.0000 
     37 H37         4.7780   53.4018   23.2130 H         1 UNK         0.0000 
     38 H38         3.7512   50.6063   20.8413 H         1 UNK         0.0000 
     39 H39         4.7076   51.0420   19.5191 H         1 UNK         0.0000 
@<TRIPOS>BOND
     1    1    6 ar   
     2    1    2 ar   
     3    1   23 1    
     4    2    3 ar   
     5    2   24 1    
     6    3    4 ar   
     7    3   25 1    
     8    4   11 1    
     9    4    5 ar   
    10    5    6 ar   
    11    5    7 1    
    12    6   26 1    
    13    7    8 1    
    14    7   27 1    
    15    7   28 1    
    16    8    9 1    
    17    8   29 1    
    18    8   30 1    
    19    9   10 1    
    20    9   11 1    
    21    9   12 1    
    22   11   31 1    
    23   11   32 1    
    24   12   13 1    
    25   12   33 1    
    26   13   18 ar   
    27   13   14 ar   
    28   14   15 ar   
    29   14   34 1    
    30   15   16 ar   
    31   15   35 1    
    32   16   17 ar   
    33   16   36 1    
    34   17   18 ar   
    35   17   19 1    
    36   18   37 1    
    37   19   20 2    
    38   19   21 2    
    39   19   22 1    
    40   22   38 1    
    41   22   39 1    
@<TRIPOS>SUBSTRUCTURE
     1 UNK         1 GROUP             0       ****    0 ROOT    
