@<TRIPOS>MOLECULE
ZINC06768560_5832
45   48    1
SMALL
USER_CHARGES


@<TRIPOS>ATOM
      1 C1         -0.0630   50.0374   25.6695 C.3       1 UNK         0.0000 
      2 C2         -0.5340   50.2134   24.2105 C.3       1 UNK         0.0000 
      3 C3          0.6156   49.9215   23.2016 C.3       1 UNK         0.0000 
      4 C4          1.6488   51.0674   23.1030 C.3       1 UNK         0.0000 
      5 C5          0.9200   52.3850   22.7671 C.3       1 UNK         0.0000 
      6 C6         -0.0809   52.7418   23.8825 C.3       1 UNK         0.0000 
      7 C7         -1.1469   51.6268   23.9770 C.3       1 UNK         0.0000 
      8 N8          1.8471   53.4819   22.4819 N.pl3     1 UNK         0.0000 
      9 C9          3.0874   53.7287   23.0255 C.ar      1 UNK         0.0000 
     10 C10         4.3145   53.9963   22.4070 C.ar      1 UNK         0.0000 
     11 N11         5.2583   54.1976   23.3989 N.pl3     1 UNK         0.0000 
     12 H12         6.2290   54.3777   23.1863 H         1 UNK         0.0000 
     13 C13         4.6740   54.0969   24.6216 C.ar      1 UNK         0.0000 
     14 N14         3.3446   53.8196   24.3981 N.pl3     1 UNK         0.0000 
     15 N15         2.6660   53.7005   25.5894 N.2       1 UNK         0.0000 
     16 C16         3.5795   53.8963   26.5214 C.ar      1 UNK         0.0000 
     17 C17         4.8590   54.1341   26.0212 C.ar      1 UNK         0.0000 
     18 C18         6.1049   54.3376   26.7288 C.1       1 UNK         0.0000 
     19 N19         7.1042   54.4966   27.2819 N.1       1 UNK         0.0000 
     20 C20         4.7014   54.0542   20.9647 C.ar      1 UNK         0.0000 
     21 C21         5.7383   54.8969   20.5446 C.ar      1 UNK         0.0000 
     22 C22         6.1094   54.9395   19.2036 C.ar      1 UNK         0.0000 
     23 C23         5.4473   54.1362   18.2795 C.ar      1 UNK         0.0000 
     24 C24         4.4136   53.2965   18.6854 C.ar      1 UNK         0.0000 
     25 C25         4.0403   53.2562   20.0259 C.ar      1 UNK         0.0000 
     26 Br26        5.9639   54.1823   16.4486 Br        1 UNK         0.0000 
     27 H27         0.7043   50.7592   25.9452 H         1 UNK         0.0000 
     28 H28         0.3471   49.0402   25.8372 H         1 UNK         0.0000 
     29 H29        -0.8916   50.1588   26.3686 H         1 UNK         0.0000 
     30 H30        -1.3231   49.4861   24.0118 H         1 UNK         0.0000 
     31 H31         1.1163   48.9876   23.4625 H         1 UNK         0.0000 
     32 H32         0.1844   49.7524   22.2134 H         1 UNK         0.0000 
     33 H33         2.3941   50.8291   22.3425 H         1 UNK         0.0000 
     34 H34         2.1779   51.1539   24.0526 H         1 UNK         0.0000 
     35 H35         0.3658   52.2390   21.8382 H         1 UNK         0.0000 
     36 H36        -0.5638   53.6986   23.6821 H         1 UNK         0.0000 
     37 H37         0.4097   52.8338   24.8479 H         1 UNK         0.0000 
     38 H38        -1.7291   51.6131   23.0543 H         1 UNK         0.0000 
     39 H39        -1.8611   51.8616   24.7678 H         1 UNK         0.0000 
     40 H40         1.6374   53.9090   21.5850 H         1 UNK         0.0000 
     41 H41         3.3175   53.8441   27.5685 H         1 UNK         0.0000 
     42 H42         6.2565   55.5280   21.2507 H         1 UNK         0.0000 
     43 H43         6.9092   55.5891   18.8799 H         1 UNK         0.0000 
     44 H44         3.9189   52.6582   17.9668 H         1 UNK         0.0000 
     45 H45         3.2499   52.5857   20.3290 H         1 UNK         0.0000 
@<TRIPOS>BOND
     1    1    2 1    
     2    1   27 1    
     3    1   28 1    
     4    1   29 1    
     5    2    7 1    
     6    2    3 1    
     7    2   30 1    
     8    3    4 1    
     9    3   31 1    
    10    3   32 1    
    11    4    5 1    
    12    4   33 1    
    13    4   34 1    
    14    5    6 1    
    15    5    8 1    
    16    5   35 1    
    17    6    7 1    
    18    6   36 1    
    19    6   37 1    
    20    7   38 1    
    21    7   39 1    
    22    8    9 1    
    23    8   40 1    
    24    9   14 ar   
    25    9   10 ar   
    26   10   11 ar   
    27   10   20 1    
    28   11   12 1    
    29   11   13 ar   
    30   13   17 ar   
    31   13   14 ar   
    32   14   15 ar   
    33   15   16 ar   
    34   16   17 ar   
    35   16   41 1    
    36   17   18 1    
    37   18   19 3    
    38   20   25 ar   
    39   20   21 ar   
    40   21   22 ar   
    41   21   42 1    
    42   22   23 ar   
    43   22   43 1    
    44   23   24 ar   
    45   23   26 1    
    46   24   25 ar   
    47   24   44 1    
    48   25   45 1    
@<TRIPOS>SUBSTRUCTURE
     1 UNK         1 GROUP             0       ****    0 ROOT    
