@<TRIPOS>MOLECULE
ZINC17026773_5679
71   74    1
SMALL
USER_CHARGES


@<TRIPOS>ATOM
      1 C1          5.2437   54.7752   26.7149 C.3       1 UNK         0.0000 
      2 C2          4.3245   54.0909   27.7102 C.ar      1 UNK         0.0000 
      3 C3          4.6980   54.0036   29.0475 C.ar      1 UNK         0.0000 
      4 C4          3.9073   53.3435   29.9881 C.ar      1 UNK         0.0000 
      5 C5          2.6881   52.7656   29.6472 C.ar      1 UNK         0.0000 
      6 C6          2.2791   52.8261   28.2971 C.ar      1 UNK         0.0000 
      7 C7          3.1031   53.4995   27.3582 C.ar      1 UNK         0.0000 
      8 S8          2.3419   53.4321   25.7974 S.3       1 UNK         0.0000 
      9 C9          1.0107   52.5060   26.4813 C.2       1 UNK         0.0000 
     10 N10         1.1474   52.2815   27.7668 N.2       1 UNK         0.0000 
     11 N11        -0.1465   52.1026   25.7550 N.am      1 UNK         0.0000 
     12 C12        -1.2247   51.4144   26.5192 C.3       1 UNK         0.0000 
     13 C13        -1.7305   50.0907   25.8847 C.3       1 UNK         0.0000 
     14 C14        -1.1774   47.7365   25.1283 C.3       1 UNK         0.0000 
     15 C15         0.7449   49.1444   26.0162 C.3       1 UNK         0.0000 
     16 C16        -0.4327   52.4671   24.4582 C.2       1 UNK         0.0000 
     17 O17        -1.5863   52.5562   24.0312 O.2       1 UNK         0.0000 
     18 C18         0.6540   52.4880   23.4185 C.ar      1 UNK         0.0000 
     19 C19         1.2211   53.6942   23.0030 C.ar      1 UNK         0.0000 
     20 C20         2.2602   53.6934   22.0819 C.ar      1 UNK         0.0000 
     21 C21         2.6655   52.4981   21.5044 C.ar      1 UNK         0.0000 
     22 C22         2.0735   51.2910   21.8727 C.ar      1 UNK         0.0000 
     23 C23         1.0662   51.2879   22.8294 C.ar      1 UNK         0.0000 
     24 S24         3.9468   52.5085   20.2754 S.o2      1 UNK         0.0000 
     25 O25         4.5614   53.8422   20.3054 O.2       1 UNK         0.0000 
     26 O26         4.7214   51.3009   20.5725 O.2       1 UNK         0.0000 
     27 N27         3.0821   52.3057   18.7367 N.pl3     1 UNK         0.0000 
     28 C28         2.7022   50.9651   18.2518 C.3       1 UNK         0.0000 
     29 C29         1.1742   50.7617   18.2602 C.3       1 UNK         0.0000 
     30 C30         0.4702   51.9153   17.5175 C.3       1 UNK         0.0000 
     31 C31         0.8890   53.2915   18.0837 C.3       1 UNK         0.0000 
     32 H32         0.5922   53.2977   19.1337 H         1 UNK         0.0000 
     33 C33         2.4310   53.4398   18.0362 C.3       1 UNK         0.0000 
     34 C34         0.1906   54.4409   17.3328 C.3       1 UNK         0.0000 
     35 O35         1.9655   52.1007   30.6129 O.3       1 UNK         0.0000 
     36 C36         0.6035   52.4844   30.7880 C.3       1 UNK         0.0000 
     37 H37         4.6870   55.4864   26.1034 H         1 UNK         0.0000 
     38 H38         6.0567   55.3116   27.2035 H         1 UNK         0.0000 
     39 H39         5.6753   54.0310   26.0433 H         1 UNK         0.0000 
     40 H40         5.6340   54.4474   29.3579 H         1 UNK         0.0000 
     41 H41         4.2739   53.2658   31.0030 H         1 UNK         0.0000 
     42 H42        -0.9307   51.1827   27.5419 H         1 UNK         0.0000 
     43 H43        -2.0534   52.1152   26.6343 H         1 UNK         0.0000 
     44 H44        -2.6564   49.7644   26.3643 H         1 UNK         0.0000 
     45 H45        -1.9131   50.1743   24.8122 H         1 UNK         0.0000 
     46 H46        -1.0989   48.1048   24.1042 H         1 UNK         0.0000 
     47 H47        -0.5004   46.8980   25.2815 H         1 UNK         0.0000 
     48 H48        -2.2020   47.4585   25.3822 H         1 UNK         0.0000 
     49 H49         0.9736   49.6402   25.0785 H         1 UNK         0.0000 
     50 H50         0.9987   49.7612   26.8744 H         1 UNK         0.0000 
     51 H51         1.2763   48.1956   26.0814 H         1 UNK         0.0000 
     52 H52         0.8991   54.6336   23.4273 H         1 UNK         0.0000 
     53 H53         2.7196   54.6284   21.7966 H         1 UNK         0.0000 
     54 H54         2.3897   50.3634   21.4155 H         1 UNK         0.0000 
     55 H55         0.5999   50.3497   23.0866 H         1 UNK         0.0000 
     56 H56         3.1005   50.8965   17.2411 H         1 UNK         0.0000 
     57 H57         3.1863   50.2037   18.8616 H         1 UNK         0.0000 
     58 H58         0.9308   49.8070   17.7907 H         1 UNK         0.0000 
     59 H59         0.8125   50.7001   19.2875 H         1 UNK         0.0000 
     60 H60         0.7145   51.8689   16.4548 H         1 UNK         0.0000 
     61 H61        -0.6131   51.8001   17.5589 H         1 UNK         0.0000 
     62 H62         2.7523   54.3759   18.4907 H         1 UNK         0.0000 
     63 H63         2.8029   53.4438   17.0109 H         1 UNK         0.0000 
     64 H64         0.4007   54.3997   16.2629 H         1 UNK         0.0000 
     65 H65        -0.8921   54.4007   17.4598 H         1 UNK         0.0000 
     66 H66         0.5249   55.4174   17.6833 H         1 UNK         0.0000 
     67 H67         0.3148   52.2923   31.8194 H         1 UNK         0.0000 
     68 H68        -0.0575   51.8951   30.1537 H         1 UNK         0.0000 
     69 H69         0.4290   53.5436   30.5947 H         1 UNK         0.0000 
     70 N70        -0.7741   48.8818   26.0815 N.4       1 UNK         0.0000 
     71 H71        -0.9712   48.5438   27.0450 H         1 UNK         0.0000 
@<TRIPOS>BOND
     1    1    2 1    
     2    1   37 1    
     3    1   38 1    
     4    1   39 1    
     5    2    7 ar   
     6    2    3 ar   
     7    3    4 ar   
     8    3   40 1    
     9    4    5 ar   
    10    4   41 1    
    11    5    6 ar   
    12    5   35 1    
    13    6   10 1    
    14    6    7 ar   
    15    7    8 1    
    16    8    9 1    
    17    9   10 2    
    18    9   11 am   BACKBONE|DICT|INTERRES
    19   11   12 1    
    20   11   16 am   BACKBONE|DICT|INTERRES
    21   12   13 1    
    22   12   42 1    
    23   12   43 1    
    24   13   44 1    
    25   13   45 1    
    26   13   70 1    
    27   14   46 1    
    28   14   47 1    
    29   14   48 1    
    30   14   70 1    
    31   15   49 1    
    32   15   50 1    
    33   15   51 1    
    34   15   70 1    
    35   16   17 2    
    36   16   18 1    
    37   18   23 ar   
    38   18   19 ar   
    39   19   20 ar   
    40   19   52 1    
    41   20   21 ar   
    42   20   53 1    
    43   21   22 ar   
    44   21   24 1    
    45   22   23 ar   
    46   22   54 1    
    47   23   55 1    
    48   24   25 2    
    49   24   26 2    
    50   24   27 1    
    51   27   33 1    
    52   27   28 1    
    53   28   29 1    
    54   28   56 1    
    55   28   57 1    
    56   29   30 1    
    57   29   58 1    
    58   29   59 1    
    59   30   31 1    
    60   30   60 1    
    61   30   61 1    
    62   31   32 1    
    63   31   33 1    
    64   31   34 1    
    65   33   62 1    
    66   33   63 1    
    67   34   64 1    
    68   34   65 1    
    69   34   66 1    
    70   35   36 1    
    71   36   67 1    
    72   36   68 1    
    73   36   69 1    
    74   70   71 1    
@<TRIPOS>SUBSTRUCTURE
     1 UNK         1 GROUP             0       ****    0 ROOT    
