ZINC36213802_2726
                    3D
 Schrodinger Suite 2024-2.
 70 72  0  0  1  0            999 V2000
    4.9091   54.2733   25.5503 C   0  0  0  0  0  0
    5.0684   54.3716   24.0354 C   0  0  0  0  0  0
    6.3045   54.7987   23.5343 C   0  0  0  0  0  0
    6.5178   54.8969   22.1618 C   0  0  0  0  0  0
    5.5041   54.5526   21.2723 C   0  0  0  0  0  0
    4.2738   54.1136   21.7547 C   0  0  0  0  0  0
    4.0329   54.0211   23.1353 C   0  0  0  0  0  0
    2.6904   53.5212   23.6139 C   0  0  0  0  0  0
    2.0725   54.1058   24.4995 O   0  0  0  0  0  0
    2.3046   52.3672   23.0442 N   0  0  0  0  0  0
    1.1518   51.4892   23.2934 C   0  0  1  0  0  0
    1.7005   50.5588   23.4076 H   0  0  0  0  0  0
    0.3862   51.6678   24.6520 C   0  0  0  0  0  0
   -0.7920   52.6764   24.6940 C   0  0  0  0  0  0
   -1.2381   52.8965   26.1695 C   0  0  0  0  0  0
   -1.6521   51.5887   26.7129 N   0  0  0  0  0  0
   -0.5597   50.5857   26.6911 C   0  0  0  0  0  0
   -0.1826   50.3486   25.2105 C   0  0  0  0  0  0
   -2.9742   51.2596   26.6770 C   0  0  0  0  0  0
   -3.8375   52.0202   26.2276 O   0  0  0  0  0  0
   -3.2968   50.0968   27.2811 N   0  0  0  0  0  0
   -4.6344   49.5159   27.4887 C   0  0  0  0  0  0
   -5.5298   50.4456   28.3429 C   0  0  0  0  0  0
   -4.4564   48.1907   28.2576 C   0  0  0  0  0  0
   -5.3246   49.2062   26.1399 C   0  0  0  0  0  0
    0.2782   51.4393   22.0115 C   0  0  0  0  0  0
   -0.2581   52.4904   21.6521 O   0  0  0  0  0  0
    0.1526   50.2778   21.3090 N   0  0  0  0  0  0
    0.8276   49.0145   21.6530 C   0  0  0  0  0  0
    2.1776   49.0045   20.8983 C   0  0  0  0  0  0
    1.9767   49.1782   19.3760 C   0  0  0  0  0  0
    1.0298   50.3578   19.0494 C   0  0  0  0  0  0
   -0.2691   50.3295   19.8968 C   0  0  0  0  0  0
    5.8580   54.3828   26.0758 H   0  0  0  0  0  0
    4.2192   55.0375   25.9090 H   0  0  0  0  0  0
    4.5019   53.3008   25.8297 H   0  0  0  0  0  0
    7.1081   55.0628   24.2065 H   0  0  0  0  0  0
    7.4731   55.2354   21.7893 H   0  0  0  0  0  0
    5.6700   54.6262   20.2073 H   0  0  0  0  0  0
    3.5007   53.8646   21.0395 H   0  0  0  0  0  0
    2.8925   52.0430   22.2921 H   0  0  0  0  0  0
    1.1440   51.9918   25.3674 H   0  0  0  0  0  0
   -1.6187   52.3750   24.0486 H   0  0  0  0  0  0
   -0.4683   53.6271   24.2712 H   0  0  0  0  0  0
   -2.0106   53.6547   26.3193 H   0  0  0  0  0  0
   -0.3943   53.2159   26.7844 H   0  0  0  0  0  0
    0.2824   51.0213   27.2302 H   0  0  0  0  0  0
   -0.7612   49.6983   27.2653 H   0  0  0  0  0  0
    0.5903   49.5794   25.1785 H   0  0  0  0  0  0
   -0.9935   49.9424   24.6029 H   0  0  0  0  0  0
   -2.5421   49.5431   27.6821 H   0  0  0  0  0  0
   -6.4887   49.9777   28.5683 H   0  0  0  0  0  0
   -5.7477   51.3860   27.8364 H   0  0  0  0  0  0
   -5.0542   50.6892   29.2937 H   0  0  0  0  0  0
   -3.8164   47.4932   27.7144 H   0  0  0  0  0  0
   -3.9897   48.3527   29.2309 H   0  0  0  0  0  0
   -5.4096   47.6914   28.4335 H   0  0  0  0  0  0
   -4.7126   48.5462   25.5235 H   0  0  0  0  0  0
   -6.2876   48.7170   26.2871 H   0  0  0  0  0  0
   -5.5122   50.1106   25.5612 H   0  0  0  0  0  0
    0.8654   48.8099   22.7233 H   0  0  0  0  0  0
    0.1885   48.2120   21.2807 H   0  0  0  0  0  0
    2.8293   49.7901   21.2836 H   0  0  0  0  0  0
    2.7041   48.0701   21.0945 H   0  0  0  0  0  0
    1.5585   48.2590   18.9626 H   0  0  0  0  0  0
    2.9402   49.3185   18.8821 H   0  0  0  0  0  0
    0.7766   50.3409   17.9888 H   0  0  0  0  0  0
    1.5493   51.3050   19.2084 H   0  0  0  0  0  0
   -0.8395   49.4223   19.6920 H   0  0  0  0  0  0
   -0.9739   51.1373   19.6910 H   0  0  0  0  0  0
  1  2  1  0  0  0
  1 34  1  0  0  0
  1 35  1  0  0  0
  1 36  1  0  0  0
  2  7  2  0  0  0
  2  3  1  0  0  0
  3  4  2  0  0  0
  3 37  1  0  0  0
  4  5  1  0  0  0
  4 38  1  0  0  0
  5  6  2  0  0  0
  5 39  1  0  0  0
  6  7  1  0  0  0
  6 40  1  0  0  0
  7  8  1  0  0  0
  8  9  2  0  0  0
  8 10  1  0  0  0
 10 11  1  0  0  0
 10 41  1  0  0  0
 11 12  1  0  0  0
 11 13  1  0  0  0
 11 26  1  0  0  0
 13 18  1  0  0  0
 13 14  1  0  0  0
 13 42  1  0  0  0
 14 15  1  0  0  0
 14 43  1  0  0  0
 14 44  1  0  0  0
 15 16  1  0  0  0
 15 45  1  0  0  0
 15 46  1  0  0  0
 16 17  1  0  0  0
 16 19  1  0  0  0
 17 18  1  0  0  0
 17 47  1  0  0  0
 17 48  1  0  0  0
 18 49  1  0  0  0
 18 50  1  0  0  0
 19 20  2  0  0  0
 19 21  1  0  0  0
 21 22  1  0  0  0
 21 51  1  0  0  0
 22 23  1  0  0  0
 22 24  1  0  0  0
 22 25  1  0  0  0
 23 52  1  0  0  0
 23 53  1  0  0  0
 23 54  1  0  0  0
 24 55  1  0  0  0
 24 56  1  0  0  0
 24 57  1  0  0  0
 25 58  1  0  0  0
 25 59  1  0  0  0
 25 60  1  0  0  0
 26 27  2  0  0  0
 26 28  1  0  0  0
 28 33  1  0  0  0
 28 29  1  0  0  0
 29 30  1  0  0  0
 29 61  1  0  0  0
 29 62  1  0  0  0
 30 31  1  0  0  0
 30 63  1  0  0  0
 30 64  1  0  0  0
 31 32  1  0  0  0
 31 65  1  0  0  0
 31 66  1  0  0  0
 32 33  1  0  0  0
 32 67  1  0  0  0
 32 68  1  0  0  0
 33 69  1  0  0  0
 33 70  1  0  0  0
M  END
> <i_i_glide_confnum>
348

> <i_i_glide_lignum>
2727

> <i_i_glide_posenum>
255

> <i_i_glide_rotatable_bonds>
9

> <i_m_Source_File_Index>
3919

> <b_m_subgroup_collapsed>
0

> <r_i_docking_score>
-4.6276

> <r_i_glide_ecoul>
-7.01154

> <r_i_glide_eff_state_penalty>
0

> <r_i_glide_einternal>
19.5541

> <r_i_glide_emodel>
-36.8395

> <r_i_glide_energy>
-35.7697

> <r_i_glide_erotb>
0.81616

> <r_i_glide_esite>
-0.190392

> <r_i_glide_evdw>
-28.7581

> <r_i_glide_gscore>
-4.6276

> <r_i_glide_hbond>
-0.16

> <r_i_glide_ligand_efficiency>
-0.144612

> <r_i_glide_ligand_efficiency_ln>
-1.03624

> <r_i_glide_ligand_efficiency_sa>
-0.459116

> <r_i_glide_lipo>
-1.85106

> <r_i_glide_metal>
0

> <r_i_glide_rewards>
-0.752664

> <s_i_glide_gridfile>
wee1_glide-grid

> <s_m_Source_File>
wee1_decoys_glide_SP.sdf

> <s_m_Source_Path>
/Users/zhangxujun/Desktop

> <s_m_entry_id>
4194

> <s_m_entry_name>
wee1_decoys_glide_SP.3919

> <s_m_subgroup_title>
wee1_decoys_glide_SP

> <s_m_subgroupid>
wee1_decoys_glide_SP


$$$$
