@<TRIPOS>MOLECULE
ZINC09406857_671
63   67    1
SMALL
USER_CHARGES


@<TRIPOS>ATOM
      1 C1          4.8251   54.3694   20.6923 C.3       1 UNK         0.0000 
      2 C2          4.6983   53.2469   21.7444 C.3       1 UNK         0.0000 
      3 H3          5.5046   52.5349   21.5722 H         1 UNK         0.0000 
      4 C4          4.9225   53.8326   23.1453 C.ar      1 UNK         0.0000 
      5 C5          3.8623   54.0700   24.0323 C.ar      1 UNK         0.0000 
      6 C6          4.1169   54.5360   25.3197 C.ar      1 UNK         0.0000 
      7 C7          5.4268   54.7948   25.7161 C.ar      1 UNK         0.0000 
      8 C8          6.4868   54.5816   24.8378 C.ar      1 UNK         0.0000 
      9 C9          6.2355   54.0973   23.5587 C.ar      1 UNK         0.0000 
     10 N10         3.4627   52.4490   21.6415 N.am      1 UNK         0.0000 
     11 C11         2.8639   52.0060   20.5185 C.2       1 UNK         0.0000 
     12 O12         3.2363   52.3134   19.3883 O.2       1 UNK         0.0000 
     13 C13         1.6806   51.0340   20.6956 C.3       1 UNK         0.0000 
     14 H14         1.3118   51.1612   21.7125 H         1 UNK         0.0000 
     15 C15         2.2159   49.5946   20.4635 C.3       1 UNK         0.0000 
     16 C16         1.0530   48.5768   20.4819 C.3       1 UNK         0.0000 
     17 C17        -0.0831   48.9680   19.5174 C.3       1 UNK         0.0000 
     18 N18        -0.5205   50.3655   19.7466 N.pl3     1 UNK         0.0000 
     19 C19         0.5633   51.3770   19.6741 C.3       1 UNK         0.0000 
     20 S20        -1.9587   50.6730   20.7398 S.o2      1 UNK         0.0000 
     21 O21        -2.2976   52.0965   20.6093 O.2       1 UNK         0.0000 
     22 O22        -2.9516   49.6374   20.4278 O.2       1 UNK         0.0000 
     23 C23        -1.4771   50.4157   22.4552 C.ar      1 UNK         0.0000 
     24 C24        -1.6961   49.1705   23.0617 C.ar      1 UNK         0.0000 
     25 C25        -1.4437   48.9481   24.4193 C.ar      1 UNK         0.0000 
     26 C26        -0.9596   50.0350   25.1508 C.ar      1 UNK         0.0000 
     27 C27        -0.6866   51.2882   24.5520 C.ar      1 UNK         0.0000 
     28 C28        -0.9460   51.4824   23.1883 C.ar      1 UNK         0.0000 
     29 N29        -0.1985   52.1753   25.4712 N.2       1 UNK         0.0000 
     30 C30        -0.2346   51.5386   26.6217 C.ar      1 UNK         0.0000 
     31 N31        -0.6650   50.2321   26.4815 N.pl3     1 UNK         0.0000 
     32 H32        -0.7953   49.5740   27.2521 H         1 UNK         0.0000 
     33 C33         0.1359   52.1830   27.9242 C.ar      1 UNK         0.0000 
     34 C34        -0.4078   51.7269   29.1300 C.ar      1 UNK         0.0000 
     35 C35        -0.0892   52.3585   30.3300 C.ar      1 UNK         0.0000 
     36 C36         0.7634   53.4575   30.3287 C.ar      1 UNK         0.0000 
     37 C37         1.3127   53.9244   29.1368 C.ar      1 UNK         0.0000 
     38 C38         1.0004   53.2852   27.9400 C.ar      1 UNK         0.0000 
     39 H39         5.6017   55.0947   20.9416 H         1 UNK         0.0000 
     40 H40         5.0730   53.9708   19.7086 H         1 UNK         0.0000 
     41 H41         3.8784   54.8966   20.5974 H         1 UNK         0.0000 
     42 H42         2.8401   53.8826   23.7375 H         1 UNK         0.0000 
     43 H43         3.3035   54.7082   26.0069 H         1 UNK         0.0000 
     44 H44         5.6200   55.1607   26.7144 H         1 UNK         0.0000 
     45 H45         7.5018   54.7842   25.1436 H         1 UNK         0.0000 
     46 H46         7.0646   53.9257   22.8877 H         1 UNK         0.0000 
     47 H47         3.1287   52.0723   22.5141 H         1 UNK         0.0000 
     48 H48         2.6686   49.4977   19.4722 H         1 UNK         0.0000 
     49 H49         2.9173   49.2970   21.2454 H         1 UNK         0.0000 
     50 H50         1.4265   47.5868   20.2187 H         1 UNK         0.0000 
     51 H51         0.6561   48.4969   21.4963 H         1 UNK         0.0000 
     52 H52         0.2605   48.8903   18.4849 H         1 UNK         0.0000 
     53 H53        -0.9385   48.3011   19.6210 H         1 UNK         0.0000 
     54 H54         0.1267   52.3627   19.8512 H         1 UNK         0.0000 
     55 H55         0.9488   51.3228   18.6518 H         1 UNK         0.0000 
     56 H56        -2.1072   48.3613   22.4750 H         1 UNK         0.0000 
     57 H57        -1.6450   47.9970   24.8889 H         1 UNK         0.0000 
     58 H58        -0.7729   52.4456   22.7297 H         1 UNK         0.0000 
     59 H59        -1.0922   50.8906   29.1442 H         1 UNK         0.0000 
     60 H60        -0.4967   51.9978   31.2651 H         1 UNK         0.0000 
     61 H61         0.9991   53.9447   31.2640 H         1 UNK         0.0000 
     62 H62         1.9729   54.7795   29.1380 H         1 UNK         0.0000 
     63 H63         1.4237   53.6558   27.0178 H         1 UNK         0.0000 
@<TRIPOS>BOND
     1    1    2 1    
     2    1   39 1    
     3    1   40 1    
     4    1   41 1    
     5    2    3 1    
     6    2    4 1    
     7    2   10 1    
     8    4    9 ar   
     9    4    5 ar   
    10    5    6 ar   
    11    5   42 1    
    12    6    7 ar   
    13    6   43 1    
    14    7    8 ar   
    15    7   44 1    
    16    8    9 ar   
    17    8   45 1    
    18    9   46 1    
    19   10   11 am   BACKBONE|DICT|INTERRES
    20   10   47 1    
    21   11   12 2    
    22   11   13 1    
    23   13   14 1    
    24   13   19 1    
    25   13   15 1    
    26   15   16 1    
    27   15   48 1    
    28   15   49 1    
    29   16   17 1    
    30   16   50 1    
    31   16   51 1    
    32   17   18 1    
    33   17   52 1    
    34   17   53 1    
    35   18   19 1    
    36   18   20 1    
    37   19   54 1    
    38   19   55 1    
    39   20   21 2    
    40   20   22 2    
    41   20   23 1    
    42   23   28 ar   
    43   23   24 ar   
    44   24   25 ar   
    45   24   56 1    
    46   25   26 ar   
    47   25   57 1    
    48   26   31 ar   
    49   26   27 ar   
    50   27   28 ar   
    51   27   29 ar   
    52   28   58 1    
    53   29   30 ar   
    54   30   31 ar   
    55   30   33 1    
    56   31   32 1    
    57   33   38 ar   
    58   33   34 ar   
    59   34   35 ar   
    60   34   59 1    
    61   35   36 ar   
    62   35   60 1    
    63   36   37 ar   
    64   36   61 1    
    65   37   38 ar   
    66   37   62 1    
    67   38   63 1    
@<TRIPOS>SUBSTRUCTURE
     1 UNK         1 GROUP             0       ****    0 ROOT    
