ZINC01507372_5092
                    3D
 Schrodinger Suite 2024-2.
 49 52  0  0  1  0            999 V2000
    6.5082   53.6049   28.3740 C   0  0  0  0  0  0
    5.1289   54.2089   28.7092 C   0  0  0  0  0  0
    4.1368   53.8350   27.7557 O   0  0  0  0  0  0
    4.1690   54.3107   26.4864 C   0  0  0  0  0  0
    5.0052   55.1212   26.0828 O   0  0  0  0  0  0
    3.1101   53.7220   25.6372 C   0  0  0  0  0  0
    3.1932   53.6775   24.2102 C   0  0  0  0  0  0
    2.0746   53.0927   23.6047 C   0  0  0  0  0  0
    0.9306   52.5546   24.7543 S   0  0  0  0  0  0
    1.9099   53.1095   26.0923 C   0  0  0  0  0  0
    1.5185   52.9004   27.4349 N   0  3  0  0  0  0
    0.3706   52.4397   27.9631 C   0  0  0  0  0  0
    0.1428   52.2086   29.3509 C   0  0  0  0  0  0
   -1.0570   51.6272   29.6578 C   0  0  0  0  0  0
   -2.1015   51.3008   28.6790 C   0  0  0  0  0  0
   -3.3472   50.7464   28.9839 C   0  0  0  0  0  0
   -4.2608   50.5015   27.9561 C   0  0  0  0  0  0
   -3.9302   50.8113   26.6330 C   0  0  0  0  0  0
   -2.6902   51.3790   26.3332 C   0  0  0  0  0  0
   -1.7860   51.6213   27.3665 C   0  0  0  0  0  0
   -0.5656   52.2008   27.0882 O   0  0  0  0  0  0
   -5.9582   49.7424   28.3597 Br  0  0  0  0  0  0
    1.1227   52.4978   30.4051 C   0  0  0  0  0  0
    2.3074   52.7395   30.1714 O   0  0  0  0  0  0
    0.7046   52.4935   31.6805 N   0  0  0  0  0  0
    1.8317   52.9394   22.1094 C   0  0  0  0  0  0
    3.1617   53.1232   21.3528 C   0  0  0  0  0  0
    3.9365   54.3391   21.8745 C   0  0  0  0  0  0
    4.3681   54.1652   23.3441 C   0  0  0  0  0  0
    7.2021   53.7055   29.2087 H   0  0  0  0  0  0
    6.4259   52.5464   28.1228 H   0  0  0  0  0  0
    6.9614   54.1065   27.5190 H   0  0  0  0  0  0
    5.1941   55.2965   28.7939 H   0  0  0  0  0  0
    4.7944   53.8419   29.6789 H   0  0  0  0  0  0
   -1.2827   51.3386   30.6748 H   0  0  0  0  0  0
   -3.5949   50.4857   30.0035 H   0  0  0  0  0  0
   -4.6375   50.6102   25.8403 H   0  0  0  0  0  0
   -2.4288   51.6227   25.3133 H   0  0  0  0  0  0
   -0.2514   52.2725   31.9610 H   0  0  0  0  0  0
    1.3750   52.6664   32.4127 H   0  0  0  0  0  0
    1.1161   53.6957   21.7812 H   0  0  0  0  0  0
    1.3964   51.9657   21.8702 H   0  0  0  0  0  0
    2.9610   53.2372   20.2867 H   0  0  0  0  0  0
    3.7756   52.2252   21.4484 H   0  0  0  0  0  0
    3.3048   55.2253   21.7905 H   0  0  0  0  0  0
    4.8099   54.5273   21.2500 H   0  0  0  0  0  0
    5.1844   53.4448   23.4011 H   0  0  0  0  0  0
    4.7754   55.1100   23.6879 H   0  0  0  0  0  0
    2.2588   53.1102   28.1045 H   0  0  0  0  0  0
  1  2  1  0  0  0
  1 30  1  0  0  0
  1 31  1  0  0  0
  1 32  1  0  0  0
  2  3  1  0  0  0
  2 33  1  0  0  0
  2 34  1  0  0  0
  3  4  1  0  0  0
  4  5  2  0  0  0
  4  6  1  0  0  0
  6 10  2  0  0  0
  6  7  1  0  0  0
  7 29  1  0  0  0
  7  8  2  0  0  0
  8  9  1  0  0  0
  8 26  1  0  0  0
  9 10  1  0  0  0
 10 11  1  0  0  0
 11 12  2  0  0  0
 11 49  1  0  0  0
 12 21  1  0  0  0
 12 13  1  0  0  0
 13 14  2  0  0  0
 13 23  1  0  0  0
 14 15  1  0  0  0
 14 35  1  0  0  0
 15 20  2  0  0  0
 15 16  1  0  0  0
 16 17  2  0  0  0
 16 36  1  0  0  0
 17 18  1  0  0  0
 17 22  1  0  0  0
 18 19  2  0  0  0
 18 37  1  0  0  0
 19 20  1  0  0  0
 19 38  1  0  0  0
 20 21  1  0  0  0
 23 24  2  0  0  0
 23 25  1  0  0  0
 25 39  1  0  0  0
 25 40  1  0  0  0
 26 27  1  0  0  0
 26 41  1  0  0  0
 26 42  1  0  0  0
 27 28  1  0  0  0
 27 43  1  0  0  0
 27 44  1  0  0  0
 28 29  1  0  0  0
 28 45  1  0  0  0
 28 46  1  0  0  0
 29 47  1  0  0  0
 29 48  1  0  0  0
M  CHG  1  11   1
M  END
> <i_i_glide_confnum>
3

> <i_i_glide_lignum>
5093

> <i_i_glide_posenum>
190

> <i_i_glide_rotatable_bonds>
5

> <i_m_Source_File_Index>
3719

> <b_m_subgroup_collapsed>
0

> <r_i_docking_score>
-5.22016

> <r_i_glide_ecoul>
-6.90723

> <r_i_glide_eff_state_penalty>
0

> <r_i_glide_einternal>
1.64541

> <r_i_glide_emodel>
-59.3225

> <r_i_glide_energy>
-44.195

> <r_i_glide_erotb>
0.267701

> <r_i_glide_esite>
-0.11301

> <r_i_glide_evdw>
-37.2877

> <r_i_glide_gscore>
-5.22016

> <r_i_glide_hbond>
-0.16

> <r_i_glide_ligand_efficiency>
-0.180006

> <r_i_glide_ligand_efficiency_ln>
-1.19528

> <r_i_glide_ligand_efficiency_sa>
-0.553034

> <r_i_glide_lipo>
-1.83663

> <r_i_glide_metal>
0

> <r_i_glide_rewards>
-0.477751

> <s_i_glide_gridfile>
wee1_glide-grid

> <s_m_Source_File>
wee1_decoys_glide_SP.sdf

> <s_m_Source_Path>
/Users/zhangxujun/Desktop

> <s_m_entry_id>
3994

> <s_m_entry_name>
wee1_decoys_glide_SP.3719

> <s_m_subgroup_title>
wee1_decoys_glide_SP

> <s_m_subgroupid>
wee1_decoys_glide_SP


$$$$
