@<TRIPOS>MOLECULE
ZINC20837404_2870
63   68    1
SMALL
USER_CHARGES


@<TRIPOS>ATOM
      1 C1         -1.1609   51.2009   26.8714 C.3       1 UNK         0.0000 
      2 C2          0.1772   51.8783   26.5185 C.2       1 UNK         0.0000 
      3 N3          0.7039   51.8658   25.3498 N.2       1 UNK         0.0000 
      4 N4          0.0505   51.2475   24.2744 N.pl3     1 UNK         0.0000 
      5 C5          0.7238   50.8098   23.1598 C.ar      1 UNK         0.0000 
      6 N6          0.6918   51.3117   21.9527 N.2       1 UNK         0.0000 
      7 C7          1.4909   50.4884   21.2757 C.ar      1 UNK         0.0000 
      8 N8          2.0064   49.4896   21.9645 N.2       1 UNK         0.0000 
      9 N9          1.5044   49.6970   23.1789 N.pl3     1 UNK         0.0000 
     10 S10         1.8967   50.6744   19.5646 S.3       1 UNK         0.0000 
     11 C11         0.9856   52.1750   19.0851 C.3       1 UNK         0.0000 
     12 C12        -0.4817   51.9226   18.6592 C.3       1 UNK         0.0000 
     13 C13        -1.2650   53.1171   18.0830 C.2       1 UNK         0.0000 
     14 O14        -2.4951   53.0929   18.1597 O.2       1 UNK         0.0000 
     15 N15        -0.5522   54.1393   17.5623 N.am      1 UNK         0.0000 
     16 C16        -1.0482   55.3277   17.0553 C.2       1 UNK         0.0000 
     17 N17        -2.2883   55.6040   16.7487 N.2       1 UNK         0.0000 
     18 C18        -2.3996   56.8574   16.2373 C.ar      1 UNK         0.0000 
     19 C19        -3.5951   57.4397   15.7876 C.ar      1 UNK         0.0000 
     20 C20        -3.5505   58.7414   15.2821 C.ar      1 UNK         0.0000 
     21 C21        -2.3556   59.4610   15.2388 C.ar      1 UNK         0.0000 
     22 C22        -1.1534   58.9042   15.6807 C.ar      1 UNK         0.0000 
     23 C23        -1.1868   57.5944   16.1747 C.ar      1 UNK         0.0000 
     24 S24         0.1220   56.5916   16.7782 S.3       1 UNK         0.0000 
     25 C25         0.9052   52.5784   27.7105 C.3       1 UNK         0.0000 
     26 C26         1.6282   51.4994   28.5728 C.3       1 UNK         0.0000 
     27 C27         2.3944   52.1539   29.7514 C.3       1 UNK         0.0000 
     28 C28         1.3702   52.8837   30.6535 C.3       1 UNK         0.0000 
     29 C29         0.6568   53.9973   29.8397 C.3       1 UNK         0.0000 
     30 C30        -0.0921   53.3437   28.6483 C.3       1 UNK         0.0000 
     31 C31         1.7025   55.0079   29.3009 C.3       1 UNK         0.0000 
     32 C32         2.7233   54.2686   28.4012 C.3       1 UNK         0.0000 
     33 C33         3.4390   53.1649   29.2187 C.3       1 UNK         0.0000 
     34 C34         1.9806   53.6076   27.2110 C.3       1 UNK         0.0000 
     35 H35        -1.0354   50.5005   27.6958 H         1 UNK         0.0000 
     36 H36        -1.9133   51.9327   27.1627 H         1 UNK         0.0000 
     37 H37        -1.5951   50.6198   26.0610 H         1 UNK         0.0000 
     38 H38        -0.8275   50.8227   24.5364 H         1 UNK         0.0000 
     39 H39         1.0354   52.8968   19.9030 H         1 UNK         0.0000 
     40 H40         1.5546   52.6147   18.2634 H         1 UNK         0.0000 
     41 H41        -0.4852   51.1282   17.9094 H         1 UNK         0.0000 
     42 H42        -1.0232   51.4600   19.4855 H         1 UNK         0.0000 
     43 H43         0.4511   54.0926   17.6408 H         1 UNK         0.0000 
     44 H44        -4.5266   56.8944   15.8299 H         1 UNK         0.0000 
     45 H45        -4.4581   59.2059   14.9239 H         1 UNK         0.0000 
     46 H46        -2.3584   60.4677   14.8459 H         1 UNK         0.0000 
     47 H47        -0.2271   59.4634   15.6446 H         1 UNK         0.0000 
     48 H48         2.3050   50.8973   27.9694 H         1 UNK         0.0000 
     49 H49         0.8912   50.8136   28.9825 H         1 UNK         0.0000 
     50 H50         2.9144   51.3894   30.3243 H         1 UNK         0.0000 
     51 H51         0.6367   52.1769   31.0496 H         1 UNK         0.0000 
     52 H52         1.8745   53.2948   31.5234 H         1 UNK         0.0000 
     53 H53        -0.0559   54.5164   30.4829 H         1 UNK         0.0000 
     54 H54        -0.8496   52.6726   29.0575 H         1 UNK         0.0000 
     55 H55        -0.6286   54.1007   28.0820 H         1 UNK         0.0000 
     56 H56         2.2155   55.5043   30.1257 H         1 UNK         0.0000 
     57 H57         1.2079   55.8019   28.7379 H         1 UNK         0.0000 
     58 H58         3.4604   54.9779   28.0247 H         1 UNK         0.0000 
     59 H59         4.1786   52.6541   28.5991 H         1 UNK         0.0000 
     60 H60         3.9943   53.6078   30.0469 H         1 UNK         0.0000 
     61 H61         1.5057   54.3734   26.5982 H         1 UNK         0.0000 
     62 H62         2.7161   53.1172   26.5658 H         1 UNK         0.0000 
     63 H63         1.7115   49.1110   23.9776 H         1 UNK         0.0000 
@<TRIPOS>BOND
     1    1    2 1    
     2    1   35 1    
     3    1   36 1    
     4    1   37 1    
     5    2    3 2    
     6    2   25 1    
     7    3    4 1    
     8    4    5 1    
     9    4   38 1    
    10    5    9 ar   
    11    5    6 ar   
    12    6    7 ar   
    13    7    8 ar   
    14    7   10 1    
    15    8    9 ar   
    16    9   63 1    
    17   10   11 1    
    18   11   12 1    
    19   11   39 1    
    20   11   40 1    
    21   12   13 1    
    22   12   41 1    
    23   12   42 1    
    24   13   14 2    
    25   13   15 am   BACKBONE|DICT|INTERRES
    26   15   16 am   BACKBONE|DICT|INTERRES
    27   15   43 1    
    28   16   24 1    
    29   16   17 2    
    30   17   18 1    
    31   18   23 ar   
    32   18   19 ar   
    33   19   20 ar   
    34   19   44 1    
    35   20   21 ar   
    36   20   45 1    
    37   21   22 ar   
    38   21   46 1    
    39   22   23 ar   
    40   22   47 1    
    41   23   24 1    
    42   25   30 1    
    43   25   34 1    
    44   25   26 1    
    45   26   27 1    
    46   26   48 1    
    47   26   49 1    
    48   27   33 1    
    49   27   28 1    
    50   27   50 1    
    51   28   29 1    
    52   28   51 1    
    53   28   52 1    
    54   29   30 1    
    55   29   31 1    
    56   29   53 1    
    57   30   54 1    
    58   30   55 1    
    59   31   32 1    
    60   31   56 1    
    61   31   57 1    
    62   32   33 1    
    63   32   34 1    
    64   32   58 1    
    65   33   59 1    
    66   33   60 1    
    67   34   61 1    
    68   34   62 1    
@<TRIPOS>SUBSTRUCTURE
     1 UNK         1 GROUP             0       ****    0 ROOT    
