ZINC43424693_6162
                    3D
 Schrodinger Suite 2024-2.
 36 38  0  0  1  0            999 V2000
    3.8300   54.1034   26.0360 C   0  0  0  0  0  0
    4.5653   54.4972   24.9160 C   0  0  0  0  0  0
    5.9404   54.6774   25.0504 C   0  0  0  0  0  0
    6.5910   54.4977   26.2224 N   0  0  0  0  0  0
    5.8598   54.0956   27.2947 C   0  0  0  0  0  0
    4.4714   53.8597   27.2613 C   0  0  0  0  0  0
    3.7791   53.4325   28.3975 N   0  0  0  0  0  0
    4.3830   52.4240   29.2866 C   0  0  0  0  0  0
    3.8693   52.4895   30.7369 C   0  0  0  0  0  0
    2.4492   52.4638   30.7664 O   0  0  0  0  0  0
    1.8718   53.5191   30.0005 C   0  0  1  0  0  0
    2.1965   54.4865   30.3877 H   0  0  0  0  0  0
    2.3006   53.3808   28.5056 C   0  0  2  0  0  0
    1.8929   54.2662   28.0159 H   0  0  0  0  0  0
    1.6653   52.1103   27.8658 C   0  0  0  0  0  0
    0.1361   52.0593   28.0418 C   0  0  0  0  0  0
   -0.2660   52.1837   29.5222 C   0  0  0  0  0  0
    0.3392   53.4417   30.1709 C   0  0  0  0  0  0
    6.7041   55.0538   23.9538 N   0  0  0  0  0  0
    2.7656   53.9675   25.9279 H   0  0  0  0  0  0
    4.0734   54.6576   23.9681 H   0  0  0  0  0  0
    6.4264   53.9921   28.2076 H   0  0  0  0  0  0
    4.1964   51.4333   28.8821 H   0  0  0  0  0  0
    5.4655   52.5145   29.3141 H   0  0  0  0  0  0
    4.2549   51.6508   31.3170 H   0  0  0  0  0  0
    4.2495   53.3962   31.2071 H   0  0  0  0  0  0
    1.9050   52.0536   26.8053 H   0  0  0  0  0  0
    2.0757   51.2080   28.3205 H   0  0  0  0  0  0
   -0.2545   51.1265   27.6314 H   0  0  0  0  0  0
   -0.3274   52.8613   27.4662 H   0  0  0  0  0  0
    0.0599   51.3013   30.0713 H   0  0  0  0  0  0
   -1.3503   52.1928   29.6125 H   0  0  0  0  0  0
    0.0677   53.5120   31.2261 H   0  0  0  0  0  0
   -0.1054   54.3097   29.6841 H   0  0  0  0  0  0
    6.2691   55.1182   23.0462 H   0  0  0  0  0  0
    7.7123   55.1001   24.0525 H   0  0  0  0  0  0
  1  6  2  0  0  0
  1  2  1  0  0  0
  1 20  1  0  0  0
  2  3  2  0  0  0
  2 21  1  0  0  0
  3  4  1  0  0  0
  3 19  1  0  0  0
  4  5  2  0  0  0
  5  6  1  0  0  0
  5 22  1  0  0  0
  6  7  1  0  0  0
  7 13  1  0  0  0
  7  8  1  0  0  0
  8  9  1  0  0  0
  8 23  1  0  0  0
  8 24  1  0  0  0
  9 10  1  0  0  0
  9 25  1  0  0  0
  9 26  1  0  0  0
 10 11  1  0  0  0
 11 12  1  0  0  0
 11 18  1  0  0  0
 11 13  1  0  0  0
 13 14  1  0  0  0
 13 15  1  0  0  0
 15 16  1  0  0  0
 15 27  1  0  0  0
 15 28  1  0  0  0
 16 17  1  0  0  0
 16 29  1  0  0  0
 16 30  1  0  0  0
 17 18  1  0  0  0
 17 31  1  0  0  0
 17 32  1  0  0  0
 18 33  1  0  0  0
 18 34  1  0  0  0
 19 35  1  0  0  0
 19 36  1  0  0  0
M  END
> <i_i_glide_confnum>
3

> <i_i_glide_lignum>
6163

> <i_i_glide_posenum>
56

> <i_i_glide_rotatable_bonds>
1

> <i_m_Source_File_Index>
3883

> <b_m_subgroup_collapsed>
0

> <r_i_docking_score>
-7.29169

> <r_i_glide_ecoul>
-3.60625

> <r_i_glide_eff_state_penalty>
0

> <r_i_glide_einternal>
0.103249

> <r_i_glide_emodel>
-51.8644

> <r_i_glide_energy>
-37.3467

> <r_i_glide_erotb>
0.220538

> <r_i_glide_esite>
0

> <r_i_glide_evdw>
-33.7404

> <r_i_glide_gscore>
-7.29169

> <r_i_glide_hbond>
-0.47625

> <r_i_glide_ligand_efficiency>
-0.428923

> <r_i_glide_ligand_efficiency_ln>
-1.90224

> <r_i_glide_ligand_efficiency_sa>
-1.10288

> <r_i_glide_lipo>
-2.17071

> <r_i_glide_metal>
0

> <r_i_glide_rewards>
-2.63731

> <s_i_glide_gridfile>
wee1_glide-grid

> <s_m_Source_File>
wee1_decoys_glide_SP.sdf

> <s_m_Source_Path>
/Users/zhangxujun/Desktop

> <s_m_entry_id>
4158

> <s_m_entry_name>
wee1_decoys_glide_SP.3883

> <s_m_subgroup_title>
wee1_decoys_glide_SP

> <s_m_subgroupid>
wee1_decoys_glide_SP


$$$$
