@<TRIPOS>MOLECULE
ZINC09101540_2797
52   56    1
SMALL
USER_CHARGES


@<TRIPOS>ATOM
      1 C1          5.3840   54.6588   28.3915 C.3       1 UNK         0.0000 
      2 O2          6.2497   54.8774   27.2805 O.3       1 UNK         0.0000 
      3 C3          5.7725   54.6360   26.0072 C.ar      1 UNK         0.0000 
      4 C4          4.4331   54.3531   25.7055 C.ar      1 UNK         0.0000 
      5 C5          4.0487   54.0960   24.3910 C.ar      1 UNK         0.0000 
      6 C6          5.0012   54.0973   23.3580 C.ar      1 UNK         0.0000 
      7 C7          6.3288   54.4125   23.6612 C.ar      1 UNK         0.0000 
      8 C8          6.7044   54.6805   24.9728 C.ar      1 UNK         0.0000 
      9 C9          4.6220   53.7807   21.9302 C.2       1 UNK         0.0000 
     10 O10         5.3000   54.2248   21.0008 O.2       1 UNK         0.0000 
     11 N11         3.5448   52.9806   21.7948 N.am      1 UNK         0.0000 
     12 C12         2.9357   52.5409   20.6319 C.2       1 UNK         0.0000 
     13 N13         1.8029   51.8933   20.6992 N.2       1 UNK         0.0000 
     14 C14         1.2824   51.6418   19.5105 C.2       1 UNK         0.0000 
     15 C15         2.0782   52.0354   18.4251 C.2       1 UNK         0.0000 
     16 S16         3.5039   52.8414   19.0133 S.3       1 UNK         0.0000 
     17 C17         1.7208   51.8749   16.9565 C.3       1 UNK         0.0000 
     18 C18         0.5337   50.8910   16.8310 C.3       1 UNK         0.0000 
     19 C19        -0.5720   51.1643   17.8708 C.3       1 UNK         0.0000 
     20 C20        -0.0722   50.9276   19.3282 C.3       1 UNK         0.0000 
     21 H21         0.0784   49.8561   19.4729 H         1 UNK         0.0000 
     22 C22        -1.1241   51.3433   20.3945 C.2       1 UNK         0.0000 
     23 O23        -2.0607   52.0962   20.1034 O.2       1 UNK         0.0000 
     24 N24        -0.9177   50.8281   21.6240 N.am      1 UNK         0.0000 
     25 C25        -1.6359   51.0815   22.7771 C.2       1 UNK         0.0000 
     26 N26        -2.4955   52.0468   22.9741 N.2       1 UNK         0.0000 
     27 C27        -2.9824   52.0082   24.2443 C.ar      1 UNK         0.0000 
     28 C28        -3.9295   52.9039   24.7616 C.ar      1 UNK         0.0000 
     29 C29        -4.3478   52.7316   26.0818 C.ar      1 UNK         0.0000 
     30 C30        -3.8293   51.7100   26.8782 C.ar      1 UNK         0.0000 
     31 C31        -2.8772   50.8140   26.3945 C.ar      1 UNK         0.0000 
     32 C32        -2.4607   50.9705   25.0654 C.ar      1 UNK         0.0000 
     33 S33        -1.3022   50.0336   24.1337 S.3       1 UNK         0.0000 
     34 H34         5.9049   54.8955   29.3170 H         1 UNK         0.0000 
     35 H35         5.0700   53.6150   28.4422 H         1 UNK         0.0000 
     36 H36         4.4994   55.2962   28.3536 H         1 UNK         0.0000 
     37 H37         3.6772   54.3223   26.4740 H         1 UNK         0.0000 
     38 H38         3.0067   53.8907   24.1990 H         1 UNK         0.0000 
     39 H39         7.0862   54.4432   22.8881 H         1 UNK         0.0000 
     40 H40         7.7375   54.8978   25.1876 H         1 UNK         0.0000 
     41 H41         3.0922   52.6959   22.6493 H         1 UNK         0.0000 
     42 H42         1.4358   52.8434   16.5414 H         1 UNK         0.0000 
     43 H43         2.5744   51.5108   16.3799 H         1 UNK         0.0000 
     44 H44         0.1216   50.9483   15.8234 H         1 UNK         0.0000 
     45 H45         0.8998   49.8679   16.9446 H         1 UNK         0.0000 
     46 H46        -0.9173   52.1927   17.7442 H         1 UNK         0.0000 
     47 H47        -1.4403   50.5352   17.6665 H         1 UNK         0.0000 
     48 H48        -0.1935   50.1323   21.7147 H         1 UNK         0.0000 
     49 H49        -4.3336   53.6968   24.1519 H         1 UNK         0.0000 
     50 H50        -5.0883   53.3977   26.4970 H         1 UNK         0.0000 
     51 H51        -4.1735   51.6084   27.8963 H         1 UNK         0.0000 
     52 H52        -2.4797   50.0260   27.0233 H         1 UNK         0.0000 
@<TRIPOS>BOND
     1    1    2 1    
     2    1   34 1    
     3    1   35 1    
     4    1   36 1    
     5    2    3 1    
     6    3    8 ar   
     7    3    4 ar   
     8    4    5 ar   
     9    4   37 1    
    10    5    6 ar   
    11    5   38 1    
    12    6    7 ar   
    13    6    9 1    
    14    7    8 ar   
    15    7   39 1    
    16    8   40 1    
    17    9   10 2    
    18    9   11 am   BACKBONE|DICT|INTERRES
    19   11   12 am   BACKBONE|DICT|INTERRES
    20   11   41 1    
    21   12   16 1    
    22   12   13 2    
    23   13   14 1    
    24   14   20 1    
    25   14   15 2    
    26   15   16 1    
    27   15   17 1    
    28   17   18 1    
    29   17   42 1    
    30   17   43 1    
    31   18   19 1    
    32   18   44 1    
    33   18   45 1    
    34   19   20 1    
    35   19   46 1    
    36   19   47 1    
    37   20   21 1    
    38   20   22 1    
    39   22   23 2    
    40   22   24 am   BACKBONE|DICT|INTERRES
    41   24   25 am   BACKBONE|DICT|INTERRES
    42   24   48 1    
    43   25   33 1    
    44   25   26 2    
    45   26   27 1    
    46   27   32 ar   
    47   27   28 ar   
    48   28   29 ar   
    49   28   49 1    
    50   29   30 ar   
    51   29   50 1    
    52   30   31 ar   
    53   30   51 1    
    54   31   32 ar   
    55   31   52 1    
    56   32   33 1    
@<TRIPOS>SUBSTRUCTURE
     1 UNK         1 GROUP             0       ****    0 ROOT    
