@<TRIPOS>MOLECULE
ZINC63375301_5470
64   70    1
SMALL
USER_CHARGES


@<TRIPOS>ATOM
      1 C1         -2.3148   51.5185   26.0360 C.ar      1 UNK         0.0000 
      2 C2         -1.1447   51.0215   26.6027 C.ar      1 UNK         0.0000 
      3 C3          0.0694   51.1781   25.9397 C.ar      1 UNK         0.0000 
      4 C4          0.1128   51.8412   24.7087 C.ar      1 UNK         0.0000 
      5 C5         -1.0711   52.3371   24.1444 C.ar      1 UNK         0.0000 
      6 C6         -2.2836   52.1764   24.8093 C.ar      1 UNK         0.0000 
      7 C7          1.4535   51.9774   23.9789 C.3       1 UNK         0.0000 
      8 H8          2.1792   51.2973   24.4229 H         1 UNK         0.0000 
      9 C9          1.9782   53.4359   24.1106 C.3       1 UNK         0.0000 
     10 H10         1.1903   54.1646   23.9088 H         1 UNK         0.0000 
     11 C11         3.1717   53.6556   23.2027 C.2       1 UNK         0.0000 
     12 C12         4.2101   54.0938   23.9340 C.2       1 UNK         0.0000 
     13 C13         5.5968   54.4126   23.5703 C.2       1 UNK         0.0000 
     14 C14         6.4834   54.7900   24.5147 C.2       1 UNK         0.0000 
     15 C15         6.0252   54.8571   25.8971 C.2       1 UNK         0.0000 
     16 C16         4.7504   54.5442   26.2498 C.2       1 UNK         0.0000 
     17 C17         3.8235   54.1491   25.2773 C.2       1 UNK         0.0000 
     18 N18         2.5697   53.7750   25.4194 N.pl3     1 UNK         0.0000 
     19 C19         3.0234   53.2360   21.7448 C.3       1 UNK         0.0000 
     20 C20         1.6386   52.5610   21.4985 C.3       1 UNK         0.0000 
     21 H21         0.8385   53.2970   21.4373 H         1 UNK         0.0000 
     22 N22         1.3457   51.6098   22.5470 N.am      1 UNK         0.0000 
     23 C23         1.2462   50.3450   22.0951 C.2       1 UNK         0.0000 
     24 O24         1.1229   49.3279   22.7792 O.2       1 UNK         0.0000 
     25 N25         1.2880   50.4276   20.7358 N.am      1 UNK         0.0000 
     26 C26         1.5301   51.6803   20.2818 C.2       1 UNK         0.0000 
     27 O27         1.6482   52.0688   19.1192 O.2       1 UNK         0.0000 
     28 C28         1.0252   49.3256   19.8841 C.ar      1 UNK         0.0000 
     29 C29         2.0846   48.8287   19.1131 C.ar      1 UNK         0.0000 
     30 C30         1.9043   47.7299   18.2798 C.ar      1 UNK         0.0000 
     31 C31         0.6632   47.1076   18.2016 C.ar      1 UNK         0.0000 
     32 C32        -0.4050   47.5945   18.9529 C.ar      1 UNK         0.0000 
     33 C33        -0.2501   48.7043   19.8011 C.ar      1 UNK         0.0000 
     34 C34        -1.4519   49.2092   20.5711 C.2       1 UNK         0.0000 
     35 O35        -1.7203   50.4120   20.6163 O.2       1 UNK         0.0000 
     36 N36        -2.1546   48.2631   21.2177 N.am      1 UNK         0.0000 
     37 C37        -3.2371   48.5162   22.1721 C.3       1 UNK         0.0000 
     38 C38        -2.8660   47.9865   23.5425 C.2       1 UNK         0.0000 
     39 C39        -3.4734   47.1161   24.4399 C.2       1 UNK         0.0000 
     40 C40        -2.6372   47.0331   25.5540 C.2       1 UNK         0.0000 
     41 C41        -1.5468   47.8398   25.2817 C.2       1 UNK         0.0000 
     42 O42        -1.6861   48.4218   24.0636 O.3       1 UNK         0.0000 
     43 H43        -3.2544   51.3809   26.5494 H         1 UNK         0.0000 
     44 H44        -1.1839   50.4972   27.5489 H         1 UNK         0.0000 
     45 H45         0.9652   50.7697   26.3814 H         1 UNK         0.0000 
     46 H46        -1.0538   52.8381   23.1858 H         1 UNK         0.0000 
     47 H47        -3.1964   52.5502   24.3698 H         1 UNK         0.0000 
     48 H48         5.9356   54.3607   22.5466 H         1 UNK         0.0000 
     49 H49         7.5042   55.0277   24.2495 H         1 UNK         0.0000 
     50 H50         6.7190   55.1500   26.6734 H         1 UNK         0.0000 
     51 H51         4.4723   54.6026   27.2934 H         1 UNK         0.0000 
     52 H52         3.1240   54.0954   21.0823 H         1 UNK         0.0000 
     53 H53         3.8367   52.5627   21.4704 H         1 UNK         0.0000 
     54 H54         3.0619   49.2984   19.1419 H         1 UNK         0.0000 
     55 H55         2.7342   47.3770   17.6834 H         1 UNK         0.0000 
     56 H56         0.5260   46.2592   17.5488 H         1 UNK         0.0000 
     57 H57        -1.3644   47.1046   18.8540 H         1 UNK         0.0000 
     58 H58        -1.8224   47.3138   21.1606 H         1 UNK         0.0000 
     59 H59        -3.4830   49.5772   22.2492 H         1 UNK         0.0000 
     60 H60        -4.1406   48.0253   21.8094 H         1 UNK         0.0000 
     61 H61        -4.4238   46.6209   24.3081 H         1 UNK         0.0000 
     62 H62        -2.7981   46.4732   26.4634 H         1 UNK         0.0000 
     63 H63        -0.6599   48.0959   25.8452 H         1 UNK         0.0000 
     64 H64         2.0649   53.7192   26.2985 H         1 UNK         0.0000 
@<TRIPOS>BOND
     1    1    6 ar   
     2    1    2 ar   
     3    1   43 1    
     4    2    3 ar   
     5    2   44 1    
     6    3    4 ar   
     7    3   45 1    
     8    4    5 ar   
     9    4    7 1    
    10    5    6 ar   
    11    5   46 1    
    12    6   47 1    
    13    7    8 1    
    14    7   22 1    
    15    7    9 1    
    16    9   10 1    
    17    9   18 1    
    18    9   11 1    
    19   11   12 2    
    20   11   19 1    
    21   12   17 1    
    22   12   13 1    
    23   13   14 2    
    24   13   48 1    
    25   14   15 1    
    26   14   49 1    
    27   15   16 2    
    28   15   50 1    
    29   16   17 1    
    30   16   51 1    
    31   17   18 2    
    32   18   64 1    
    33   19   20 1    
    34   19   52 1    
    35   19   53 1    
    36   20   21 1    
    37   20   26 1    
    38   20   22 1    
    39   22   23 am   BACKBONE|DICT|INTERRES
    40   23   24 2    
    41   23   25 am   BACKBONE|DICT|INTERRES
    42   25   26 am   BACKBONE|DICT|INTERRES
    43   25   28 1    
    44   26   27 2    
    45   28   33 ar   
    46   28   29 ar   
    47   29   30 ar   
    48   29   54 1    
    49   30   31 ar   
    50   30   55 1    
    51   31   32 ar   
    52   31   56 1    
    53   32   33 ar   
    54   32   57 1    
    55   33   34 1    
    56   34   35 2    
    57   34   36 am   BACKBONE|DICT|INTERRES
    58   36   37 1    
    59   36   58 1    
    60   37   38 1    
    61   37   59 1    
    62   37   60 1    
    63   38   42 1    
    64   38   39 2    
    65   39   40 1    
    66   39   61 1    
    67   40   41 2    
    68   40   62 1    
    69   41   42 1    
    70   41   63 1    
@<TRIPOS>SUBSTRUCTURE
     1 UNK         1 GROUP             0       ****    0 ROOT    
