@<TRIPOS>MOLECULE
ZINC04184987_1723
30   31    1
SMALL
USER_CHARGES


@<TRIPOS>ATOM
      1 C1          6.3359   54.6342   26.3682 C.3       1 UNK         0.0000 
      2 C2          5.2103   53.8229   27.0331 C.3       1 UNK         0.0000 
      3 H3          5.5200   52.7761   27.0369 H         1 UNK         0.0000 
      4 C4          4.9539   54.2728   28.4812 C.3       1 UNK         0.0000 
      5 C5          4.0111   53.2773   29.1695 C.3       1 UNK         0.0000 
      6 C6          2.7355   53.0513   28.3579 C.ar      1 UNK         0.0000 
      7 C7          2.6954   53.2873   26.9597 C.ar      1 UNK         0.0000 
      8 C8          1.5052   52.8966   26.3012 C.ar      1 UNK         0.0000 
      9 N9          0.4471   52.3648   26.9737 N.ar      1 UNK         0.0000 
     10 C10         0.5559   52.2659   28.3205 C.ar      1 UNK         0.0000 
     11 N11         1.6496   52.5995   29.0406 N.ar      1 UNK         0.0000 
     12 N12        -0.5379   51.7996   29.0596 N.pl3     1 UNK         0.0000 
     13 N13        -1.7693   51.2968   28.4719 N.3       1 UNK         0.0000 
     14 C14         1.2987   53.0369   24.7818 C.3       1 UNK         0.0000 
     15 F15         1.8012   54.1795   24.3153 F         1 UNK         0.0000 
     16 F16         0.0079   53.0100   24.4368 F         1 UNK         0.0000 
     17 F17         1.9045   52.0289   24.1581 F         1 UNK         0.0000 
     18 C18         3.8891   53.9401   26.2403 C.3       1 UNK         0.0000 
     19 H19         6.0954   55.6960   26.3220 H         1 UNK         0.0000 
     20 H20         7.2710   54.5283   26.9203 H         1 UNK         0.0000 
     21 H21         6.5198   54.2908   25.3493 H         1 UNK         0.0000 
     22 H22         4.5797   55.2949   28.5156 H         1 UNK         0.0000 
     23 H23         5.8985   54.3064   29.0266 H         1 UNK         0.0000 
     24 H24         3.7797   53.6065   30.1826 H         1 UNK         0.0000 
     25 H25         4.5217   52.3180   29.2689 H         1 UNK         0.0000 
     26 H26        -0.5581   51.8082   30.0728 H         1 UNK         0.0000 
     27 H27        -2.1124   51.9548   27.7864 H         1 UNK         0.0000 
     28 H28        -1.6115   50.3663   28.0820 H         1 UNK         0.0000 
     29 H29         4.0287   53.4942   25.2547 H         1 UNK         0.0000 
     30 H30         3.6575   54.9930   26.0705 H         1 UNK         0.0000 
@<TRIPOS>BOND
     1    1    2 1    
     2    1   19 1    
     3    1   20 1    
     4    1   21 1    
     5    2    3 1    
     6    2   18 1    
     7    2    4 1    
     8    4    5 1    
     9    4   22 1    
    10    4   23 1    
    11    5    6 1    
    12    5   24 1    
    13    5   25 1    
    14    6   11 ar   
    15    6    7 ar   
    16    7    8 ar   
    17    7   18 1    
    18    8    9 ar   
    19    8   14 1    
    20    9   10 ar   
    21   10   11 ar   
    22   10   12 1    
    23   12   13 1    
    24   12   26 1    
    25   13   27 1    
    26   13   28 1    
    27   14   15 1    
    28   14   16 1    
    29   14   17 1    
    30   18   29 1    
    31   18   30 1    
@<TRIPOS>SUBSTRUCTURE
     1 UNK         1 GROUP             0       ****    0 ROOT    
