ZINC02543751_2944
                    3D
 Schrodinger Suite 2024-2.
 51 53  0  0  1  0            999 V2000
    3.3266   51.6966   15.4697 C   0  0  0  0  0  0
    4.1878   52.9443   15.4308 C   0  0  0  0  0  0
    4.2449   53.7049   14.2616 C   0  0  0  0  0  0
    5.0290   54.8549   14.2117 C   0  0  0  0  0  0
    5.7435   55.2596   15.3379 C   0  0  0  0  0  0
    5.6791   54.5236   16.5248 C   0  0  0  0  0  0
    4.9138   53.3438   16.5574 C   0  0  0  0  0  0
    6.4168   55.0438   17.6066 N   0  0  0  0  0  0
    6.3308   54.8781   18.9583 C   0  0  0  0  0  0
    7.5031   55.6968   19.8216 S   0  0  0  0  0  0
    5.2596   54.1415   19.4194 N   0  0  0  0  0  0
    4.6195   54.0474   20.6390 N   0  0  0  0  0  0
    5.2293   54.1258   21.7577 C   0  0  0  0  0  0
    4.5482   54.0950   23.0536 C   0  0  0  0  0  0
    3.1740   53.8420   23.1690 C   0  0  0  0  0  0
    2.5567   53.8182   24.4170 C   0  0  0  0  0  0
    3.3013   54.0459   25.5825 C   0  0  0  0  0  0
    4.6729   54.3224   25.4740 C   0  0  0  0  0  0
    5.2846   54.3356   24.2202 C   0  0  0  0  0  0
    5.4342   54.6297   26.5765 O   0  0  0  0  0  0
    5.8333   53.5114   27.3578 C   0  0  0  0  0  0
    2.7143   54.1107   26.8292 O   0  0  0  0  0  0
    1.8260   53.1829   27.3022 C   0  0  0  0  0  0
    1.5040   52.1490   26.7134 O   0  0  0  0  0  0
    1.3072   53.5523   28.6560 C   0  0  0  0  0  0
    0.5493   52.6362   29.4021 C   0  0  0  0  0  0
    0.0646   52.9820   30.6652 C   0  0  0  0  0  0
    0.3092   54.2519   31.1879 C   0  0  0  0  0  0
    1.0744   55.1660   30.4580 C   0  0  0  0  0  0
    1.5595   54.8194   29.2039 C   0  0  0  0  0  0
    1.5044   56.8905   31.1350 Br  0  0  0  0  0  0
    3.7626   50.9180   14.8432 H   0  0  0  0  0  0
    3.2046   51.2970   16.4781 H   0  0  0  0  0  0
    2.3317   51.9126   15.0810 H   0  0  0  0  0  0
    3.6863   53.4017   13.3881 H   0  0  0  0  0  0
    5.0777   55.4373   13.3036 H   0  0  0  0  0  0
    6.3350   56.1625   15.2839 H   0  0  0  0  0  0
    4.8848   52.7048   17.4274 H   0  0  0  0  0  0
    7.1433   55.6816   17.3157 H   0  0  0  0  0  0
    4.6413   53.8386   18.6810 H   0  0  0  0  0  0
    6.3065   54.2044   21.8359 H   0  0  0  0  0  0
    2.5713   53.6667   22.2880 H   0  0  0  0  0  0
    1.4938   53.6355   24.4755 H   0  0  0  0  0  0
    6.3428   54.5531   24.1661 H   0  0  0  0  0  0
    6.3225   53.8618   28.2667 H   0  0  0  0  0  0
    4.9913   52.8847   27.6563 H   0  0  0  0  0  0
    6.5510   52.8967   26.8149 H   0  0  0  0  0  0
    0.3376   51.6473   29.0157 H   0  0  0  0  0  0
   -0.4978   52.2646   31.2489 H   0  0  0  0  0  0
   -0.0629   54.5032   32.1700 H   0  0  0  0  0  0
    2.1384   55.5597   28.6697 H   0  0  0  0  0  0
  1  2  1  0  0  0
  1 32  1  0  0  0
  1 33  1  0  0  0
  1 34  1  0  0  0
  2  7  2  0  0  0
  2  3  1  0  0  0
  3  4  2  0  0  0
  3 35  1  0  0  0
  4  5  1  0  0  0
  4 36  1  0  0  0
  5  6  2  0  0  0
  5 37  1  0  0  0
  6  7  1  0  0  0
  6  8  1  0  0  0
  7 38  1  0  0  0
  8  9  1  0  0  0
  8 39  1  0  0  0
  9 10  2  0  0  0
  9 11  1  0  0  0
 11 12  1  0  0  0
 11 40  1  0  0  0
 12 13  2  0  0  0
 13 14  1  0  0  0
 13 41  1  0  0  0
 14 19  2  0  0  0
 14 15  1  0  0  0
 15 16  2  0  0  0
 15 42  1  0  0  0
 16 17  1  0  0  0
 16 43  1  0  0  0
 17 18  2  0  0  0
 17 22  1  0  0  0
 18 19  1  0  0  0
 18 20  1  0  0  0
 19 44  1  0  0  0
 20 21  1  0  0  0
 21 45  1  0  0  0
 21 46  1  0  0  0
 21 47  1  0  0  0
 22 23  1  0  0  0
 23 24  2  0  0  0
 23 25  1  0  0  0
 25 30  2  0  0  0
 25 26  1  0  0  0
 26 27  2  0  0  0
 26 48  1  0  0  0
 27 28  1  0  0  0
 27 49  1  0  0  0
 28 29  2  0  0  0
 28 50  1  0  0  0
 29 30  1  0  0  0
 29 31  1  0  0  0
 30 51  1  0  0  0
M  END
> <i_i_glide_confnum>
243

> <i_i_glide_lignum>
2945

> <i_i_glide_posenum>
320

> <i_i_glide_rotatable_bonds>
9

> <i_m_Source_File_Index>
682

> <b_m_subgroup_collapsed>
0

> <r_i_docking_score>
-5.81906

> <r_i_glide_ecoul>
-2.99097

> <r_i_glide_eff_state_penalty>
0

> <r_i_glide_einternal>
18.9011

> <r_i_glide_emodel>
-54.8318

> <r_i_glide_energy>
-48.2577

> <r_i_glide_erotb>
0.6572

> <r_i_glide_esite>
-0.00909966

> <r_i_glide_evdw>
-45.2667

> <r_i_glide_gscore>
-5.81906

> <r_i_glide_hbond>
0

> <r_i_glide_ligand_efficiency>
-0.187712

> <r_i_glide_ligand_efficiency_ln>
-1.31238

> <r_i_glide_ligand_efficiency_sa>
-0.589674

> <r_i_glide_lipo>
-3.04412

> <r_i_glide_metal>
0

> <r_i_glide_rewards>
-0.711059

> <s_i_glide_gridfile>
wee1_glide-grid

> <s_m_Source_File>
wee1_decoys_glide_SP.sdf

> <s_m_Source_Path>
/Users/zhangxujun/Desktop

> <s_m_entry_id>
957

> <s_m_entry_name>
wee1_decoys_glide_SP.682

> <s_m_subgroup_title>
wee1_decoys_glide_SP

> <s_m_subgroupid>
wee1_decoys_glide_SP


$$$$
