@<TRIPOS>MOLECULE
ZINC18261732_75
55   59    1
SMALL
USER_CHARGES


@<TRIPOS>ATOM
      1 C1          1.3140   46.2765   15.7909 C.3       1 UNK         0.0000 
      2 C2          0.9235   46.8275   17.1500 C.ar      1 UNK         0.0000 
      3 C3          1.9042   47.2972   18.0187 C.ar      1 UNK         0.0000 
      4 C4          1.5447   47.8126   19.2591 C.ar      1 UNK         0.0000 
      5 C5          0.1975   47.9016   19.6521 C.ar      1 UNK         0.0000 
      6 C6         -0.7790   47.4306   18.7524 C.ar      1 UNK         0.0000 
      7 C7         -0.4185   46.8959   17.5174 C.ar      1 UNK         0.0000 
      8 N8         -0.1271   48.4982   20.9174 N.am      1 UNK         0.0000 
      9 C9          0.8407   49.3135   21.6917 C.3       1 UNK         0.0000 
     10 H10         1.6870   48.6562   21.8959 H         1 UNK         0.0000 
     11 C11         0.1727   49.6376   23.0402 C.3       1 UNK         0.0000 
     12 H12         0.6476   49.0366   23.8185 H         1 UNK         0.0000 
     13 C13        -1.2583   49.1590   22.8750 C.3       1 UNK         0.0000 
     14 C14        -1.3230   48.3698   21.5723 C.2       1 UNK         0.0000 
     15 O15        -2.3212   47.7291   21.2447 O.2       1 UNK         0.0000 
     16 C16         0.2893   51.1086   23.5131 C.2       1 UNK         0.0000 
     17 O17        -0.5979   51.9477   23.3351 O.2       1 UNK         0.0000 
     18 O18         1.4680   51.3307   24.1314 O.3       1 UNK         0.0000 
     19 C19         1.7927   52.5932   24.7188 C.3       1 UNK         0.0000 
     20 C20         1.3357   52.7468   26.1737 C.ar      1 UNK         0.0000 
     21 N21         1.9057   53.7847   26.8357 N.ar      1 UNK         0.0000 
     22 C22         1.4625   54.0347   28.1004 C.ar      1 UNK         0.0000 
     23 C23         1.9725   55.1559   28.7972 C.ar      1 UNK         0.0000 
     24 C24         1.5190   55.4481   30.0813 C.ar      1 UNK         0.0000 
     25 C25         0.5959   54.6205   30.7124 C.ar      1 UNK         0.0000 
     26 C26         0.0725   53.5095   30.0571 C.ar      1 UNK         0.0000 
     27 C27         0.4752   53.2129   28.7264 C.ar      1 UNK         0.0000 
     28 C28        -0.0328   52.1475   27.9292 C.ar      1 UNK         0.0000 
     29 N29         0.3878   51.9072   26.6650 N.ar      1 UNK         0.0000 
     30 N30        -1.0289   51.2969   28.3992 N.pl3     1 UNK         0.0000 
     31 C31         1.4384   50.4660   20.8870 C.2       1 UNK         0.0000 
     32 C32         0.8341   51.3212   19.9637 C.2       1 UNK         0.0000 
     33 C33         1.7079   52.2386   19.3776 C.2       1 UNK         0.0000 
     34 C34         2.9932   52.1341   19.8741 C.2       1 UNK         0.0000 
     35 S35         3.1110   50.9064   21.0831 S.3       1 UNK         0.0000 
     36 H36         0.5979   46.5924   15.0305 H         1 UNK         0.0000 
     37 H37         1.3353   45.1856   15.8090 H         1 UNK         0.0000 
     38 H38         2.2911   46.6477   15.4751 H         1 UNK         0.0000 
     39 H39         2.9475   47.2734   17.7351 H         1 UNK         0.0000 
     40 H40         2.3484   48.1528   19.8931 H         1 UNK         0.0000 
     41 H41        -1.8331   47.4956   18.9646 H         1 UNK         0.0000 
     42 H42        -1.1876   46.5525   16.8409 H         1 UNK         0.0000 
     43 H43        -2.0027   49.9552   22.8212 H         1 UNK         0.0000 
     44 H44        -1.5463   48.5053   23.6995 H         1 UNK         0.0000 
     45 H45         2.8790   52.6776   24.7013 H         1 UNK         0.0000 
     46 H46         1.3932   53.4160   24.1233 H         1 UNK         0.0000 
     47 H47         2.7043   55.7893   28.3186 H         1 UNK         0.0000 
     48 H48         1.9032   56.3126   30.6047 H         1 UNK         0.0000 
     49 H49         0.2768   54.8474   31.7197 H         1 UNK         0.0000 
     50 H50        -0.6509   52.8824   30.5591 H         1 UNK         0.0000 
     51 H51        -1.2701   51.3215   29.3790 H         1 UNK         0.0000 
     52 H52        -1.2382   50.4505   27.8755 H         1 UNK         0.0000 
     53 H53        -0.2105   51.2523   19.6965 H         1 UNK         0.0000 
     54 H54         1.4145   52.9544   18.6235 H         1 UNK         0.0000 
     55 H55         3.8625   52.7085   19.5894 H         1 UNK         0.0000 
@<TRIPOS>BOND
     1    1    2 1    
     2    1   36 1    
     3    1   37 1    
     4    1   38 1    
     5    2    7 ar   
     6    2    3 ar   
     7    3    4 ar   
     8    3   39 1    
     9    4    5 ar   
    10    4   40 1    
    11    5    6 ar   
    12    5    8 1    
    13    6    7 ar   
    14    6   41 1    
    15    7   42 1    
    16    8   14 am   BACKBONE|DICT|INTERRES
    17    8    9 1    
    18    9   10 1    
    19    9   11 1    
    20    9   31 1    
    21   11   12 1    
    22   11   13 1    
    23   11   16 1    
    24   13   14 1    
    25   13   43 1    
    26   13   44 1    
    27   14   15 2    
    28   16   17 2    
    29   16   18 1    
    30   18   19 1    
    31   19   20 1    
    32   19   45 1    
    33   19   46 1    
    34   20   29 ar   
    35   20   21 ar   
    36   21   22 ar   
    37   22   27 ar   
    38   22   23 ar   
    39   23   24 ar   
    40   23   47 1    
    41   24   25 ar   
    42   24   48 1    
    43   25   26 ar   
    44   25   49 1    
    45   26   27 ar   
    46   26   50 1    
    47   27   28 ar   
    48   28   29 ar   
    49   28   30 1    
    50   30   51 1    
    51   30   52 1    
    52   31   35 1    
    53   31   32 2    
    54   32   33 1    
    55   32   53 1    
    56   33   34 2    
    57   33   54 1    
    58   34   35 1    
    59   34   55 1    
@<TRIPOS>SUBSTRUCTURE
     1 UNK         1 GROUP             0       ****    0 ROOT    
