ZINC34681347_166
                    3D
 Schrodinger Suite 2024-2.
 60 63  0  0  1  0            999 V2000
    3.8372   52.2098   31.0301 C   0  0  0  0  0  0
    2.6748   52.8688   30.2975 C   0  0  0  0  0  0
    1.3770   52.4962   30.6659 C   0  0  0  0  0  0
    0.2708   53.0378   30.0176 C   0  0  0  0  0  0
    0.4522   53.9753   29.0064 C   0  0  0  0  0  0
    1.7367   54.3862   28.6560 C   0  0  0  0  0  0
    2.8628   53.8339   29.2821 C   0  0  0  0  0  0
    4.2423   54.2944   28.8564 C   0  0  0  0  0  0
    4.9254   54.8963   29.6807 O   0  0  0  0  0  0
    4.6826   54.0311   27.5914 N   0  0  0  0  0  0
    6.0217   54.5281   27.1977 C   0  0  0  0  0  0
    6.4697   54.3509   25.7259 C   0  0  0  0  0  0
    5.6129   55.0831   24.6764 C   0  0  0  0  0  0
    4.3257   54.4214   24.3683 N   0  0  0  0  0  0
    3.3432   54.2531   25.4609 C   0  0  0  0  0  0
    3.8380   53.3492   26.6017 C   0  0  0  0  0  0
    4.0710   53.7747   23.0874 C   0  0  0  0  0  0
    5.0247   53.6535   22.0583 C   0  0  0  0  0  0
    4.7038   52.9914   20.8642 C   0  0  0  0  0  0
    3.4258   52.4541   20.6763 C   0  0  0  0  0  0
    2.4946   52.5928   21.7156 C   0  0  0  0  0  0
    2.8512   53.2334   22.8456 N   0  3  0  0  0  0
    3.1604   51.7921   19.4600 N   0  0  0  0  0  0
    1.9620   51.4834   18.9248 C   0  0  0  0  0  0
    0.8701   51.7168   19.4501 O   0  0  0  0  0  0
    2.1118   50.8983   17.7217 N   0  0  0  0  0  0
    1.0657   50.5003   16.8750 C   0  0  0  0  0  0
    1.1042   49.1941   16.3734 C   0  0  0  0  0  0
    0.1188   48.7543   15.4915 C   0  0  0  0  0  0
   -0.8996   49.6176   15.0935 C   0  0  0  0  0  0
   -0.9290   50.9284   15.5679 C   0  0  0  0  0  0
    0.0540   51.3786   16.4474 C   0  0  0  0  0  0
    0.0220   52.6712   16.8532 F   0  0  0  0  0  0
   -1.8508   49.1882   14.2360 F   0  0  0  0  0  0
    4.3046   52.9370   31.6887 H   0  0  0  0  0  0
    3.5228   51.3610   31.6418 H   0  0  0  0  0  0
    4.5901   51.8491   30.3280 H   0  0  0  0  0  0
    1.2113   51.7791   31.4601 H   0  0  0  0  0  0
   -0.7223   52.7257   30.3050 H   0  0  0  0  0  0
   -0.4039   54.3902   28.4937 H   0  0  0  0  0  0
    1.8459   55.1343   27.8839 H   0  0  0  0  0  0
    6.0451   55.5969   27.4204 H   0  0  0  0  0  0
    6.7663   54.0713   27.8503 H   0  0  0  0  0  0
    7.4865   54.7434   25.6474 H   0  0  0  0  0  0
    6.5667   53.2974   25.4735 H   0  0  0  0  0  0
    5.3770   56.0930   25.0159 H   0  0  0  0  0  0
    6.1882   55.2231   23.7645 H   0  0  0  0  0  0
    2.3784   53.8961   25.1062 H   0  0  0  0  0  0
    3.1199   55.2492   25.8402 H   0  0  0  0  0  0
    4.4419   52.5521   26.1804 H   0  0  0  0  0  0
    3.0014   52.8092   27.0437 H   0  0  0  0  0  0
    6.0242   54.0432   22.1528 H   0  0  0  0  0  0
    5.4476   52.9035   20.0860 H   0  0  0  0  0  0
    1.4832   52.2135   21.7003 H   0  0  0  0  0  0
    3.9712   51.5591   18.8931 H   0  0  0  0  0  0
    3.0275   50.5305   17.4803 H   0  0  0  0  0  0
    1.9046   48.5259   16.6604 H   0  0  0  0  0  0
    0.1456   47.7433   15.1107 H   0  0  0  0  0  0
   -1.7078   51.5993   15.2378 H   0  0  0  0  0  0
    2.1531   53.3144   23.5700 H   0  0  0  0  0  0
  1  2  1  0  0  0
  1 35  1  0  0  0
  1 36  1  0  0  0
  1 37  1  0  0  0
  2  7  2  0  0  0
  2  3  1  0  0  0
  3  4  2  0  0  0
  3 38  1  0  0  0
  4  5  1  0  0  0
  4 39  1  0  0  0
  5  6  2  0  0  0
  5 40  1  0  0  0
  6  7  1  0  0  0
  6 41  1  0  0  0
  7  8  1  0  0  0
  8  9  2  0  0  0
  8 10  1  0  0  0
 10 16  1  0  0  0
 10 11  1  0  0  0
 11 12  1  0  0  0
 11 42  1  0  0  0
 11 43  1  0  0  0
 12 13  1  0  0  0
 12 44  1  0  0  0
 12 45  1  0  0  0
 13 14  1  0  0  0
 13 46  1  0  0  0
 13 47  1  0  0  0
 14 15  1  0  0  0
 14 17  1  0  0  0
 15 16  1  0  0  0
 15 48  1  0  0  0
 15 49  1  0  0  0
 16 50  1  0  0  0
 16 51  1  0  0  0
 17 22  2  0  0  0
 17 18  1  0  0  0
 18 19  2  0  0  0
 18 52  1  0  0  0
 19 20  1  0  0  0
 19 53  1  0  0  0
 20 21  2  0  0  0
 20 23  1  0  0  0
 21 22  1  0  0  0
 21 54  1  0  0  0
 22 60  1  0  0  0
 23 24  1  0  0  0
 23 55  1  0  0  0
 24 25  2  0  0  0
 24 26  1  0  0  0
 26 27  1  0  0  0
 26 56  1  0  0  0
 27 32  2  0  0  0
 27 28  1  0  0  0
 28 29  2  0  0  0
 28 57  1  0  0  0
 29 30  1  0  0  0
 29 58  1  0  0  0
 30 31  2  0  0  0
 30 34  1  0  0  0
 31 32  1  0  0  0
 31 59  1  0  0  0
 32 33  1  0  0  0
M  CHG  1  22   1
M  END
> <i_i_glide_confnum>
506

> <i_i_glide_lignum>
167

> <i_i_glide_posenum>
60

> <i_i_glide_rotatable_bonds>
7

> <i_m_Source_File_Index>
2038

> <b_m_subgroup_collapsed>
0

> <r_i_docking_score>
-6.51761

> <r_i_glide_ecoul>
-3.90693

> <r_i_glide_eff_state_penalty>
0

> <r_i_glide_einternal>
3.24049

> <r_i_glide_emodel>
-62.0919

> <r_i_glide_energy>
-43.6711

> <r_i_glide_erotb>
0.556238

> <r_i_glide_esite>
-0.216051

> <r_i_glide_evdw>
-39.7641

> <r_i_glide_gscore>
-6.51761

> <r_i_glide_hbond>
-0.305977

> <r_i_glide_ligand_efficiency>
-0.191694

> <r_i_glide_ligand_efficiency_ln>
-1.43992

> <r_i_glide_ligand_efficiency_sa>
-0.621016

> <r_i_glide_lipo>
-2.62033

> <r_i_glide_metal>
0

> <r_i_glide_rewards>
-1.35725

> <s_i_glide_gridfile>
wee1_glide-grid

> <s_m_Source_File>
wee1_decoys_glide_SP.sdf

> <s_m_Source_Path>
/Users/zhangxujun/Desktop

> <s_m_entry_id>
2313

> <s_m_entry_name>
wee1_decoys_glide_SP.2038

> <s_m_subgroup_title>
wee1_decoys_glide_SP

> <s_m_subgroupid>
wee1_decoys_glide_SP


$$$$
