@<TRIPOS>MOLECULE
ZINC39686754_1297
72   75    1
SMALL
USER_CHARGES


@<TRIPOS>ATOM
      1 C1          2.2149   53.6032   26.4960 C.3       1 UNK         0.0000 
      2 C2          3.6276   53.6263   27.0698 C.ar      1 UNK         0.0000 
      3 C3          3.8178   52.9518   28.2763 C.ar      1 UNK         0.0000 
      4 C4          5.0727   52.8967   28.8689 C.ar      1 UNK         0.0000 
      5 C5          6.1540   53.5529   28.2872 C.ar      1 UNK         0.0000 
      6 C6          5.9802   54.2344   27.0888 C.ar      1 UNK         0.0000 
      7 C7          4.7279   54.2738   26.4604 C.ar      1 UNK         0.0000 
      8 C8          4.6249   55.0424   25.1478 C.3       1 UNK         0.0000 
      9 C9          5.2699   54.3300   23.9393 C.2       1 UNK         0.0000 
     10 O10         6.4900   54.4094   23.7955 O.2       1 UNK         0.0000 
     11 N11         4.4766   53.6966   23.0401 N.am      1 UNK         0.0000 
     12 C12         3.0841   53.3566   23.2822 C.3       1 UNK         0.0000 
     13 C13         2.5619   53.0330   21.8923 C.3       1 UNK         0.0000 
     14 H14         2.2731   54.0012   21.5043 H         1 UNK         0.0000 
     15 C15         3.7569   52.4936   21.0477 C.3       1 UNK         0.0000 
     16 C16         4.9943   53.0312   21.8328 C.3       1 UNK         0.0000 
     17 C17         3.9003   50.9471   20.8895 C.3       1 UNK         0.0000 
     18 C18         2.8350   50.2510   19.9830 C.3       1 UNK         0.0000 
     19 N19         2.7046   50.9905   18.6337 N.4       1 UNK         0.0000 
     20 C20         2.5975   52.5289   18.7455 C.3       1 UNK         0.0000 
     21 C21         3.7792   53.0411   19.5951 C.3       1 UNK         0.0000 
     22 C22         1.3423   52.1067   22.0737 C.2       1 UNK         0.0000 
     23 O23         1.4289   51.0929   22.7646 O.2       1 UNK         0.0000 
     24 N24         0.2225   52.4937   21.4495 N.am      1 UNK         0.0000 
     25 C25        -1.0439   51.7672   21.2480 C.3       1 UNK         0.0000 
     26 H26        -1.8084   52.5413   21.2787 H         1 UNK         0.0000 
     27 C27        -1.0922   51.1872   19.8239 C.3       1 UNK         0.0000 
     28 C28        -1.4598   50.6976   22.3014 C.3       1 UNK         0.0000 
     29 C29        -1.7313   51.2079   23.7209 C.ar      1 UNK         0.0000 
     30 C30        -2.6393   52.2603   23.9032 C.ar      1 UNK         0.0000 
     31 C31        -2.9683   52.7015   25.1814 C.ar      1 UNK         0.0000 
     32 C32        -2.3965   52.0897   26.2914 C.ar      1 UNK         0.0000 
     33 C33        -1.4959   51.0415   26.1276 C.ar      1 UNK         0.0000 
     34 C34        -1.1493   50.5833   24.8435 C.ar      1 UNK         0.0000 
     35 O35        -0.2747   49.5312   24.6316 O.3       1 UNK         0.0000 
     36 C36         0.3676   48.9116   25.7415 C.3       1 UNK         0.0000 
     37 H37         2.0636   52.7254   25.8663 H         1 UNK         0.0000 
     38 H38         1.4755   53.5607   27.3000 H         1 UNK         0.0000 
     39 H39         1.9663   54.4942   25.9318 H         1 UNK         0.0000 
     40 H40         2.9923   52.4386   28.7495 H         1 UNK         0.0000 
     41 H41         5.1613   52.3272   29.7763 H         1 UNK         0.0000 
     42 H42         7.1253   53.5266   28.7589 H         1 UNK         0.0000 
     43 H43         6.8293   54.7291   26.6374 H         1 UNK         0.0000 
     44 H44         3.6014   55.3152   24.9394 H         1 UNK         0.0000 
     45 H45         5.1245   56.0018   25.2810 H         1 UNK         0.0000 
     46 H46         3.1038   52.4971   23.9501 H         1 UNK         0.0000 
     47 H47         2.4801   54.1371   23.7411 H         1 UNK         0.0000 
     48 H48         5.5676   53.7585   21.2543 H         1 UNK         0.0000 
     49 H49         5.6483   52.2172   22.1519 H         1 UNK         0.0000 
     50 H50         4.8860   50.7259   20.4810 H         1 UNK         0.0000 
     51 H51         3.8857   50.4971   21.8802 H         1 UNK         0.0000 
     52 H52         3.1044   49.2237   19.7323 H         1 UNK         0.0000 
     53 H53         1.8349   50.2083   20.3981 H         1 UNK         0.0000 
     54 H54         3.5666   50.7751   18.1262 H         1 UNK         0.0000 
     55 H55         2.6467   52.9012   17.7214 H         1 UNK         0.0000 
     56 H56         1.6210   52.7648   19.1630 H         1 UNK         0.0000 
     57 H57         3.7558   54.1325   19.6145 H         1 UNK         0.0000 
     58 H58         4.7226   52.7929   19.1011 H         1 UNK         0.0000 
     59 H59         0.2986   53.3673   20.9490 H         1 UNK         0.0000 
     60 H60        -2.0277   50.6536   19.6514 H         1 UNK         0.0000 
     61 H61        -1.0379   51.9698   19.0676 H         1 UNK         0.0000 
     62 H62        -0.2967   50.4635   19.6480 H         1 UNK         0.0000 
     63 H63        -2.3833   50.2171   21.9795 H         1 UNK         0.0000 
     64 H64        -0.7260   49.8917   22.3054 H         1 UNK         0.0000 
     65 H65        -3.1164   52.7315   23.0585 H         1 UNK         0.0000 
     66 H66        -3.6760   53.5056   25.3169 H         1 UNK         0.0000 
     67 H67        -2.6648   52.4164   27.2821 H         1 UNK         0.0000 
     68 H68        -1.0960   50.5753   27.0163 H         1 UNK         0.0000 
     69 H69         1.0793   48.1680   25.3831 H         1 UNK         0.0000 
     70 H70         0.9292   49.6315   26.3374 H         1 UNK         0.0000 
     71 H71        -0.3526   48.4055   26.3826 H         1 UNK         0.0000 
     72 H72         1.9579   50.6015   18.0753 H         1 UNK         0.0000 
@<TRIPOS>BOND
     1    1    2 1    
     2    1   37 1    
     3    1   38 1    
     4    1   39 1    
     5    2    7 ar   
     6    2    3 ar   
     7    3    4 ar   
     8    3   40 1    
     9    4    5 ar   
    10    4   41 1    
    11    5    6 ar   
    12    5   42 1    
    13    6    7 ar   
    14    6   43 1    
    15    7    8 1    
    16    8    9 1    
    17    8   44 1    
    18    8   45 1    
    19    9   10 2    
    20    9   11 am   BACKBONE|DICT|INTERRES
    21   11   16 1    
    22   11   12 1    
    23   12   13 1    
    24   12   46 1    
    25   12   47 1    
    26   13   14 1    
    27   13   15 1    
    28   13   22 1    
    29   15   21 1    
    30   15   16 1    
    31   15   17 1    
    32   16   48 1    
    33   16   49 1    
    34   17   18 1    
    35   17   50 1    
    36   17   51 1    
    37   18   19 1    
    38   18   52 1    
    39   18   53 1    
    40   19   20 1    
    41   19   54 1    
    42   19   72 1    
    43   20   21 1    
    44   20   55 1    
    45   20   56 1    
    46   21   57 1    
    47   21   58 1    
    48   22   23 2    
    49   22   24 am   BACKBONE|DICT|INTERRES
    50   24   25 1    
    51   24   59 1    
    52   25   26 1    
    53   25   27 1    
    54   25   28 1    
    55   27   60 1    
    56   27   61 1    
    57   27   62 1    
    58   28   29 1    
    59   28   63 1    
    60   28   64 1    
    61   29   34 ar   
    62   29   30 ar   
    63   30   31 ar   
    64   30   65 1    
    65   31   32 ar   
    66   31   66 1    
    67   32   33 ar   
    68   32   67 1    
    69   33   34 ar   
    70   33   68 1    
    71   34   35 1    
    72   35   36 1    
    73   36   69 1    
    74   36   70 1    
    75   36   71 1    
@<TRIPOS>SUBSTRUCTURE
     1 UNK         1 GROUP             0       ****    0 ROOT    
