ZINC41006307_4503
                    3D
 Schrodinger Suite 2024-2.
 71 74  0  0  1  0            999 V2000
    6.1156   54.2884   28.0754 C   0  0  0  0  0  0
    4.7703   53.9436   27.4714 C   0  0  0  0  0  0
    3.8046   53.2975   28.2413 C   0  0  0  0  0  0
    2.5759   52.9569   27.6812 C   0  0  0  0  0  0
    2.2997   53.2445   26.3337 C   0  0  0  0  0  0
    3.2664   53.9192   25.5636 C   0  0  0  0  0  0
    4.4960   54.2569   26.1391 C   0  0  0  0  0  0
    3.0189   54.2802   24.1024 C   0  0  0  0  0  0
    1.0805   52.8968   25.7181 N   0  0  0  0  0  0
    0.1793   51.9544   26.0697 C   0  0  0  0  0  0
    0.3688   51.1258   26.9615 O   0  0  0  0  0  0
   -1.1341   51.9326   25.2396 C   0  0  1  0  0  0
   -1.1981   52.9247   24.7884 H   0  0  0  0  0  0
   -1.1356   50.8642   24.0932 C   0  0  2  0  0  0
   -1.9575   51.1442   23.4300 H   0  0  0  0  0  0
   -1.4888   49.4191   24.6034 C   0  0  1  0  0  0
   -0.6643   49.0991   25.2444 H   0  0  0  0  0  0
   -2.7863   49.3588   25.4810 C   0  0  1  0  0  0
   -2.6882   50.3853   26.6312 C   0  0  0  0  0  0
   -2.3717   51.8096   26.1526 C   0  0  0  0  0  0
   -3.0711   52.7747   26.4504 O   0  0  0  0  0  0
   -4.1131   49.5562   24.7030 C   0  0  0  0  0  0
   -2.8957   48.0817   26.0817 O   0  0  0  0  0  0
   -1.4990   48.3508   23.4790 C   0  0  0  0  0  0
   -0.8968   47.2967   23.6664 O   0  0  0  0  0  0
   -2.1778   48.6267   22.3455 N   0  0  0  0  0  0
   -2.2800   47.7470   21.2626 C   0  0  0  0  0  0
   -3.4364   46.9676   21.1635 C   0  0  0  0  0  0
   -3.5868   46.0650   20.1117 C   0  0  0  0  0  0
   -2.5885   45.9441   19.1430 C   0  0  0  0  0  0
   -1.4371   46.7306   19.2344 C   0  0  0  0  0  0
   -1.2758   47.6441   20.2825 C   0  0  0  0  0  0
   -0.0321   48.5207   20.3106 C   0  0  0  0  0  0
   -2.7458   44.9570   18.0009 C   0  0  0  0  0  0
    0.1024   50.9777   23.1784 C   0  0  0  0  0  0
    1.2009   50.1219   23.3319 C   0  0  0  0  0  0
    2.2928   50.2284   22.4816 C   0  0  0  0  0  0
    2.3200   51.2169   21.5035 C   0  0  0  0  0  0
    1.2468   52.0917   21.3565 C   0  0  0  0  0  0
    0.1369   51.9663   22.1894 C   0  0  0  0  0  0
    3.3976   51.3297   20.6969 F   0  0  0  0  0  0
    6.3840   53.5959   28.8744 H   0  0  0  0  0  0
    6.0828   55.2966   28.4817 H   0  0  0  0  0  0
    6.9093   54.2321   27.3296 H   0  0  0  0  0  0
    4.0048   53.0535   29.2737 H   0  0  0  0  0  0
    1.8516   52.4657   28.3121 H   0  0  0  0  0  0
    5.2481   54.7600   25.5476 H   0  0  0  0  0  0
    2.1245   54.8965   24.0084 H   0  0  0  0  0  0
    3.8528   54.8289   23.6620 H   0  0  0  0  0  0
    2.8589   53.3754   23.5161 H   0  0  0  0  0  0
    0.9012   53.3871   24.8561 H   0  0  0  0  0  0
   -1.8873   50.0967   27.3092 H   0  0  0  0  0  0
   -3.6047   50.4032   27.2207 H   0  0  0  0  0  0
   -4.1215   50.4868   24.1371 H   0  0  0  0  0  0
   -4.3101   48.7407   24.0070 H   0  0  0  0  0  0
   -4.9655   49.5862   25.3822 H   0  0  0  0  0  0
   -2.4151   48.0967   26.9352 H   0  0  0  0  0  0
   -2.7213   49.4743   22.3004 H   0  0  0  0  0  0
   -4.2146   47.0484   21.9085 H   0  0  0  0  0  0
   -4.4829   45.4648   20.0520 H   0  0  0  0  0  0
   -0.6713   46.6421   18.4770 H   0  0  0  0  0  0
    0.6834   48.2597   19.5293 H   0  0  0  0  0  0
   -0.3094   49.5684   20.1926 H   0  0  0  0  0  0
    0.4778   48.4286   21.2663 H   0  0  0  0  0  0
   -1.7940   44.4727   17.7816 H   0  0  0  0  0  0
   -3.4561   44.1673   18.2489 H   0  0  0  0  0  0
   -3.0823   45.4690   17.0992 H   0  0  0  0  0  0
    1.2190   49.3557   24.0929 H   0  0  0  0  0  0
    3.1044   49.5309   22.5876 H   0  0  0  0  0  0
    1.2776   52.8597   20.5963 H   0  0  0  0  0  0
   -0.6989   52.6367   22.0627 H   0  0  0  0  0  0
  1  2  1  0  0  0
  1 42  1  0  0  0
  1 43  1  0  0  0
  1 44  1  0  0  0
  2  7  2  0  0  0
  2  3  1  0  0  0
  3  4  2  0  0  0
  3 45  1  0  0  0
  4  5  1  0  0  0
  4 46  1  0  0  0
  5  6  2  0  0  0
  5  9  1  0  0  0
  6  7  1  0  0  0
  6  8  1  0  0  0
  7 47  1  0  0  0
  8 48  1  0  0  0
  8 49  1  0  0  0
  8 50  1  0  0  0
  9 10  1  0  0  0
  9 51  1  0  0  0
 10 11  2  0  0  0
 10 12  1  0  0  0
 12 13  1  0  0  0
 12 20  1  0  0  0
 12 14  1  0  0  0
 14 15  1  0  0  0
 14 16  1  0  0  0
 14 35  1  0  0  0
 16 17  1  0  0  0
 16 18  1  0  0  0
 16 24  1  0  0  0
 18 19  1  0  0  0
 18 22  1  0  0  0
 18 23  1  0  0  0
 19 20  1  0  0  0
 19 52  1  0  0  0
 19 53  1  0  0  0
 20 21  2  0  0  0
 22 54  1  0  0  0
 22 55  1  0  0  0
 22 56  1  0  0  0
 23 57  1  0  0  0
 24 25  2  0  0  0
 24 26  1  0  0  0
 26 27  1  0  0  0
 26 58  1  0  0  0
 27 32  2  0  0  0
 27 28  1  0  0  0
 28 29  2  0  0  0
 28 59  1  0  0  0
 29 30  1  0  0  0
 29 60  1  0  0  0
 30 31  2  0  0  0
 30 34  1  0  0  0
 31 32  1  0  0  0
 31 61  1  0  0  0
 32 33  1  0  0  0
 33 62  1  0  0  0
 33 63  1  0  0  0
 33 64  1  0  0  0
 34 65  1  0  0  0
 34 66  1  0  0  0
 34 67  1  0  0  0
 35 40  2  0  0  0
 35 36  1  0  0  0
 36 37  2  0  0  0
 36 68  1  0  0  0
 37 38  1  0  0  0
 37 69  1  0  0  0
 38 39  2  0  0  0
 38 41  1  0  0  0
 39 40  1  0  0  0
 39 70  1  0  0  0
 40 71  1  0  0  0
M  END
> <i_i_glide_confnum>
172

> <i_i_glide_lignum>
4504

> <i_i_glide_posenum>
250

> <i_i_glide_rotatable_bonds>
8

> <i_m_Source_File_Index>
3613

> <b_m_subgroup_collapsed>
0

> <r_i_docking_score>
-4.39557

> <r_i_glide_ecoul>
-5.81983

> <r_i_glide_eff_state_penalty>
0

> <r_i_glide_einternal>
10.1053

> <r_i_glide_emodel>
-49.9837

> <r_i_glide_energy>
-42.1088

> <r_i_glide_erotb>
0.538395

> <r_i_glide_esite>
-0.0495278

> <r_i_glide_evdw>
-36.2889

> <r_i_glide_gscore>
-4.39557

> <r_i_glide_hbond>
0

> <r_i_glide_ligand_efficiency>
-0.115673

> <r_i_glide_ligand_efficiency_ln>
-0.947815

> <r_i_glide_ligand_efficiency_sa>
-0.38889

> <r_i_glide_lipo>
-2.15757

> <r_i_glide_metal>
0

> <r_i_glide_rewards>
-0.0394508

> <s_i_glide_gridfile>
wee1_glide-grid

> <s_m_Source_File>
wee1_decoys_glide_SP.sdf

> <s_m_Source_Path>
/Users/zhangxujun/Desktop

> <s_m_entry_id>
3888

> <s_m_entry_name>
wee1_decoys_glide_SP.3613

> <s_m_subgroup_title>
wee1_decoys_glide_SP

> <s_m_subgroupid>
wee1_decoys_glide_SP


$$$$
