ZINC59081001_5719
                    3D
 Schrodinger Suite 2024-2.
 64 66  0  0  1  0            999 V2000
    1.6775   47.8917   17.2747 C   0  0  0  0  0  0
    1.8819   49.0307   18.2975 N   0  3  1  0  0  0
    0.5798   49.8481   18.4422 C   0  0  0  0  0  0
    0.8304   51.0240   19.4067 C   0  0  0  0  0  0
    1.5170   50.6385   20.7539 C   0  0  1  0  0  0
    2.6586   49.6082   20.5778 C   0  0  0  0  0  0
    2.2693   48.4381   19.6625 C   0  0  0  0  0  0
    1.8866   51.7975   21.6173 N   0  0  0  0  0  0
    2.9083   52.6884   21.0164 C   0  0  0  0  0  0
    4.2986   52.6690   21.6777 C   0  0  0  0  0  0
    5.2043   53.7056   21.0323 C   0  0  0  0  0  0
    5.7611   54.7296   21.7992 C   0  0  0  0  0  0
    6.5830   55.6839   21.2055 C   0  0  0  0  0  0
    6.8557   55.6298   19.8388 C   0  0  0  0  0  0
    6.3374   54.5844   19.0555 C   0  0  0  0  0  0
    5.5042   53.6313   19.6675 C   0  0  0  0  0  0
    6.6928   54.5429   17.7195 O   0  0  0  0  0  0
    6.2492   53.4552   16.9127 C   0  0  0  0  0  0
    7.6717   56.5969   19.3044 O   0  0  0  0  0  0
    6.9933   57.5863   18.5394 C   0  0  0  0  0  0
    1.1938   52.1386   22.7769 C   0  0  0  0  0  0
    1.5050   53.5334   23.6818 S   0  0  0  0  0  0
    0.2008   51.2680   23.1549 N   0  0  0  0  0  0
   -0.7369   51.3669   24.1962 C   0  0  0  0  0  0
   -1.8251   52.2368   24.0581 C   0  0  0  0  0  0
   -2.7747   52.3573   25.0802 C   0  0  0  0  0  0
   -2.6174   51.5983   26.2453 C   0  0  0  0  0  0
   -1.5372   50.7275   26.3811 C   0  0  0  0  0  0
   -0.5982   50.5966   25.3588 C   0  0  0  0  0  0
    0.7041   49.4730   25.5558 Cl  0  0  0  0  0  0
   -3.9686   53.2973   24.9276 C   0  0  0  0  0  0
   -3.7120   54.2764   24.0621 F   0  0  0  0  0  0
   -4.3006   53.8607   26.0879 F   0  0  0  0  0  0
   -5.0128   52.6014   24.4819 F   0  0  0  0  0  0
    0.8770   47.2384   17.6257 H   0  0  0  0  0  0
    1.4321   48.3577   16.3187 H   0  0  0  0  0  0
    2.6277   47.3581   17.1924 H   0  0  0  0  0  0
   -0.2022   49.1738   18.7974 H   0  0  0  0  0  0
    0.3207   50.2164   17.4471 H   0  0  0  0  0  0
   -0.1216   51.5148   19.6136 H   0  0  0  0  0  0
    1.4298   51.7470   18.8550 H   0  0  0  0  0  0
    0.7598   50.0308   21.2454 H   0  0  0  0  0  0
    3.5338   50.0972   20.1494 H   0  0  0  0  0  0
    2.9577   49.2167   21.5516 H   0  0  0  0  0  0
    1.4251   47.8592   20.0415 H   0  0  0  0  0  0
    3.1048   47.7685   19.4853 H   0  0  0  0  0  0
    3.0434   52.4239   19.9703 H   0  0  0  0  0  0
    2.5148   53.6966   21.0200 H   0  0  0  0  0  0
    4.2283   52.8950   22.7415 H   0  0  0  0  0  0
    4.7701   51.6896   21.5803 H   0  0  0  0  0  0
    5.5544   54.7964   22.8577 H   0  0  0  0  0  0
    7.0086   56.4714   21.8078 H   0  0  0  0  0  0
    5.0952   52.8126   19.0941 H   0  0  0  0  0  0
    6.6443   53.5712   15.9038 H   0  0  0  0  0  0
    6.6063   52.4972   17.2963 H   0  0  0  0  0  0
    5.1609   53.4267   16.8392 H   0  0  0  0  0  0
    7.7193   58.2922   18.1363 H   0  0  0  0  0  0
    6.4479   57.1581   17.6966 H   0  0  0  0  0  0
    6.2936   58.1516   19.1568 H   0  0  0  0  0  0
    0.2575   50.3438   22.7554 H   0  0  0  0  0  0
   -1.9266   52.8206   23.1541 H   0  0  0  0  0  0
   -3.3375   51.6679   27.0487 H   0  0  0  0  0  0
   -1.4367   50.1392   27.2818 H   0  0  0  0  0  0
    2.6487   49.5986   17.9391 H   0  0  0  0  0  0
  1  2  1  0  0  0
  1 35  1  0  0  0
  1 36  1  0  0  0
  1 37  1  0  0  0
  2  7  1  0  0  0
  2  3  1  0  0  0
  2 64  1  0  0  0
  3  4  1  0  0  0
  3 38  1  0  0  0
  3 39  1  0  0  0
  4  5  1  0  0  0
  4 40  1  0  0  0
  4 41  1  0  0  0
  5  6  1  0  0  0
  5  8  1  0  0  0
  5 42  1  0  0  0
  6  7  1  0  0  0
  6 43  1  0  0  0
  6 44  1  0  0  0
  7 45  1  0  0  0
  7 46  1  0  0  0
  8  9  1  0  0  0
  8 21  1  0  0  0
  9 10  1  0  0  0
  9 47  1  0  0  0
  9 48  1  0  0  0
 10 11  1  0  0  0
 10 49  1  0  0  0
 10 50  1  0  0  0
 11 16  2  0  0  0
 11 12  1  0  0  0
 12 13  2  0  0  0
 12 51  1  0  0  0
 13 14  1  0  0  0
 13 52  1  0  0  0
 14 15  2  0  0  0
 14 19  1  0  0  0
 15 16  1  0  0  0
 15 17  1  0  0  0
 16 53  1  0  0  0
 17 18  1  0  0  0
 18 54  1  0  0  0
 18 55  1  0  0  0
 18 56  1  0  0  0
 19 20  1  0  0  0
 20 57  1  0  0  0
 20 58  1  0  0  0
 20 59  1  0  0  0
 21 22  2  0  0  0
 21 23  1  0  0  0
 23 24  1  0  0  0
 23 60  1  0  0  0
 24 29  2  0  0  0
 24 25  1  0  0  0
 25 26  2  0  0  0
 25 61  1  0  0  0
 26 27  1  0  0  0
 26 31  1  0  0  0
 27 28  2  0  0  0
 27 62  1  0  0  0
 28 29  1  0  0  0
 28 63  1  0  0  0
 29 30  1  0  0  0
 31 32  1  0  0  0
 31 33  1  0  0  0
 31 34  1  0  0  0
M  CHG  1   2   1
M  END
> <i_i_glide_confnum>
131

> <i_i_glide_lignum>
5720

> <i_i_glide_posenum>
67

> <i_i_glide_rotatable_bonds>
10

> <i_m_Source_File_Index>
371

> <b_m_subgroup_collapsed>
0

> <r_i_docking_score>
-3.94774

> <r_i_glide_ecoul>
-3.2589

> <r_i_glide_eff_state_penalty>
0

> <r_i_glide_einternal>
10.4762

> <r_i_glide_emodel>
-45.6069

> <r_i_glide_energy>
-38.9346

> <r_i_glide_erotb>
0.537583

> <r_i_glide_esite>
-0.1

> <r_i_glide_evdw>
-35.6757

> <r_i_glide_gscore>
-3.94774

> <r_i_glide_hbond>
-0.132272

> <r_i_glide_ligand_efficiency>
-0.11611

> <r_i_glide_ligand_efficiency_ln>
-0.872166

> <r_i_glide_ligand_efficiency_sa>
-0.376151

> <r_i_glide_lipo>
-0.928787

> <r_i_glide_metal>
0

> <r_i_glide_rewards>
-1.05164

> <s_i_glide_gridfile>
wee1_glide-grid

> <s_m_Source_File>
wee1_decoys_glide_SP.sdf

> <s_m_Source_Path>
/Users/zhangxujun/Desktop

> <s_m_entry_id>
646

> <s_m_entry_name>
wee1_decoys_glide_SP.371

> <s_m_subgroup_title>
wee1_decoys_glide_SP

> <s_m_subgroupid>
wee1_decoys_glide_SP


$$$$
