@<TRIPOS>MOLECULE
ZINC64672726_301
55   58    1
SMALL
USER_CHARGES


@<TRIPOS>ATOM
      1 C1          1.3805   55.8962   30.1718 C.2       1 UNK         0.0000 
      2 C2          0.5673   54.7296   30.4805 C.2       1 UNK         0.0000 
      3 C3          0.9083   53.4845   30.0615 C.2       1 UNK         0.0000 
      4 C4          2.1003   53.2820   29.3554 C.2       1 UNK         0.0000 
      5 N5          2.6078   52.1658   28.9083 N.pl3     1 UNK         0.0000 
      6 C6          3.9245   52.4317   28.3177 C.3       1 UNK         0.0000 
      7 C7          4.0760   53.9223   28.4660 C.2       1 UNK         0.0000 
      8 C8          2.9459   54.3624   29.0624 C.2       1 UNK         0.0000 
      9 C9          2.5222   55.7048   29.4847 C.2       1 UNK         0.0000 
     10 C10         5.3905   54.6108   28.1001 C.3       1 UNK         0.0000 
     11 C11         5.8883   54.4965   26.6461 C.2       1 UNK         0.0000 
     12 O12         7.1043   54.4963   26.4860 O.2       1 UNK         0.0000 
     13 N13         4.9987   54.4299   25.6277 N.am      1 UNK         0.0000 
     14 C14         5.2490   54.4746   24.2311 C.ar      1 UNK         0.0000 
     15 C15         4.1762   54.1580   23.3911 C.ar      1 UNK         0.0000 
     16 C16         4.2956   54.2917   22.0062 C.ar      1 UNK         0.0000 
     17 C17         5.4934   54.7448   21.4394 C.ar      1 UNK         0.0000 
     18 C18         6.5880   55.0042   22.2668 C.ar      1 UNK         0.0000 
     19 C19         6.4664   54.8771   23.6504 C.ar      1 UNK         0.0000 
     20 S20         5.6308   55.0014   19.6523 S.o2      1 UNK         0.0000 
     21 O21         6.7171   54.0961   19.2806 O.2       1 UNK         0.0000 
     22 O22         4.3049   54.6437   19.1430 O.2       1 UNK         0.0000 
     23 N23         6.0082   56.7218   19.6801 N.2       1 UNK         0.0000 
     24 C24         6.7949   57.1921   18.7981 C.2       1 UNK         0.0000 
     25 C25         7.4825   56.5038   17.6096 C.3       1 UNK         0.0000 
     26 C26         9.0101   56.3360   17.7477 C.3       1 UNK         0.0000 
     27 C27         9.8213   57.5883   17.3761 C.3       1 UNK         0.0000 
     28 C28         9.5147   58.8618   18.1874 C.3       1 UNK         0.0000 
     29 C29         8.0517   59.3580   18.1410 C.3       1 UNK         0.0000 
     30 N30         7.0954   58.5391   18.8814 N.pl3     1 UNK         0.0000 
     31 H31         1.0812   56.8853   30.4920 H         1 UNK         0.0000 
     32 H32        -0.3412   54.8616   31.0505 H         1 UNK         0.0000 
     33 H33         0.2592   52.6559   30.3145 H         1 UNK         0.0000 
     34 H34         4.6711   51.8607   28.8735 H         1 UNK         0.0000 
     35 H35         3.8882   52.1025   27.2819 H         1 UNK         0.0000 
     36 H36         3.1045   56.5877   29.2809 H         1 UNK         0.0000 
     37 H37         5.3883   55.6579   28.3697 H         1 UNK         0.0000 
     38 H38         6.1560   54.1676   28.7400 H         1 UNK         0.0000 
     39 H39         4.0291   54.3226   25.8785 H         1 UNK         0.0000 
     40 H40         3.2297   53.8402   23.8037 H         1 UNK         0.0000 
     41 H41         3.4415   54.0735   21.3797 H         1 UNK         0.0000 
     42 H42         7.5250   55.3363   21.8412 H         1 UNK         0.0000 
     43 H43         7.3291   55.1413   24.2406 H         1 UNK         0.0000 
     44 H44         7.0387   55.5331   17.4077 H         1 UNK         0.0000 
     45 H45         7.2482   57.0427   16.6908 H         1 UNK         0.0000 
     46 H46         9.2666   56.0156   18.7606 H         1 UNK         0.0000 
     47 H47         9.3312   55.5138   17.1061 H         1 UNK         0.0000 
     48 H48         9.6722   57.8019   16.3164 H         1 UNK         0.0000 
     49 H49        10.8823   57.3555   17.4780 H         1 UNK         0.0000 
     50 H50        10.1541   59.6591   17.8068 H         1 UNK         0.0000 
     51 H51         9.8250   58.7177   19.2244 H         1 UNK         0.0000 
     52 H52         7.7124   59.3640   17.1039 H         1 UNK         0.0000 
     53 H53         7.9844   60.3960   18.4678 H         1 UNK         0.0000 
     54 H54         6.3928   59.0875   19.3543 H         1 UNK         0.0000 
     55 H55         2.1772   51.2465   28.9760 H         1 UNK         0.0000 
@<TRIPOS>BOND
     1    1    9 2    
     2    1    2 1    
     3    1   31 1    
     4    2    3 2    
     5    2   32 1    
     6    3    4 1    
     7    3   33 1    
     8    4    8 1    
     9    4    5 2    
    10    5    6 1    
    11    5   55 1    
    12    6    7 1    
    13    6   34 1    
    14    6   35 1    
    15    7    8 2    
    16    7   10 1    
    17    8    9 1    
    18    9   36 1    
    19   10   11 1    
    20   10   37 1    
    21   10   38 1    
    22   11   12 2    
    23   11   13 am   BACKBONE|DICT|INTERRES
    24   13   14 1    
    25   13   39 1    
    26   14   19 ar   
    27   14   15 ar   
    28   15   16 ar   
    29   15   40 1    
    30   16   17 ar   
    31   16   41 1    
    32   17   18 ar   
    33   17   20 1    
    34   18   19 ar   
    35   18   42 1    
    36   19   43 1    
    37   20   21 2    
    38   20   22 2    
    39   20   23 1    
    40   23   24 2    
    41   24   30 1    
    42   24   25 1    
    43   25   26 1    
    44   25   44 1    
    45   25   45 1    
    46   26   27 1    
    47   26   46 1    
    48   26   47 1    
    49   27   28 1    
    50   27   48 1    
    51   27   49 1    
    52   28   29 1    
    53   28   50 1    
    54   28   51 1    
    55   29   30 1    
    56   29   52 1    
    57   29   53 1    
    58   30   54 1    
@<TRIPOS>SUBSTRUCTURE
     1 UNK         1 GROUP             0       ****    0 ROOT    
