ZINC20214186_844
                    3D
 Schrodinger Suite 2024-2.
 65 68  0  0  1  0            999 V2000
    6.2823   55.4155   24.8274 C   0  0  0  0  0  0
    6.6666   54.1849   23.9908 C   0  0  0  0  0  0
    5.9907   54.1327   22.7371 O   0  0  0  0  0  0
    6.3036   54.9388   21.6963 C   0  0  0  0  0  0
    7.1813   55.8010   21.7622 O   0  0  0  0  0  0
    5.5034   54.7354   20.4587 C   0  0  0  0  0  0
    4.5815   53.7560   20.2378 C   0  0  0  0  0  0
    3.9048   53.6988   19.0520 N   0  0  0  0  0  0
    3.9041   54.6438   18.0841 C   0  0  0  0  0  0
    3.2322   54.5542   17.0632 O   0  0  0  0  0  0
    4.7296   55.6930   18.3219 N   0  0  0  0  0  0
    5.8716   55.6640   19.2730 C   0  0  2  0  0  0
    6.0408   56.6859   19.6202 H   0  0  0  0  0  0
    7.1980   55.2790   18.5984 C   0  0  0  0  0  0
    7.3371   54.0401   17.9559 C   0  0  0  0  0  0
    8.5595   53.6754   17.3998 C   0  0  0  0  0  0
    9.6433   54.5457   17.4783 C   0  0  0  0  0  0
    9.5047   55.7916   18.0842 C   0  0  0  0  0  0
    8.2892   56.1547   18.6509 C   0  0  0  0  0  0
   11.1759   54.0702   16.8495 Cl  0  0  0  0  0  0
    4.1151   52.6258   21.1647 C   0  0  0  0  0  0
    2.8392   52.8956   21.8322 N   0  0  0  0  0  0
    2.9915   53.7462   23.0165 C   0  0  0  0  0  0
    1.6090   54.1114   23.5957 C   0  0  0  0  0  0
    0.7483   52.9537   23.9092 N   0  0  0  0  0  0
    0.7315   52.0224   22.7623 C   0  0  0  0  0  0
    2.1296   51.6718   22.1939 C   0  0  0  0  0  0
    0.5231   52.4932   25.2074 C   0  0  0  0  0  0
    1.5049   52.6683   26.1969 C   0  0  0  0  0  0
    1.3359   52.1761   27.4932 C   0  0  0  0  0  0
    0.1701   51.4859   27.8179 C   0  0  0  0  0  0
   -0.8216   51.3064   26.8601 C   0  0  0  0  0  0
   -0.6624   51.8052   25.5620 C   0  0  0  0  0  0
   -1.8340   51.6351   24.5999 C   0  0  0  0  0  0
    2.4325   52.3589   28.5274 C   0  0  0  0  0  0
    6.7305   55.3674   25.8210 H   0  0  0  0  0  0
    6.6177   56.3371   24.3533 H   0  0  0  0  0  0
    5.2021   55.4772   24.9572 H   0  0  0  0  0  0
    6.3784   53.2975   24.5494 H   0  0  0  0  0  0
    7.7445   54.1086   23.8490 H   0  0  0  0  0  0
    3.2332   52.9625   18.8994 H   0  0  0  0  0  0
    4.7912   56.3494   17.5576 H   0  0  0  0  0  0
    6.5096   53.3470   17.9090 H   0  0  0  0  0  0
    8.6703   52.7094   16.9289 H   0  0  0  0  0  0
   10.3507   56.4599   18.1487 H   0  0  0  0  0  0
    8.2083   57.1126   19.1452 H   0  0  0  0  0  0
    4.0361   51.7272   20.5478 H   0  0  0  0  0  0
    4.8819   52.3235   21.8748 H   0  0  0  0  0  0
    3.5878   53.2396   23.7778 H   0  0  0  0  0  0
    3.4888   54.6773   22.7445 H   0  0  0  0  0  0
    1.1027   54.7340   22.8595 H   0  0  0  0  0  0
    1.7432   54.7406   24.4749 H   0  0  0  0  0  0
    0.1247   52.4752   21.9782 H   0  0  0  0  0  0
    0.2460   51.0846   23.0278 H   0  0  0  0  0  0
    1.9922   51.0448   21.3120 H   0  0  0  0  0  0
    2.7033   51.1008   22.9244 H   0  0  0  0  0  0
    2.4297   53.1712   25.9572 H   0  0  0  0  0  0
    0.0264   51.0785   28.8099 H   0  0  0  0  0  0
   -1.7160   50.7651   27.1366 H   0  0  0  0  0  0
   -2.7818   51.6522   25.1393 H   0  0  0  0  0  0
   -1.8854   52.4521   23.8794 H   0  0  0  0  0  0
   -1.7624   50.6874   24.0667 H   0  0  0  0  0  0
    2.2927   51.6991   29.3872 H   0  0  0  0  0  0
    3.4040   52.1163   28.0946 H   0  0  0  0  0  0
    2.4684   53.3938   28.8714 H   0  0  0  0  0  0
  1  2  1  0  0  0
  1 36  1  0  0  0
  1 37  1  0  0  0
  1 38  1  0  0  0
  2  3  1  0  0  0
  2 39  1  0  0  0
  2 40  1  0  0  0
  3  4  1  0  0  0
  4  5  2  0  0  0
  4  6  1  0  0  0
  6 12  1  0  0  0
  6  7  2  0  0  0
  7  8  1  0  0  0
  7 21  1  0  0  0
  8  9  1  0  0  0
  8 41  1  0  0  0
  9 10  2  0  0  0
  9 11  1  0  0  0
 11 12  1  0  0  0
 11 42  1  0  0  0
 12 13  1  0  0  0
 12 14  1  0  0  0
 14 19  2  0  0  0
 14 15  1  0  0  0
 15 16  2  0  0  0
 15 43  1  0  0  0
 16 17  1  0  0  0
 16 44  1  0  0  0
 17 18  2  0  0  0
 17 20  1  0  0  0
 18 19  1  0  0  0
 18 45  1  0  0  0
 19 46  1  0  0  0
 21 22  1  0  0  0
 21 47  1  0  0  0
 21 48  1  0  0  0
 22 27  1  0  0  0
 22 23  1  0  0  0
 23 24  1  0  0  0
 23 49  1  0  0  0
 23 50  1  0  0  0
 24 25  1  0  0  0
 24 51  1  0  0  0
 24 52  1  0  0  0
 25 26  1  0  0  0
 25 28  1  0  0  0
 26 27  1  0  0  0
 26 53  1  0  0  0
 26 54  1  0  0  0
 27 55  1  0  0  0
 27 56  1  0  0  0
 28 33  2  0  0  0
 28 29  1  0  0  0
 29 30  2  0  0  0
 29 57  1  0  0  0
 30 31  1  0  0  0
 30 35  1  0  0  0
 31 32  2  0  0  0
 31 58  1  0  0  0
 32 33  1  0  0  0
 32 59  1  0  0  0
 33 34  1  0  0  0
 34 60  1  0  0  0
 34 61  1  0  0  0
 34 62  1  0  0  0
 35 63  1  0  0  0
 35 64  1  0  0  0
 35 65  1  0  0  0
M  END
> <i_i_glide_confnum>
29

> <i_i_glide_lignum>
845

> <i_i_glide_posenum>
234

> <i_i_glide_rotatable_bonds>
7

> <i_m_Source_File_Index>
4879

> <b_m_subgroup_collapsed>
0

> <r_i_docking_score>
-4.85001

> <r_i_glide_ecoul>
0.478045

> <r_i_glide_eff_state_penalty>
0

> <r_i_glide_einternal>
4.40863

> <r_i_glide_emodel>
-54.0421

> <r_i_glide_energy>
-43.2384

> <r_i_glide_erotb>
0.522033

> <r_i_glide_esite>
-0.0280679

> <r_i_glide_evdw>
-43.7165

> <r_i_glide_gscore>
-4.85001

> <r_i_glide_hbond>
0

> <r_i_glide_ligand_efficiency>
-0.142647

> <r_i_glide_ligand_efficiency_ln>
-1.0715

> <r_i_glide_ligand_efficiency_sa>
-0.462122

> <r_i_glide_lipo>
-2.53543

> <r_i_glide_metal>
0

> <r_i_glide_rewards>
-0.694429

> <s_i_glide_gridfile>
wee1_glide-grid

> <s_m_Source_File>
wee1_decoys_glide_SP.sdf

> <s_m_Source_Path>
/Users/zhangxujun/Desktop

> <s_m_entry_id>
5154

> <s_m_entry_name>
wee1_decoys_glide_SP.4879

> <s_m_subgroup_title>
wee1_decoys_glide_SP

> <s_m_subgroupid>
wee1_decoys_glide_SP


$$$$
