ZINC03884797_1978
                    3D
 Schrodinger Suite 2024-2.
 38 40  0  0  1  0            999 V2000
    2.3990   52.0967   31.6319 C   0  0  0  0  0  0
    3.1061   52.7530   30.6215 C   0  0  0  0  0  0
    2.3414   53.7542   30.0418 C   0  0  0  0  0  0
    0.7029   53.7718   30.5991 S   0  0  0  0  0  0
    1.0717   52.4966   31.7066 C   0  0  0  0  0  0
    2.9137   54.8877   28.7899 S   0  0  0  0  0  0
    2.0855   56.0936   28.8825 O   0  0  0  0  0  0
    4.3757   54.8964   28.8916 O   0  0  0  0  0  0
    2.3958   53.9682   27.3852 N   0  0  0  0  0  0
    2.9931   53.9677   26.1228 C   0  0  0  0  0  0
    4.2918   54.4009   25.8440 C   0  0  0  0  0  0
    4.8228   54.2880   24.5495 C   0  0  0  0  0  0
    4.0079   53.7404   23.5372 C   0  0  0  0  0  0
    2.7051   53.3001   23.8064 C   0  0  0  0  0  0
    2.2145   53.4380   25.1024 C   0  0  0  0  0  0
    1.9483   52.6986   22.7866 N   0  0  0  0  0  0
    0.2175   52.2729   22.8969 S   0  0  0  0  0  0
   -0.4783   53.2967   23.6818 O   0  0  0  0  0  0
   -0.2100   51.9436   21.5333 O   0  0  0  0  0  0
    0.1355   50.7351   23.8435 C   0  0  0  0  0  0
    0.1301   49.4553   23.3060 C   0  0  0  0  0  0
   -0.0896   48.4692   24.2747 C   0  0  0  0  0  0
   -0.2103   48.9907   25.5547 C   0  0  0  0  0  0
   -0.0958   50.7159   25.5670 S   0  0  0  0  0  0
    6.2370   54.7180   24.2697 C   0  0  0  0  0  0
    6.7031   54.4732   23.1330 O   0  0  0  0  0  0
    2.8226   51.3330   32.2682 H   0  0  0  0  0  0
    4.1419   52.5618   30.3754 H   0  0  0  0  0  0
    0.3046   52.1251   32.3727 H   0  0  0  0  0  0
    1.3939   53.8709   27.3376 H   0  0  0  0  0  0
    4.9140   54.8056   26.6252 H   0  0  0  0  0  0
    4.4014   53.6346   22.5352 H   0  0  0  0  0  0
    1.2215   53.1035   25.3465 H   0  0  0  0  0  0
    2.4123   52.4644   21.9227 H   0  0  0  0  0  0
    0.2448   49.2506   22.2518 H   0  0  0  0  0  0
   -0.1431   47.4136   24.0579 H   0  0  0  0  0  0
   -0.3770   48.4563   26.4816 H   0  0  0  0  0  0
    6.8713   55.2945   25.1881 O   0  5  0  0  0  0
  1  5  2  0  0  0
  1  2  1  0  0  0
  1 27  1  0  0  0
  2  3  2  0  0  0
  2 28  1  0  0  0
  3  4  1  0  0  0
  3  6  1  0  0  0
  4  5  1  0  0  0
  5 29  1  0  0  0
  6  7  2  0  0  0
  6  8  2  0  0  0
  6  9  1  0  0  0
  9 10  1  0  0  0
  9 30  1  0  0  0
 10 15  2  0  0  0
 10 11  1  0  0  0
 11 12  2  0  0  0
 11 31  1  0  0  0
 12 13  1  0  0  0
 12 25  1  0  0  0
 13 14  2  0  0  0
 13 32  1  0  0  0
 14 15  1  0  0  0
 14 16  1  0  0  0
 15 33  1  0  0  0
 16 17  1  0  0  0
 16 34  1  0  0  0
 17 18  2  0  0  0
 17 19  2  0  0  0
 17 20  1  0  0  0
 20 24  1  0  0  0
 20 21  2  0  0  0
 21 22  1  0  0  0
 21 35  1  0  0  0
 22 23  2  0  0  0
 22 36  1  0  0  0
 23 24  1  0  0  0
 23 37  1  0  0  0
 25 26  2  0  0  0
 25 38  1  0  0  0
M  CHG  1  38  -1
M  END
> <i_i_glide_confnum>
55

> <i_i_glide_lignum>
1979

> <i_i_glide_posenum>
299

> <i_i_glide_rotatable_bonds>
7

> <i_m_Source_File_Index>
4927

> <b_m_subgroup_collapsed>
0

> <r_i_docking_score>
-3.90467

> <r_i_glide_ecoul>
-6.68985

> <r_i_glide_eff_state_penalty>
0

> <r_i_glide_einternal>
7.75136

> <r_i_glide_emodel>
-53.9837

> <r_i_glide_energy>
-48.6098

> <r_i_glide_erotb>
0.609798

> <r_i_glide_esite>
-0.00123321

> <r_i_glide_evdw>
-41.92

> <r_i_glide_gscore>
-3.90467

> <r_i_glide_hbond>
-0.147947

> <r_i_glide_ligand_efficiency>
-0.144617

> <r_i_glide_ligand_efficiency_ln>
-0.908942

> <r_i_glide_ligand_efficiency_sa>
-0.433852

> <r_i_glide_lipo>
-1.50134

> <r_i_glide_metal>
0

> <r_i_glide_rewards>
0.235531

> <s_i_glide_gridfile>
wee1_glide-grid

> <s_m_Source_File>
wee1_decoys_glide_SP.sdf

> <s_m_Source_Path>
/Users/zhangxujun/Desktop

> <s_m_entry_id>
5202

> <s_m_entry_name>
wee1_decoys_glide_SP.4927

> <s_m_subgroup_title>
wee1_decoys_glide_SP

> <s_m_subgroupid>
wee1_decoys_glide_SP


$$$$
