@<TRIPOS>MOLECULE
ZINC45108677_4797
29   30    1
SMALL
USER_CHARGES


@<TRIPOS>ATOM
      1 C1          3.9036   54.2740   19.0438 C.3       1 UNK         0.0000 
      2 C2          4.8231   54.0114   20.2603 C.3       1 UNK         0.0000 
      3 C3          5.3152   52.5434   20.1577 C.3       1 UNK         0.0000 
      4 C4          5.9863   55.0649   20.1786 C.2       1 UNK         0.0000 
      5 O5          6.0197   56.0734   20.8820 O.2       1 UNK         0.0000 
      6 N6          6.9556   54.8740   19.2812 N.am      1 UNK         0.0000 
      7 N7          4.0174   54.1611   21.4845 N.pl3     1 UNK         0.0000 
      8 C8          4.3407   54.0994   22.8222 C.2       1 UNK         0.0000 
      9 N9          3.4144   54.0963   23.7383 N.2       1 UNK         0.0000 
     10 C10         3.9455   54.0972   24.9903 C.ar      1 UNK         0.0000 
     11 C11         3.1994   54.0967   26.1770 C.ar      1 UNK         0.0000 
     12 C12         3.8813   54.1207   27.3948 C.ar      1 UNK         0.0000 
     13 C13         5.2746   54.1291   27.4394 C.ar      1 UNK         0.0000 
     14 C14         6.0391   54.1174   26.2737 C.ar      1 UNK         0.0000 
     15 C15         5.3634   54.1070   25.0470 C.ar      1 UNK         0.0000 
     16 S16         5.9983   54.0964   23.4089 S.3       1 UNK         0.0000 
     17 Br17        2.8985   54.1531   29.0245 Br        1 UNK         0.0000 
     18 H18         4.4208   54.1196   18.0947 H         1 UNK         0.0000 
     19 H19         3.0432   53.6026   19.0394 H         1 UNK         0.0000 
     20 H20         3.5068   55.2916   19.0340 H         1 UNK         0.0000 
     21 H21         5.9440   52.3725   19.2837 H         1 UNK         0.0000 
     22 H22         5.8659   52.2231   21.0410 H         1 UNK         0.0000 
     23 H23         4.4742   51.8548   20.0663 H         1 UNK         0.0000 
     24 H24         6.9310   54.0828   18.6548 H         1 UNK         0.0000 
     25 H25         7.6997   55.5510   19.2130 H         1 UNK         0.0000 
     26 H26         3.0318   54.1737   21.2566 H         1 UNK         0.0000 
     27 H27         2.1220   54.0826   26.1497 H         1 UNK         0.0000 
     28 H28         5.7726   54.1473   28.3987 H         1 UNK         0.0000 
     29 H29         7.1151   54.1121   26.3195 H         1 UNK         0.0000 
@<TRIPOS>BOND
     1    1    2 1    
     2    1   18 1    
     3    1   19 1    
     4    1   20 1    
     5    2    3 1    
     6    2    4 1    
     7    2    7 1    
     8    3   21 1    
     9    3   22 1    
    10    3   23 1    
    11    4    5 2    
    12    4    6 am   BACKBONE|DICT|INTERRES
    13    6   24 1    
    14    6   25 1    
    15    7    8 1    
    16    7   26 1    
    17    8   16 1    
    18    8    9 2    
    19    9   10 1    
    20   10   15 ar   
    21   10   11 ar   
    22   11   12 ar   
    23   11   27 1    
    24   12   13 ar   
    25   12   17 1    
    26   13   14 ar   
    27   13   28 1    
    28   14   15 ar   
    29   14   29 1    
    30   15   16 1    
@<TRIPOS>SUBSTRUCTURE
     1 UNK         1 GROUP             0       ****    0 ROOT    
