@<TRIPOS>MOLECULE
ZINC19961918_1220
62   65    1
SMALL
USER_CHARGES


@<TRIPOS>ATOM
      1 C1          4.6044   54.0967   23.4434 C.ar      1 UNK         0.0000 
      2 C2          5.8157   54.5579   23.9549 C.ar      1 UNK         0.0000 
      3 C3          5.9483   54.7690   25.3226 C.ar      1 UNK         0.0000 
      4 C4          4.8943   54.4953   26.1850 C.ar      1 UNK         0.0000 
      5 C5          3.6909   54.0174   25.6742 C.ar      1 UNK         0.0000 
      6 C6          3.5262   53.8128   24.2947 C.ar      1 UNK         0.0000 
      7 N7          2.3216   53.3384   23.7721 N.pl3     1 UNK         0.0000 
      8 C8          1.0302   53.4493   24.4694 C.3       1 UNK         0.0000 
      9 C9          0.4649   52.0970   24.9376 C.3       1 UNK         0.0000 
     10 N10         0.2931   51.1957   23.6983 N.4       1 UNK         0.0000 
     11 C11         1.6651   51.0041   23.0173 C.3       1 UNK         0.0000 
     12 C12         2.2484   52.3880   22.6444 C.3       1 UNK         0.0000 
     13 C13        -0.3769   49.8405   24.0613 C.3       1 UNK         0.0000 
     14 C14        -1.9130   49.9981   24.1756 C.2       1 UNK         0.0000 
     15 O15        -2.4211   51.0901   23.8994 O.2       1 UNK         0.0000 
     16 N16        -2.6605   48.9380   24.5931 N.am      1 UNK         0.0000 
     17 C17        -4.1242   49.0789   24.6596 C.3       1 UNK         0.0000 
     18 C18        -4.7050   48.5567   23.3244 C.3       1 UNK         0.0000 
     19 N19        -4.1397   47.2494   22.9428 N.am      1 UNK         0.0000 
     20 C20        -2.9681   46.7321   23.3685 C.2       1 UNK         0.0000 
     21 O21        -2.5313   45.6964   22.8790 O.2       1 UNK         0.0000 
     22 C22        -2.2019   47.5316   24.4639 C.3       1 UNK         0.0000 
     23 H23        -1.2064   47.5141   24.0264 H         1 UNK         0.0000 
     24 C24        -2.0468   46.7151   25.7882 C.3       1 UNK         0.0000 
     25 C25        -3.3388   46.2393   26.4808 C.2       1 UNK         0.0000 
     26 O26        -3.9561   45.2968   25.9842 O.2       1 UNK         0.0000 
     27 N27        -3.6955   46.8967   27.6053 N.am      1 UNK         0.0000 
     28 C28        -4.8705   46.7952   28.3742 C.ar      1 UNK         0.0000 
     29 C29        -6.0077   46.0613   27.9938 C.ar      1 UNK         0.0000 
     30 C30        -7.1462   46.0559   28.8002 C.ar      1 UNK         0.0000 
     31 C31        -7.1663   46.7870   29.9862 C.ar      1 UNK         0.0000 
     32 C32        -6.0454   47.5197   30.3723 C.ar      1 UNK         0.0000 
     33 C33        -4.8994   47.5200   29.5724 C.ar      1 UNK         0.0000 
     34 Cl34       -6.0957   48.4333   31.8355 Cl        1 UNK         0.0000 
     35 Cl35       -8.5305   45.1424   28.3268 Cl        1 UNK         0.0000 
     36 F36         7.1044   55.2558   25.8187 F         1 UNK         0.0000 
     37 H37         4.5111   53.9724   22.3744 H         1 UNK         0.0000 
     38 H38         6.6416   54.7777   23.2946 H         1 UNK         0.0000 
     39 H39         5.0139   54.6517   27.2464 H         1 UNK         0.0000 
     40 H40         2.9017   53.7923   26.3736 H         1 UNK         0.0000 
     41 H41         0.3445   53.9311   23.7698 H         1 UNK         0.0000 
     42 H42         1.1045   54.1127   25.3255 H         1 UNK         0.0000 
     43 H43        -0.5299   52.2423   25.3622 H         1 UNK         0.0000 
     44 H44         1.1048   51.5824   25.6571 H         1 UNK         0.0000 
     45 H45         2.3037   50.4313   23.6928 H         1 UNK         0.0000 
     46 H46         1.4760   50.4304   22.1078 H         1 UNK         0.0000 
     47 H47         3.2199   52.2367   22.1735 H         1 UNK         0.0000 
     48 H48         1.6149   52.8735   21.8992 H         1 UNK         0.0000 
     49 H49         0.0981   49.4547   24.9672 H         1 UNK         0.0000 
     50 H50        -0.1429   49.1897   23.2179 H         1 UNK         0.0000 
     51 H51        -4.4511   50.0833   24.9372 H         1 UNK         0.0000 
     52 H52        -4.4820   48.4291   25.4572 H         1 UNK         0.0000 
     53 H53        -4.4952   49.2609   22.5174 H         1 UNK         0.0000 
     54 H54        -5.7874   48.4562   23.4124 H         1 UNK         0.0000 
     55 H55        -4.6226   46.7145   22.2359 H         1 UNK         0.0000 
     56 H56        -1.4534   47.3068   26.4816 H         1 UNK         0.0000 
     57 H57        -1.4297   45.8365   25.6075 H         1 UNK         0.0000 
     58 H58        -2.9951   47.5424   27.9757 H         1 UNK         0.0000 
     59 H59        -6.0402   45.4996   27.0742 H         1 UNK         0.0000 
     60 H60        -8.0521   46.7861   30.6050 H         1 UNK         0.0000 
     61 H61        -4.0376   48.0982   29.8811 H         1 UNK         0.0000 
     62 H62        -0.3227   51.6708   23.0497 H         1 UNK         0.0000 
@<TRIPOS>BOND
     1    1    6 ar   
     2    1    2 ar   
     3    1   37 1    
     4    2    3 ar   
     5    2   38 1    
     6    3    4 ar   
     7    3   36 1    
     8    4    5 ar   
     9    4   39 1    
    10    5    6 ar   
    11    5   40 1    
    12    6    7 1    
    13    7   12 1    
    14    7    8 1    
    15    8    9 1    
    16    8   41 1    
    17    8   42 1    
    18    9   10 1    
    19    9   43 1    
    20    9   44 1    
    21   10   11 1    
    22   10   13 1    
    23   10   62 1    
    24   11   12 1    
    25   11   45 1    
    26   11   46 1    
    27   12   47 1    
    28   12   48 1    
    29   13   14 1    
    30   13   49 1    
    31   13   50 1    
    32   14   15 2    
    33   14   16 am   BACKBONE|DICT|INTERRES
    34   16   22 1    
    35   16   17 1    
    36   17   18 1    
    37   17   51 1    
    38   17   52 1    
    39   18   19 1    
    40   18   53 1    
    41   18   54 1    
    42   19   20 am   BACKBONE|DICT|INTERRES
    43   19   55 1    
    44   20   21 2    
    45   20   22 1    
    46   22   23 1    
    47   22   24 1    
    48   24   25 1    
    49   24   56 1    
    50   24   57 1    
    51   25   26 2    
    52   25   27 am   BACKBONE|DICT|INTERRES
    53   27   28 1    
    54   27   58 1    
    55   28   33 ar   
    56   28   29 ar   
    57   29   30 ar   
    58   29   59 1    
    59   30   31 ar   
    60   30   35 1    
    61   31   32 ar   
    62   31   60 1    
    63   32   33 ar   
    64   32   34 1    
    65   33   61 1    
@<TRIPOS>SUBSTRUCTURE
     1 UNK         1 GROUP             0       ****    0 ROOT    
