@<TRIPOS>MOLECULE
ZINC20701392_4487
58   62    1
SMALL
USER_CHARGES


@<TRIPOS>ATOM
      1 C1          6.2843   54.2815   28.6673 C.3       1 UNK         0.0000 
      2 C2          4.9700   54.1892   27.9304 C.ar      1 UNK         0.0000 
      3 C3          3.7708   54.3527   28.6254 C.ar      1 UNK         0.0000 
      4 C4          2.5569   54.3082   27.9422 C.ar      1 UNK         0.0000 
      5 C5          2.5549   54.0967   26.5635 C.ar      1 UNK         0.0000 
      6 C6          3.7462   53.9347   25.8511 C.ar      1 UNK         0.0000 
      7 C7          4.9542   53.9835   26.5494 C.ar      1 UNK         0.0000 
      8 N8          3.8014   53.6968   24.4684 N.pl3     1 UNK         0.0000 
      9 S9          2.4229   53.5946   23.3536 S.o2      1 UNK         0.0000 
     10 O10         1.5044   54.6851   23.6816 O.2       1 UNK         0.0000 
     11 O11         3.0188   53.4832   22.0196 O.2       1 UNK         0.0000 
     12 C12         1.5720   52.0498   23.6818 C.ar      1 UNK         0.0000 
     13 C13         1.9043   50.8925   22.9759 C.ar      1 UNK         0.0000 
     14 C14         1.2421   49.6970   23.2474 C.ar      1 UNK         0.0000 
     15 C15         0.2606   49.6395   24.2383 C.ar      1 UNK         0.0000 
     16 C16        -0.0891   50.8050   24.9541 C.ar      1 UNK         0.0000 
     17 C17         0.5573   52.0015   24.6401 C.ar      1 UNK         0.0000 
     18 C18        -1.1237   50.6907   26.0634 C.3       1 UNK         0.0000 
     19 H19        -0.5950   50.3061   26.9397 H         1 UNK         0.0000 
     20 C20        -1.9789   51.8699   26.4823 C.2       1 UNK         0.0000 
     21 C21        -3.2080   51.4314   26.8235 C.2       1 UNK         0.0000 
     22 C22        -3.3561   49.9431   26.5422 C.3       1 UNK         0.0000 
     23 C23        -2.1817   49.7167   25.5920 C.3       1 UNK         0.0000 
     24 H24        -2.5432   50.0288   24.6063 H         1 UNK         0.0000 
     25 C25        -1.5513   48.3140   25.3978 C.3       1 UNK         0.0000 
     26 H26        -1.1067   47.9651   26.3284 H         1 UNK         0.0000 
     27 N27        -0.4197   48.4140   24.4481 N.pl3     1 UNK         0.0000 
     28 C28        -2.6365   47.3079   25.0046 C.ar      1 UNK         0.0000 
     29 C29        -3.0604   47.2522   23.6693 C.ar      1 UNK         0.0000 
     30 C30        -4.1175   46.4293   23.2899 C.ar      1 UNK         0.0000 
     31 C31        -4.7690   45.6537   24.2438 C.ar      1 UNK         0.0000 
     32 C32        -4.3491   45.6794   25.5734 C.ar      1 UNK         0.0000 
     33 C33        -3.2797   46.5005   25.9625 C.ar      1 UNK         0.0000 
     34 O34        -2.8957   46.4967   27.2817 O.3       1 UNK         0.0000 
     35 Cl35       -5.1667   44.6661   26.7142 Cl        1 UNK         0.0000 
     36 Cl36       -4.6260   46.3799   21.6422 Cl        1 UNK         0.0000 
     37 C37         1.2435   54.5051   28.6760 C.3       1 UNK         0.0000 
     38 H38         7.0144   54.8380   28.0813 H         1 UNK         0.0000 
     39 H39         6.6948   53.2970   28.8772 H         1 UNK         0.0000 
     40 H40         6.1512   54.8264   29.6021 H         1 UNK         0.0000 
     41 H41         3.7852   54.5268   29.6906 H         1 UNK         0.0000 
     42 H42         1.6105   54.0965   26.0571 H         1 UNK         0.0000 
     43 H43         5.8883   53.8553   26.0212 H         1 UNK         0.0000 
     44 H44         4.6988   53.4577   24.0772 H         1 UNK         0.0000 
     45 H45         2.6730   50.9151   22.2162 H         1 UNK         0.0000 
     46 H46         1.5064   48.8125   22.6893 H         1 UNK         0.0000 
     47 H47         0.2536   52.8967   25.1538 H         1 UNK         0.0000 
     48 H48        -1.5960   52.8726   26.6009 H         1 UNK         0.0000 
     49 H49        -4.0126   52.0247   27.2322 H         1 UNK         0.0000 
     50 H50        -4.3024   49.7077   26.0532 H         1 UNK         0.0000 
     51 H51        -3.2966   49.3350   27.4457 H         1 UNK         0.0000 
     52 H52         0.0714   47.5475   24.2948 H         1 UNK         0.0000 
     53 H53        -2.5830   47.8733   22.9246 H         1 UNK         0.0000 
     54 H54        -5.5984   45.0252   23.9512 H         1 UNK         0.0000 
     55 H55        -2.3087   47.2150   27.5950 H         1 UNK         0.0000 
     56 H56         0.6014   53.6336   28.5411 H         1 UNK         0.0000 
     57 H57         1.3854   54.6677   29.7454 H         1 UNK         0.0000 
     58 H58         0.7169   55.3665   28.2640 H         1 UNK         0.0000 
@<TRIPOS>BOND
     1    1    2 1    
     2    1   38 1    
     3    1   39 1    
     4    1   40 1    
     5    2    7 ar   
     6    2    3 ar   
     7    3    4 ar   
     8    3   41 1    
     9    4    5 ar   
    10    4   37 1    
    11    5    6 ar   
    12    5   42 1    
    13    6    7 ar   
    14    6    8 1    
    15    7   43 1    
    16    8    9 1    
    17    8   44 1    
    18    9   10 2    
    19    9   11 2    
    20    9   12 1    
    21   12   17 ar   
    22   12   13 ar   
    23   13   14 ar   
    24   13   45 1    
    25   14   15 ar   
    26   14   46 1    
    27   15   27 1    
    28   15   16 ar   
    29   16   17 ar   
    30   16   18 1    
    31   17   47 1    
    32   18   19 1    
    33   18   23 1    
    34   18   20 1    
    35   20   21 2    
    36   20   48 1    
    37   21   22 1    
    38   21   49 1    
    39   22   23 1    
    40   22   50 1    
    41   22   51 1    
    42   23   24 1    
    43   23   25 1    
    44   25   26 1    
    45   25   27 1    
    46   25   28 1    
    47   27   52 1    
    48   28   33 ar   
    49   28   29 ar   
    50   29   30 ar   
    51   29   53 1    
    52   30   31 ar   
    53   30   36 1    
    54   31   32 ar   
    55   31   54 1    
    56   32   33 ar   
    57   32   35 1    
    58   33   34 1    
    59   34   55 1    
    60   37   56 1    
    61   37   57 1    
    62   37   58 1    
@<TRIPOS>SUBSTRUCTURE
     1 UNK         1 GROUP             0       ****    0 ROOT    
