@<TRIPOS>MOLECULE
ZINC21816263_3767
38   39    1
SMALL
USER_CHARGES


@<TRIPOS>ATOM
      1 C1          5.6649   53.7052   23.9298 C.3       1 UNK         0.0000 
      2 C2          4.3554   54.1161   24.6562 C.3       1 UNK         0.0000 
      3 H3          4.1114   55.1494   24.4213 H         1 UNK         0.0000 
      4 C4          4.6536   54.1027   26.1826 C.3       1 UNK         0.0000 
      5 C5          3.4209   54.3819   27.0411 C.3       1 UNK         0.0000 
      6 C6          2.2938   53.4145   26.6784 C.3       1 UNK         0.0000 
      7 C7          1.9278   53.4960   25.1779 C.3       1 UNK         0.0000 
      8 H8          1.5431   54.4964   24.9786 H         1 UNK         0.0000 
      9 N9          3.1196   53.2977   24.2652 N.pl3     1 UNK         0.0000 
     10 S10         2.7173   52.8489   22.5443 S.o2      1 UNK         0.0000 
     11 O11         2.7019   51.3864   22.4816 O.2       1 UNK         0.0000 
     12 O12         1.5051   53.6003   22.2017 O.2       1 UNK         0.0000 
     13 C13         3.9548   53.4030   21.3368 C.ar      1 UNK         0.0000 
     14 C14         4.4568   54.6881   21.4361 C.ar      1 UNK         0.0000 
     15 C15         5.4433   55.1709   20.5715 C.ar      1 UNK         0.0000 
     16 C16         5.8754   54.3714   19.5189 C.ar      1 UNK         0.0000 
     17 C17         5.3347   53.1018   19.3601 C.ar      1 UNK         0.0000 
     18 C18         4.3933   52.6090   20.2706 C.ar      1 UNK         0.0000 
     19 N19         3.9072   51.3180   20.0824 N.pl3     1 UNK         0.0000 
     20 Cl20        7.0712   54.9598   18.4180 Cl        1 UNK         0.0000 
     21 C21         0.8148   52.4512   24.9020 C.3       1 UNK         0.0000 
     22 H22         6.4388   53.3591   24.6184 H         1 UNK         0.0000 
     23 H23         6.1178   54.5459   23.4134 H         1 UNK         0.0000 
     24 H24         5.5372   52.8852   23.2253 H         1 UNK         0.0000 
     25 H25         5.0505   53.1317   26.4862 H         1 UNK         0.0000 
     26 H26         5.3887   54.8717   26.4246 H         1 UNK         0.0000 
     27 H27         3.6690   54.2936   28.0998 H         1 UNK         0.0000 
     28 H28         3.1072   55.4068   26.8879 H         1 UNK         0.0000 
     29 H29         2.6240   52.4088   26.9362 H         1 UNK         0.0000 
     30 H30         1.4250   53.6565   27.2951 H         1 UNK         0.0000 
     31 H31         4.0499   55.2966   22.2209 H         1 UNK         0.0000 
     32 H32         5.8284   56.1743   20.6831 H         1 UNK         0.0000 
     33 H33         5.6584   52.4966   18.5228 H         1 UNK         0.0000 
     34 H34         4.2695   50.7967   19.2715 H         1 UNK         0.0000 
     35 H35         3.3237   50.9046   20.7972 H         1 UNK         0.0000 
     36 H36         0.0607   52.4619   25.6895 H         1 UNK         0.0000 
     37 H37         0.2613   52.6450   23.9854 H         1 UNK         0.0000 
     38 H38         1.2100   51.4352   24.8471 H         1 UNK         0.0000 
@<TRIPOS>BOND
     1    1    2 1    
     2    1   22 1    
     3    1   23 1    
     4    1   24 1    
     5    2    3 1    
     6    2    9 1    
     7    2    4 1    
     8    4    5 1    
     9    4   25 1    
    10    4   26 1    
    11    5    6 1    
    12    5   27 1    
    13    5   28 1    
    14    6    7 1    
    15    6   29 1    
    16    6   30 1    
    17    7    8 1    
    18    7    9 1    
    19    7   21 1    
    20    9   10 1    
    21   10   11 2    
    22   10   12 2    
    23   10   13 1    
    24   13   18 ar   
    25   13   14 ar   
    26   14   15 ar   
    27   14   31 1    
    28   15   16 ar   
    29   15   32 1    
    30   16   17 ar   
    31   16   20 1    
    32   17   18 ar   
    33   17   33 1    
    34   18   19 1    
    35   19   34 1    
    36   19   35 1    
    37   21   36 1    
    38   21   37 1    
    39   21   38 1    
@<TRIPOS>SUBSTRUCTURE
     1 UNK         1 GROUP             0       ****    0 ROOT    
