@<TRIPOS>MOLECULE
ZINC17302280_2459
48   50    1
SMALL
USER_CHARGES


@<TRIPOS>ATOM
      1 C1          6.9115   56.2672   17.6005 C.3       1 UNK         0.0000 
      2 C2          6.7837   56.2606   19.1188 C.2       1 UNK         0.0000 
      3 O3          7.1040   57.2670   19.7508 O.2       1 UNK         0.0000 
      4 N4          6.2885   55.1345   19.6698 N.am      1 UNK         0.0000 
      5 C5          6.0723   54.9014   21.0353 C.ar      1 UNK         0.0000 
      6 C6          6.9854   55.2970   22.0236 C.ar      1 UNK         0.0000 
      7 C7          6.7032   55.0628   23.3676 C.ar      1 UNK         0.0000 
      8 C8          5.5000   54.4357   23.7230 C.ar      1 UNK         0.0000 
      9 C9          4.6189   54.0026   22.7299 C.ar      1 UNK         0.0000 
     10 C10         4.9094   54.2208   21.3884 C.ar      1 UNK         0.0000 
     11 N11         5.0358   54.2912   25.0378 N.am      1 UNK         0.0000 
     12 C12         5.6728   54.4452   26.2159 C.2       1 UNK         0.0000 
     13 O13         6.8940   54.5521   26.3392 O.2       1 UNK         0.0000 
     14 C14         4.7735   54.4452   27.4750 C.3       1 UNK         0.0000 
     15 C15         3.2687   54.7441   27.1986 C.3       1 UNK         0.0000 
     16 C16         2.5076   54.8571   28.5220 C.3       1 UNK         0.0000 
     17 N17         2.6963   53.6025   29.2736 N.pl3     1 UNK         0.0000 
     18 C18         4.0974   53.3403   29.6817 C.3       1 UNK         0.0000 
     19 C19         5.0431   53.2750   28.4517 C.3       1 UNK         0.0000 
     20 S20         1.3881   53.1525   30.3749 S.o2      1 UNK         0.0000 
     21 O21         1.8579   52.0968   31.2788 O.2       1 UNK         0.0000 
     22 O22         0.7452   54.3710   30.8809 O.2       1 UNK         0.0000 
     23 C23         0.1926   52.4127   29.2476 C.2       1 UNK         0.0000 
     24 C24        -0.9178   51.6966   29.6526 C.2       1 UNK         0.0000 
     25 C25        -1.7191   51.2967   28.5776 C.2       1 UNK         0.0000 
     26 C26        -1.1929   51.6561   27.3461 C.2       1 UNK         0.0000 
     27 S27         0.3115   52.4916   27.5149 S.3       1 UNK         0.0000 
     28 Br28       -1.9141   51.3137   25.6197 Br        1 UNK         0.0000 
     29 H29         6.4555   55.3852   17.1488 H         1 UNK         0.0000 
     30 H30         7.9628   56.2952   17.3164 H         1 UNK         0.0000 
     31 H31         6.4229   57.1514   17.1888 H         1 UNK         0.0000 
     32 H32         5.9181   54.4386   19.0401 H         1 UNK         0.0000 
     33 H33         7.9081   55.7942   21.7609 H         1 UNK         0.0000 
     34 H34         7.4039   55.4150   24.1085 H         1 UNK         0.0000 
     35 H35         3.6874   53.5188   22.9877 H         1 UNK         0.0000 
     36 H36         4.2052   53.8990   20.6338 H         1 UNK         0.0000 
     37 H37         4.0618   54.0433   25.1055 H         1 UNK         0.0000 
     38 H38         5.1733   55.3039   28.0029 H         1 UNK         0.0000 
     39 H39         3.1095   55.6937   26.6927 H         1 UNK         0.0000 
     40 H40         2.8014   53.9352   26.6346 H         1 UNK         0.0000 
     41 H41         2.9383   55.6796   29.0965 H         1 UNK         0.0000 
     42 H42         1.4449   55.0471   28.3635 H         1 UNK         0.0000 
     43 H43         4.4331   54.1937   30.2727 H         1 UNK         0.0000 
     44 H44         4.1576   52.4258   30.2724 H         1 UNK         0.0000 
     45 H45         4.8227   52.3256   27.9667 H         1 UNK         0.0000 
     46 H46         6.0712   53.2933   28.8180 H         1 UNK         0.0000 
     47 H47        -1.1565   51.4883   30.6888 H         1 UNK         0.0000 
     48 H48        -2.6301   50.7270   28.6944 H         1 UNK         0.0000 
@<TRIPOS>BOND
     1    1    2 1    
     2    1   29 1    
     3    1   30 1    
     4    1   31 1    
     5    2    3 2    
     6    2    4 am   BACKBONE|DICT|INTERRES
     7    4    5 1    
     8    4   32 1    
     9    5   10 ar   
    10    5    6 ar   
    11    6    7 ar   
    12    6   33 1    
    13    7    8 ar   
    14    7   34 1    
    15    8    9 ar   
    16    8   11 1    
    17    9   10 ar   
    18    9   35 1    
    19   10   36 1    
    20   11   12 am   BACKBONE|DICT|INTERRES
    21   11   37 1    
    22   12   13 2    
    23   12   14 1    
    24   14   19 1    
    25   14   15 1    
    26   14   38 1    
    27   15   16 1    
    28   15   39 1    
    29   15   40 1    
    30   16   17 1    
    31   16   41 1    
    32   16   42 1    
    33   17   18 1    
    34   17   20 1    
    35   18   19 1    
    36   18   43 1    
    37   18   44 1    
    38   19   45 1    
    39   19   46 1    
    40   20   21 2    
    41   20   22 2    
    42   20   23 1    
    43   23   27 1    
    44   23   24 2    
    45   24   25 1    
    46   24   47 1    
    47   25   26 2    
    48   25   48 1    
    49   26   27 1    
    50   26   28 1    
@<TRIPOS>SUBSTRUCTURE
     1 UNK         1 GROUP             0       ****    0 ROOT    
