@<TRIPOS>MOLECULE
ZINC64790090_611
59   62    1
SMALL
USER_CHARGES


@<TRIPOS>ATOM
      1 C1          4.1792   54.0173   21.0155 C.3       1 UNK         0.0000 
      2 C2          3.3872   52.8610   21.5941 C.ar      1 UNK         0.0000 
      3 C3          3.4309   51.5961   20.9942 C.ar      1 UNK         0.0000 
      4 C4          2.7047   50.5450   21.5586 C.ar      1 UNK         0.0000 
      5 N5          1.9825   50.7694   22.6745 N.pl3     1 UNK         0.0000 
      6 C6          1.9041   51.9704   23.2902 C.ar      1 UNK         0.0000 
      7 C7          2.6093   53.0479   22.7455 C.ar      1 UNK         0.0000 
      8 N8          1.1328   52.1415   24.4779 N.pl3     1 UNK         0.0000 
      9 C9          0.3646   51.0629   25.1335 C.3       1 UNK         0.0000 
     10 H10         1.1046   50.2793   25.2826 H         1 UNK         0.0000 
     11 C11        -0.1662   51.4058   26.5330 C.2       1 UNK         0.0000 
     12 C12        -1.4166   50.9763   27.0142 C.2       1 UNK         0.0000 
     13 C13        -1.7264   51.2967   28.3254 C.2       1 UNK         0.0000 
     14 S14        -0.4148   52.1811   29.0226 S.3       1 UNK         0.0000 
     15 C15         0.5152   52.1050   27.5420 C.2       1 UNK         0.0000 
     16 N16         1.7935   52.6479   27.4221 N.am      1 UNK         0.0000 
     17 C17         2.5363   53.2827   28.3559 C.2       1 UNK         0.0000 
     18 O18         2.2218   53.4889   29.5296 O.2       1 UNK         0.0000 
     19 C19         3.8192   53.6966   27.8584 C.2       1 UNK         0.0000 
     20 C20         4.2605   54.0592   26.5845 C.2       1 UNK         0.0000 
     21 C21         5.6019   54.4257   26.7104 C.2       1 UNK         0.0000 
     22 C22         5.9065   54.3175   28.0559 C.2       1 UNK         0.0000 
     23 O23         4.8192   53.9074   28.7553 O.3       1 UNK         0.0000 
     24 C24        -2.9584   50.9251   29.1148 C.3       1 UNK         0.0000 
     25 C25        -0.6862   50.4510   24.1996 C.ar      1 UNK         0.0000 
     26 C26        -0.5781   49.1000   23.8501 C.ar      1 UNK         0.0000 
     27 C27        -1.5084   48.4955   23.0085 C.ar      1 UNK         0.0000 
     28 C28        -2.5822   49.2600   22.5316 C.ar      1 UNK         0.0000 
     29 C29        -2.7047   50.6034   22.8818 C.ar      1 UNK         0.0000 
     30 C30        -1.7514   51.2226   23.7079 C.ar      1 UNK         0.0000 
     31 O31        -1.7928   52.5583   24.0726 O.3       1 UNK         0.0000 
     32 C32        -2.8181   53.3874   23.5505 C.3       1 UNK         0.0000 
     33 O33        -1.2956   47.1660   22.7065 O.3       1 UNK         0.0000 
     34 C34        -2.1801   46.5069   21.8078 C.3       1 UNK         0.0000 
     35 H35         4.7574   53.7213   20.1385 H         1 UNK         0.0000 
     36 H36         3.5055   54.8244   20.7259 H         1 UNK         0.0000 
     37 H37         4.8678   54.4170   21.7621 H         1 UNK         0.0000 
     38 H38         4.0160   51.4271   20.0986 H         1 UNK         0.0000 
     39 H39         2.6826   49.5388   21.1610 H         1 UNK         0.0000 
     40 H40         2.5648   54.0225   23.2101 H         1 UNK         0.0000 
     41 H41         1.0460   53.0688   24.8678 H         1 UNK         0.0000 
     42 H42        -2.1005   50.3891   26.4202 H         1 UNK         0.0000 
     43 H43         2.2413   52.5046   26.5310 H         1 UNK         0.0000 
     44 H44         3.6863   54.0457   25.6695 H         1 UNK         0.0000 
     45 H45         6.2655   54.7397   25.9180 H         1 UNK         0.0000 
     46 H46         6.7990   54.4964   28.6358 H         1 UNK         0.0000 
     47 H47        -3.4024   50.0036   28.7385 H         1 UNK         0.0000 
     48 H48        -2.7310   50.7473   30.1664 H         1 UNK         0.0000 
     49 H49        -3.7240   51.6963   29.0570 H         1 UNK         0.0000 
     50 H50         0.2327   48.5001   24.2390 H         1 UNK         0.0000 
     51 H51        -3.3349   48.8273   21.8908 H         1 UNK         0.0000 
     52 H52        -3.5543   51.1449   22.4993 H         1 UNK         0.0000 
     53 H53        -2.5770   54.4401   23.6817 H         1 UNK         0.0000 
     54 H54        -2.8967   53.2518   22.4813 H         1 UNK         0.0000 
     55 H55        -3.7807   53.1809   24.0200 H         1 UNK         0.0000 
     56 H56        -1.8438   45.4803   21.6619 H         1 UNK         0.0000 
     57 H57        -3.1973   46.4704   22.2010 H         1 UNK         0.0000 
     58 H58        -2.1905   46.9922   20.8302 H         1 UNK         0.0000 
     59 H59         1.4523   50.0048   23.0703 H         1 UNK         0.0000 
@<TRIPOS>BOND
     1    1    2 1    
     2    1   35 1    
     3    1   36 1    
     4    1   37 1    
     5    2    7 ar   
     6    2    3 ar   
     7    3    4 ar   
     8    3   38 1    
     9    4    5 ar   
    10    4   39 1    
    11    5    6 ar   
    12    5   59 1    
    13    6    7 ar   
    14    6    8 1    
    15    7   40 1    
    16    8    9 1    
    17    8   41 1    
    18    9   10 1    
    19    9   11 1    
    20    9   25 1    
    21   11   15 2    
    22   11   12 1    
    23   12   13 2    
    24   12   42 1    
    25   13   14 1    
    26   13   24 1    
    27   14   15 1    
    28   15   16 am   BACKBONE|DICT|INTERRES
    29   16   17 am   BACKBONE|DICT|INTERRES
    30   16   43 1    
    31   17   18 2    
    32   17   19 1    
    33   19   23 1    
    34   19   20 2    
    35   20   21 1    
    36   20   44 1    
    37   21   22 2    
    38   21   45 1    
    39   22   23 1    
    40   22   46 1    
    41   24   47 1    
    42   24   48 1    
    43   24   49 1    
    44   25   30 ar   
    45   25   26 ar   
    46   26   27 ar   
    47   26   50 1    
    48   27   28 ar   
    49   27   33 1    
    50   28   29 ar   
    51   28   51 1    
    52   29   30 ar   
    53   29   52 1    
    54   30   31 1    
    55   31   32 1    
    56   32   53 1    
    57   32   54 1    
    58   32   55 1    
    59   33   34 1    
    60   34   56 1    
    61   34   57 1    
    62   34   58 1    
@<TRIPOS>SUBSTRUCTURE
     1 UNK         1 GROUP             0       ****    0 ROOT    
