@<TRIPOS>MOLECULE
ZINC62562112_1917
39   41    1
SMALL
USER_CHARGES


@<TRIPOS>ATOM
      1 C1          0.3662   52.2107   30.7029 C.3       1 UNK         0.0000 
      2 C2          0.1604   53.5248   29.9371 C.3       1 UNK         0.0000 
      3 C3          0.4702   54.7494   30.8183 C.3       1 UNK         0.0000 
      4 C4          0.9159   53.4783   28.6116 C.ar      1 UNK         0.0000 
      5 C5          2.0537   54.2572   28.3749 C.ar      1 UNK         0.0000 
      6 C6          2.7048   54.1834   27.1505 C.ar      1 UNK         0.0000 
      7 C7          2.2152   53.3536   26.1390 C.ar      1 UNK         0.0000 
      8 C8          1.1046   52.5406   26.3941 C.ar      1 UNK         0.0000 
      9 C9          0.4572   52.6067   27.6199 C.ar      1 UNK         0.0000 
     10 C10         2.9048   53.3127   24.7712 C.3       1 UNK         0.0000 
     11 H11         3.0990   52.2631   24.6040 H         1 UNK         0.0000 
     12 C12         1.9307   53.7098   23.6103 C.2       1 UNK         0.0000 
     13 O13         0.7034   53.6976   23.6787 O.2       1 UNK         0.0000 
     14 N14         2.6036   54.0249   22.4848 N.am      1 UNK         0.0000 
     15 C15         3.9781   54.2068   22.3690 C.ar      1 UNK         0.0000 
     16 C16         4.5596   54.4966   21.1363 C.ar      1 UNK         0.0000 
     17 C17         5.9046   54.8659   21.0720 C.ar      1 UNK         0.0000 
     18 C18         6.6815   54.8958   22.2323 C.ar      1 UNK         0.0000 
     19 C19         6.1236   54.5392   23.4608 C.ar      1 UNK         0.0000 
     20 C20         4.7622   54.2102   23.5259 C.ar      1 UNK         0.0000 
     21 O21         4.1645   54.0330   24.7601 O.3       1 UNK         0.0000 
     22 N22         6.9201   54.5558   24.6039 N.pl3     1 UNK         0.0000 
     23 F23         6.4556   55.1989   19.8866 F         1 UNK         0.0000 
     24 H24        -0.0901   51.3765   30.1647 H         1 UNK         0.0000 
     25 H25        -0.0953   52.2503   31.6855 H         1 UNK         0.0000 
     26 H26         1.4227   51.9884   30.8533 H         1 UNK         0.0000 
     27 H27        -0.8955   53.5969   29.6832 H         1 UNK         0.0000 
     28 H28         0.3095   55.6864   30.2824 H         1 UNK         0.0000 
     29 H29        -0.1558   54.7671   31.7076 H         1 UNK         0.0000 
     30 H30         1.5034   54.7399   31.1483 H         1 UNK         0.0000 
     31 H31         2.4476   54.9286   29.1206 H         1 UNK         0.0000 
     32 H32         3.5718   54.8050   26.9855 H         1 UNK         0.0000 
     33 H33         0.7302   51.8695   25.6379 H         1 UNK         0.0000 
     34 H34        -0.4113   51.9869   27.7909 H         1 UNK         0.0000 
     35 H35         2.0167   54.2257   21.6837 H         1 UNK         0.0000 
     36 H36         3.9611   54.4982   20.2361 H         1 UNK         0.0000 
     37 H37         7.7228   55.1784   22.1632 H         1 UNK         0.0000 
     38 H38         7.9206   54.6574   24.4761 H         1 UNK         0.0000 
     39 H39         6.5336   54.1506   25.4448 H         1 UNK         0.0000 
@<TRIPOS>BOND
     1    1    2 1    
     2    1   24 1    
     3    1   25 1    
     4    1   26 1    
     5    2    3 1    
     6    2    4 1    
     7    2   27 1    
     8    3   28 1    
     9    3   29 1    
    10    3   30 1    
    11    4    9 ar   
    12    4    5 ar   
    13    5    6 ar   
    14    5   31 1    
    15    6    7 ar   
    16    6   32 1    
    17    7    8 ar   
    18    7   10 1    
    19    8    9 ar   
    20    8   33 1    
    21    9   34 1    
    22   10   11 1    
    23   10   21 1    
    24   10   12 1    
    25   12   13 2    
    26   12   14 am   BACKBONE|DICT|INTERRES
    27   14   15 1    
    28   14   35 1    
    29   15   20 ar   
    30   15   16 ar   
    31   16   17 ar   
    32   16   36 1    
    33   17   18 ar   
    34   17   23 1    
    35   18   19 ar   
    36   18   37 1    
    37   19   20 ar   
    38   19   22 1    
    39   20   21 1    
    40   22   38 1    
    41   22   39 1    
@<TRIPOS>SUBSTRUCTURE
     1 UNK         1 GROUP             0       ****    0 ROOT    
