@<TRIPOS>MOLECULE
ZINC22820697_2872
61   65    1
SMALL
USER_CHARGES


@<TRIPOS>ATOM
      1 C1          2.5663   50.8047   19.9234 C.3       1 UNK         0.0000 
      2 C2          3.3004   52.0136   20.4958 C.2       1 UNK         0.0000 
      3 C3          3.0340   52.7525   21.6074 C.2       1 UNK         0.0000 
      4 C4          3.8534   54.0455   21.9350 C.3       1 UNK         0.0000 
      5 H5          3.1411   54.8739   21.9055 H         1 UNK         0.0000 
      6 N6          4.8828   54.3885   20.9203 N.2       1 UNK         0.0000 
      7 C7          5.0820   53.6354   19.9017 C.2       1 UNK         0.0000 
      8 N8          4.3362   52.4537   19.6816 N.pl3     1 UNK         0.0000 
      9 N9          6.0786   53.9118   18.9264 N.pl3     1 UNK         0.0000 
     10 C10         6.8339   55.0553   18.7957 C.2       1 UNK         0.0000 
     11 N11         6.3770   56.2756   18.7768 N.2       1 UNK         0.0000 
     12 C12         7.3721   57.1566   18.5002 C.ar      1 UNK         0.0000 
     13 C13         7.1988   58.5385   18.3757 C.ar      1 UNK         0.0000 
     14 C14         8.3148   59.3223   18.0826 C.ar      1 UNK         0.0000 
     15 C15         9.5833   58.7608   17.9441 C.ar      1 UNK         0.0000 
     16 C16         9.7840   57.3851   18.0697 C.ar      1 UNK         0.0000 
     17 C17         8.6628   56.5873   18.3310 C.ar      1 UNK         0.0000 
     18 S18         8.5401   54.8454   18.4827 S.3       1 UNK         0.0000 
     19 C19         4.4326   54.1137   23.3716 C.ar      1 UNK         0.0000 
     20 C20         5.8067   54.0203   23.6409 C.ar      1 UNK         0.0000 
     21 C21         6.2870   54.0966   24.9506 C.ar      1 UNK         0.0000 
     22 C22         5.4022   54.2372   26.0323 C.ar      1 UNK         0.0000 
     23 C23         4.0341   54.3592   25.7666 C.ar      1 UNK         0.0000 
     24 C24         3.5698   54.3366   24.4544 C.ar      1 UNK         0.0000 
     25 O25         3.1197   54.4971   26.7824 O.3       1 UNK         0.0000 
     26 C26         2.7841   53.2730   27.4250 C.3       1 UNK         0.0000 
     27 O27         5.7856   54.2611   27.3603 O.3       1 UNK         0.0000 
     28 C28         7.1091   53.8898   27.7069 C.3       1 UNK         0.0000 
     29 C29         1.9103   52.4494   22.4713 C.2       1 UNK         0.0000 
     30 O30         1.0684   53.2971   22.7502 O.2       1 UNK         0.0000 
     31 N31         1.9035   51.1964   22.9619 N.am      1 UNK         0.0000 
     32 C32         0.9555   50.6304   23.8227 C.ar      1 UNK         0.0000 
     33 C33         0.7008   49.2726   23.6507 C.ar      1 UNK         0.0000 
     34 C34        -0.2197   48.6247   24.4687 C.ar      1 UNK         0.0000 
     35 C35        -0.8769   49.3421   25.4644 C.ar      1 UNK         0.0000 
     36 C36        -0.6156   50.6964   25.6597 C.ar      1 UNK         0.0000 
     37 C37         0.3039   51.3459   24.8394 C.ar      1 UNK         0.0000 
     38 H38         1.6656   50.5338   20.4711 H         1 UNK         0.0000 
     39 H39         2.2570   51.0107   18.8981 H         1 UNK         0.0000 
     40 H40         3.2258   49.9376   19.8977 H         1 UNK         0.0000 
     41 H41         4.7069   51.8191   18.9774 H         1 UNK         0.0000 
     42 H42         6.3524   53.1181   18.3678 H         1 UNK         0.0000 
     43 H43         6.2247   58.9963   18.4764 H         1 UNK         0.0000 
     44 H44         8.1894   60.3888   17.9608 H         1 UNK         0.0000 
     45 H45        10.4245   59.3998   17.7204 H         1 UNK         0.0000 
     46 H46        10.7666   56.9469   17.9562 H         1 UNK         0.0000 
     47 H47         6.5153   53.8843   22.8381 H         1 UNK         0.0000 
     48 H48         7.3512   54.0194   25.1062 H         1 UNK         0.0000 
     49 H49         2.5122   54.4791   24.2978 H         1 UNK         0.0000 
     50 H50         2.0328   53.4606   28.1916 H         1 UNK         0.0000 
     51 H51         2.3647   52.5528   26.7212 H         1 UNK         0.0000 
     52 H52         3.6471   52.8160   27.9108 H         1 UNK         0.0000 
     53 H53         7.2050   53.8658   28.7927 H         1 UNK         0.0000 
     54 H54         7.3588   52.8968   27.3325 H         1 UNK         0.0000 
     55 H55         7.8366   54.6074   27.3288 H         1 UNK         0.0000 
     56 H56         2.5847   50.5598   22.5785 H         1 UNK         0.0000 
     57 H57         1.2132   48.7095   22.8846 H         1 UNK         0.0000 
     58 H58        -0.4208   47.5706   24.3409 H         1 UNK         0.0000 
     59 H59        -1.5933   48.8347   26.0912 H         1 UNK         0.0000 
     60 H60        -1.1243   51.2329   26.4480 H         1 UNK         0.0000 
     61 H61         0.5079   52.3922   25.0091 H         1 UNK         0.0000 
@<TRIPOS>BOND
     1    1    2 1    
     2    1   38 1    
     3    1   39 1    
     4    1   40 1    
     5    2    8 1    
     6    2    3 2    
     7    3    4 1    
     8    3   29 1    
     9    4    5 1    
    10    4    6 1    
    11    4   19 1    
    12    6    7 2    
    13    7    8 1    
    14    7    9 1    
    15    8   41 1    
    16    9   10 1    
    17    9   42 1    
    18   10   18 1    
    19   10   11 2    
    20   11   12 1    
    21   12   17 ar   
    22   12   13 ar   
    23   13   14 ar   
    24   13   43 1    
    25   14   15 ar   
    26   14   44 1    
    27   15   16 ar   
    28   15   45 1    
    29   16   17 ar   
    30   16   46 1    
    31   17   18 1    
    32   19   24 ar   
    33   19   20 ar   
    34   20   21 ar   
    35   20   47 1    
    36   21   22 ar   
    37   21   48 1    
    38   22   23 ar   
    39   22   27 1    
    40   23   24 ar   
    41   23   25 1    
    42   24   49 1    
    43   25   26 1    
    44   26   50 1    
    45   26   51 1    
    46   26   52 1    
    47   27   28 1    
    48   28   53 1    
    49   28   54 1    
    50   28   55 1    
    51   29   30 2    
    52   29   31 am   BACKBONE|DICT|INTERRES
    53   31   32 1    
    54   31   56 1    
    55   32   37 ar   
    56   32   33 ar   
    57   33   34 ar   
    58   33   57 1    
    59   34   35 ar   
    60   34   58 1    
    61   35   36 ar   
    62   35   59 1    
    63   36   37 ar   
    64   36   60 1    
    65   37   61 1    
@<TRIPOS>SUBSTRUCTURE
     1 UNK         1 GROUP             0       ****    0 ROOT    
