@<TRIPOS>MOLECULE
ZINC61360370_1914
39   41    1
SMALL
USER_CHARGES


@<TRIPOS>ATOM
      1 C1          1.0834   49.8729   22.7851 C.3       1 UNK         0.0000 
      2 C2          0.7865   50.5932   24.1020 C.ar      1 UNK         0.0000 
      3 C3          0.3052   49.8639   25.2101 C.ar      1 UNK         0.0000 
      4 C4          0.0941   50.4976   26.4336 C.ar      1 UNK         0.0000 
      5 C5          0.3649   51.8517   26.5804 C.ar      1 UNK         0.0000 
      6 C6          0.8167   52.5852   25.4899 C.ar      1 UNK         0.0000 
      7 C7          1.0106   51.9811   24.2431 C.ar      1 UNK         0.0000 
      8 S8          1.4139   53.0582   22.8505 S.o2      1 UNK         0.0000 
      9 O9          0.6486   52.5658   21.7004 O.2       1 UNK         0.0000 
     10 O10         1.2609   54.4441   23.3116 O.2       1 UNK         0.0000 
     11 N11         3.1072   52.7925   22.4812 N.pl3     1 UNK         0.0000 
     12 C12         4.0109   53.9647   22.5222 C.3       1 UNK         0.0000 
     13 H13         3.4398   54.8707   22.3083 H         1 UNK         0.0000 
     14 C14         5.0136   53.7746   21.3600 C.3       1 UNK         0.0000 
     15 C15         6.0747   54.8931   21.3353 C.3       1 UNK         0.0000 
     16 C16         6.9670   54.8926   22.5964 C.3       1 UNK         0.0000 
     17 C17         6.1074   54.6708   23.8321 C.2       1 UNK         0.0000 
     18 C18         4.7801   54.2175   23.8204 C.2       1 UNK         0.0000 
     19 C19         4.2673   54.0974   25.1203 C.2       1 UNK         0.0000 
     20 C20         5.1810   54.4259   26.1091 C.2       1 UNK         0.0000 
     21 S21         6.7043   54.8977   25.4455 S.3       1 UNK         0.0000 
     22 N22         0.0267   48.4988   25.1348 N.pl3     1 UNK         0.0000 
     23 H23         0.1889   49.8207   22.1645 H         1 UNK         0.0000 
     24 H24         1.4491   48.8629   22.9580 H         1 UNK         0.0000 
     25 H25         1.8798   50.3557   22.2224 H         1 UNK         0.0000 
     26 H26        -0.2755   49.9400   27.2814 H         1 UNK         0.0000 
     27 H27         0.2066   52.3332   27.5338 H         1 UNK         0.0000 
     28 H28         1.0025   53.6407   25.6190 H         1 UNK         0.0000 
     29 H29         3.1868   52.2883   21.5946 H         1 UNK         0.0000 
     30 H30         5.5046   52.8025   21.4375 H         1 UNK         0.0000 
     31 H31         4.4789   53.7678   20.4083 H         1 UNK         0.0000 
     32 H32         6.6984   54.7987   20.4451 H         1 UNK         0.0000 
     33 H33         5.5744   55.8581   21.2409 H         1 UNK         0.0000 
     34 H34         7.7080   54.0969   22.5201 H         1 UNK         0.0000 
     35 H35         7.5120   55.8337   22.6624 H         1 UNK         0.0000 
     36 H36         3.2605   53.7757   25.3287 H         1 UNK         0.0000 
     37 H37         5.0349   54.4059   27.1791 H         1 UNK         0.0000 
     38 H38        -0.1949   48.0351   26.0105 H         1 UNK         0.0000 
     39 H39         0.5883   47.9851   24.4726 H         1 UNK         0.0000 
@<TRIPOS>BOND
     1    1    2 1    
     2    1   23 1    
     3    1   24 1    
     4    1   25 1    
     5    2    7 ar   
     6    2    3 ar   
     7    3    4 ar   
     8    3   22 1    
     9    4    5 ar   
    10    4   26 1    
    11    5    6 ar   
    12    5   27 1    
    13    6    7 ar   
    14    6   28 1    
    15    7    8 1    
    16    8    9 2    
    17    8   10 2    
    18    8   11 1    
    19   11   12 1    
    20   11   29 1    
    21   12   13 1    
    22   12   18 1    
    23   12   14 1    
    24   14   15 1    
    25   14   30 1    
    26   14   31 1    
    27   15   16 1    
    28   15   32 1    
    29   15   33 1    
    30   16   17 1    
    31   16   34 1    
    32   16   35 1    
    33   17   21 1    
    34   17   18 2    
    35   18   19 1    
    36   19   20 2    
    37   19   36 1    
    38   20   21 1    
    39   20   37 1    
    40   22   38 1    
    41   22   39 1    
@<TRIPOS>SUBSTRUCTURE
     1 UNK         1 GROUP             0       ****    0 ROOT    
