@<TRIPOS>MOLECULE
ZINC11719922_3046
53   55    1
SMALL
USER_CHARGES


@<TRIPOS>ATOM
      1 C1          0.6146   51.9469   21.1481 C.3       1 UNK         0.0000 
      2 C2          1.8488   52.0321   20.2378 C.3       1 UNK         0.0000 
      3 H3          1.7491   52.8936   19.5722 H         1 UNK         0.0000 
      4 C4          3.1270   52.3062   21.0769 C.2       1 UNK         0.0000 
      5 O5          4.0649   51.5047   21.1089 O.2       1 UNK         0.0000 
      6 N6          3.1102   53.4561   21.7837 N.am      1 UNK         0.0000 
      7 C7          4.0469   53.8023   22.7601 C.ar      1 UNK         0.0000 
      8 C8          5.3627   54.0968   22.3837 C.ar      1 UNK         0.0000 
      9 C9          6.3062   54.4426   23.3482 C.ar      1 UNK         0.0000 
     10 C10         5.9348   54.5074   24.6907 C.ar      1 UNK         0.0000 
     11 C11         4.6180   54.2438   25.0682 C.ar      1 UNK         0.0000 
     12 C12         3.6553   53.8896   24.1134 C.ar      1 UNK         0.0000 
     13 C13         2.2207   53.5687   24.5538 C.3       1 UNK         0.0000 
     14 F14         1.9045   52.3162   24.2199 F         1 UNK         0.0000 
     15 F15         2.0476   53.6965   25.8714 F         1 UNK         0.0000 
     16 F16         1.3748   54.3935   23.9387 F         1 UNK         0.0000 
     17 Cl17        7.1036   54.8990   25.8982 Cl        1 UNK         0.0000 
     18 C18         1.9912   49.4564   19.9377 C.3       1 UNK         0.0000 
     19 C19         2.2861   48.3769   18.8872 C.3       1 UNK         0.0000 
     20 C20         1.2574   48.4602   17.7561 C.3       1 UNK         0.0000 
     21 C21         1.3257   49.8296   17.0604 C.3       1 UNK         0.0000 
     22 C22         1.0573   50.9556   18.0711 C.3       1 UNK         0.0000 
     23 N23         1.6410   47.4445   16.7653 N.pl3     1 UNK         0.0000 
     24 S24         0.9818   45.8219   16.8551 S.o2      1 UNK         0.0000 
     25 O25         1.7877   44.9508   15.9932 O.2       1 UNK         0.0000 
     26 O26         0.7017   45.4924   18.2588 O.2       1 UNK         0.0000 
     27 C27        -0.6022   46.0659   16.0355 C.2       1 UNK         0.0000 
     28 C28        -1.8491   45.8008   16.5882 C.2       1 UNK         0.0000 
     29 C29        -2.8964   46.0910   15.7072 C.2       1 UNK         0.0000 
     30 C30        -2.4465   46.5771   14.4846 C.2       1 UNK         0.0000 
     31 S31        -0.7169   46.6803   14.4169 S.3       1 UNK         0.0000 
     32 H32         0.4523   52.8875   21.6752 H         1 UNK         0.0000 
     33 H33        -0.2805   51.7465   20.5639 H         1 UNK         0.0000 
     34 H34         0.7309   51.1572   21.8903 H         1 UNK         0.0000 
     35 H35         2.3280   54.0852   21.6590 H         1 UNK         0.0000 
     36 H36         5.6541   54.0499   21.3446 H         1 UNK         0.0000 
     37 H37         7.3224   54.6564   23.0515 H         1 UNK         0.0000 
     38 H38         4.3567   54.3058   26.1161 H         1 UNK         0.0000 
     39 H39         2.7442   49.4193   20.7235 H         1 UNK         0.0000 
     40 H40         0.9988   49.3450   20.3759 H         1 UNK         0.0000 
     41 H41         3.2902   48.4979   18.4826 H         1 UNK         0.0000 
     42 H42         2.2720   47.3925   19.3515 H         1 UNK         0.0000 
     43 H43         0.2480   48.2814   18.1329 H         1 UNK         0.0000 
     44 H44         0.6066   49.8757   16.2438 H         1 UNK         0.0000 
     45 H45         2.3019   50.0061   16.6051 H         1 UNK         0.0000 
     46 H46         0.0491   50.9079   18.4851 H         1 UNK         0.0000 
     47 H47         1.2195   51.9248   17.5937 H         1 UNK         0.0000 
     48 H48         2.5570   47.5654   16.3193 H         1 UNK         0.0000 
     49 H49        -1.9911   45.4116   17.5845 H         1 UNK         0.0000 
     50 H50        -3.9389   45.9522   15.9509 H         1 UNK         0.0000 
     51 H51        -3.0405   46.8747   13.6328 H         1 UNK         0.0000 
     52 N52         2.0733   50.8478   19.2463 N.4       1 UNK         0.0000 
     53 H53         3.0098   50.9347   18.8619 H         1 UNK         0.0000 
@<TRIPOS>BOND
     1    1    2 1    
     2    1   32 1    
     3    1   33 1    
     4    1   34 1    
     5    2    3 1    
     6    2    4 1    
     7    2   52 1    
     8    4    5 2    
     9    4    6 am   BACKBONE|DICT|INTERRES
    10    6    7 1    
    11    6   35 1    
    12    7   12 ar   
    13    7    8 ar   
    14    8    9 ar   
    15    8   36 1    
    16    9   10 ar   
    17    9   37 1    
    18   10   11 ar   
    19   10   17 1    
    20   11   12 ar   
    21   11   38 1    
    22   12   13 1    
    23   13   14 1    
    24   13   15 1    
    25   13   16 1    
    26   18   19 1    
    27   18   39 1    
    28   18   40 1    
    29   18   52 1    
    30   19   20 1    
    31   19   41 1    
    32   19   42 1    
    33   20   21 1    
    34   20   23 1    
    35   20   43 1    
    36   21   22 1    
    37   21   44 1    
    38   21   45 1    
    39   22   46 1    
    40   22   47 1    
    41   22   52 1    
    42   23   24 1    
    43   23   48 1    
    44   24   25 2    
    45   24   26 2    
    46   24   27 1    
    47   27   31 1    
    48   27   28 2    
    49   28   29 1    
    50   28   49 1    
    51   29   30 2    
    52   29   50 1    
    53   30   31 1    
    54   30   51 1    
    55   52   53 1    
@<TRIPOS>SUBSTRUCTURE
     1 UNK         1 GROUP             0       ****    0 ROOT    
