@<TRIPOS>MOLECULE
ZINC03417564_1018
63   66    1
SMALL
USER_CHARGES


@<TRIPOS>ATOM
      1 C1         -6.9042   54.0611   26.6818 C.3       1 UNK         0.0000 
      2 C2         -7.4693   52.6279   26.7260 C.3       1 UNK         0.0000 
      3 O3         -6.6210   51.7533   27.4631 O.3       1 UNK         0.0000 
      4 C4         -6.6156   51.7399   28.8225 C.2       1 UNK         0.0000 
      5 O5         -7.3458   52.4406   29.5324 O.2       1 UNK         0.0000 
      6 C6         -5.5441   50.8237   29.4704 C.3       1 UNK         0.0000 
      7 H7         -4.8163   51.5390   29.8484 H         1 UNK         0.0000 
      8 C8         -6.0541   50.0510   30.6986 C.2       1 UNK         0.0000 
      9 C9         -5.6951   50.4389   31.9315 C.2       1 UNK         0.0000 
     10 N10        -6.8380   48.9416   30.4657 N.pl3     1 UNK         0.0000 
     11 C11        -7.4150   48.4997   29.2675 C.ar      1 UNK         0.0000 
     12 C12        -8.7464   48.0689   29.2484 C.ar      1 UNK         0.0000 
     13 C13        -9.3332   47.5722   28.0909 C.ar      1 UNK         0.0000 
     14 C14        -8.5825   47.4873   26.9269 C.ar      1 UNK         0.0000 
     15 C15        -7.2600   47.9205   26.9275 C.ar      1 UNK         0.0000 
     16 C16        -6.6534   48.4730   28.0631 C.ar      1 UNK         0.0000 
     17 N17        -5.2977   48.8469   27.9413 N.2       1 UNK         0.0000 
     18 C18        -4.7796   49.8697   28.5130 C.2       1 UNK         0.0000 
     19 N19        -3.4648   50.0972   28.2946 N.am      1 UNK         0.0000 
     20 C20        -2.9275   51.2168   27.7608 C.2       1 UNK         0.0000 
     21 O21        -3.5906   52.0963   27.2037 O.2       1 UNK         0.0000 
     22 C22        -1.3834   51.3216   27.8096 C.3       1 UNK         0.0000 
     23 C23        -0.8092   52.2640   26.7384 C.3       1 UNK         0.0000 
     24 C24         0.7290   52.2108   26.8142 C.3       1 UNK         0.0000 
     25 N25         1.2467   52.4872   28.1865 N.pl3     1 UNK         0.0000 
     26 C26         0.6431   51.6967   29.2825 C.3       1 UNK         0.0000 
     27 C27        -0.8991   51.6964   29.2371 C.3       1 UNK         0.0000 
     28 S28         2.0101   54.0434   28.5724 S.o2      1 UNK         0.0000 
     29 O29         1.1049   55.0970   28.1059 O.2       1 UNK         0.0000 
     30 O30         2.4385   54.0172   29.9788 O.2       1 UNK         0.0000 
     31 C31         3.4928   54.1308   27.5689 C.ar      1 UNK         0.0000 
     32 C32         4.7581   53.9717   28.1416 C.ar      1 UNK         0.0000 
     33 C33         5.8946   54.0888   27.3427 C.ar      1 UNK         0.0000 
     34 C34         5.7534   54.3517   25.9798 C.ar      1 UNK         0.0000 
     35 C35         4.4972   54.4963   25.4058 C.ar      1 UNK         0.0000 
     36 C36         3.3689   54.3787   26.2014 C.ar      1 UNK         0.0000 
     37 Cl37        7.1327   54.5043   24.9693 Cl        1 UNK         0.0000 
     38 H38        -7.5258   54.7013   26.0557 H         1 UNK         0.0000 
     39 H39        -6.8681   54.4999   27.6797 H         1 UNK         0.0000 
     40 H40        -5.8902   54.0682   26.2751 H         1 UNK         0.0000 
     41 H41        -7.5402   52.2390   25.7083 H         1 UNK         0.0000 
     42 H42        -8.4832   52.6204   27.1336 H         1 UNK         0.0000 
     43 H43        -5.0573   51.2970   32.0821 H         1 UNK         0.0000 
     44 H44        -6.0201   49.9074   32.8134 H         1 UNK         0.0000 
     45 H45        -7.2399   48.5270   31.2926 H         1 UNK         0.0000 
     46 H46        -9.3369   48.1082   30.1528 H         1 UNK         0.0000 
     47 H47       -10.3605   47.2413   28.1015 H         1 UNK         0.0000 
     48 H48        -9.0228   47.0861   26.0254 H         1 UNK         0.0000 
     49 H49        -6.6914   47.8446   26.0118 H         1 UNK         0.0000 
     50 H50        -2.8064   49.3354   28.4813 H         1 UNK         0.0000 
     51 H51        -1.0415   50.3085   27.6008 H         1 UNK         0.0000 
     52 H52        -1.0841   51.9423   25.7316 H         1 UNK         0.0000 
     53 H53        -1.1171   53.2941   26.9228 H         1 UNK         0.0000 
     54 H54         1.1030   51.2353   26.5020 H         1 UNK         0.0000 
     55 H55         1.1394   52.9334   26.1185 H         1 UNK         0.0000 
     56 H56         1.0509   50.6922   29.2238 H         1 UNK         0.0000 
     57 H57         0.9750   52.0954   30.2411 H         1 UNK         0.0000 
     58 H58        -1.2051   52.7014   29.5232 H         1 UNK         0.0000 
     59 H59        -1.2279   50.9677   29.9831 H         1 UNK         0.0000 
     60 H60         4.8678   53.7788   29.1989 H         1 UNK         0.0000 
     61 H61         6.8767   53.9817   27.7811 H         1 UNK         0.0000 
     62 H62         4.3976   54.6949   24.3484 H         1 UNK         0.0000 
     63 H63         2.4030   54.4967   25.7412 H         1 UNK         0.0000 
@<TRIPOS>BOND
     1    1    2 1    
     2    1   38 1    
     3    1   39 1    
     4    1   40 1    
     5    2    3 1    
     6    2   41 1    
     7    2   42 1    
     8    3    4 1    
     9    4    5 2    
    10    4    6 1    
    11    6    7 1    
    12    6   18 1    
    13    6    8 1    
    14    8    9 2    
    15    8   10 1    
    16    9   43 1    
    17    9   44 1    
    18   10   11 1    
    19   10   45 1    
    20   11   16 ar   
    21   11   12 ar   
    22   12   13 ar   
    23   12   46 1    
    24   13   14 ar   
    25   13   47 1    
    26   14   15 ar   
    27   14   48 1    
    28   15   16 ar   
    29   15   49 1    
    30   16   17 1    
    31   17   18 2    
    32   18   19 1    
    33   19   20 am   BACKBONE|DICT|INTERRES
    34   19   50 1    
    35   20   21 2    
    36   20   22 1    
    37   22   27 1    
    38   22   23 1    
    39   22   51 1    
    40   23   24 1    
    41   23   52 1    
    42   23   53 1    
    43   24   25 1    
    44   24   54 1    
    45   24   55 1    
    46   25   26 1    
    47   25   28 1    
    48   26   27 1    
    49   26   56 1    
    50   26   57 1    
    51   27   58 1    
    52   27   59 1    
    53   28   29 2    
    54   28   30 2    
    55   28   31 1    
    56   31   36 ar   
    57   31   32 ar   
    58   32   33 ar   
    59   32   60 1    
    60   33   34 ar   
    61   33   61 1    
    62   34   35 ar   
    63   34   37 1    
    64   35   36 ar   
    65   35   62 1    
    66   36   63 1    
@<TRIPOS>SUBSTRUCTURE
     1 UNK         1 GROUP             0       ****    0 ROOT    
