ZINC34755944_5243
                    3D
 Schrodinger Suite 2024-2.
 68 72  0  0  1  0            999 V2000
   -2.2244   51.8957   26.4215 C   0  0  0  0  0  0
   -1.2033   51.2880   27.3941 C   0  0  0  0  0  0
    0.0641   52.4379   28.0106 S   0  0  0  0  0  0
    1.1907   52.8180   26.7013 C   0  0  0  0  0  0
    0.9500   52.2957   25.4723 N   0  0  0  0  0  0
    1.8241   52.5986   24.4746 C   0  0  0  0  0  0
    2.9702   53.4051   24.7190 C   0  0  0  0  0  0
    4.0940   53.8089   23.9165 C   0  0  0  0  0  0
    5.0481   54.4972   24.6668 C   0  0  0  0  0  0
    4.6035   54.7067   26.3409 S   0  0  0  0  0  0
    3.1046   53.8528   26.0675 C   0  0  0  0  0  0
    2.2390   53.6034   27.0505 N   0  0  0  0  0  0
    6.4067   54.9547   24.1493 C   0  0  0  0  0  0
    6.4599   54.8522   22.6098 C   0  0  0  0  0  0
    5.7959   53.5767   22.0829 C   0  0  0  0  0  0
    4.3074   53.4955   22.4420 C   0  0  0  0  0  0
    1.6003   51.9984   23.2418 N   0  0  0  0  0  0
    1.3180   50.5628   23.1258 C   0  0  0  0  0  0
    1.9785   49.9607   21.8744 C   0  0  0  0  0  0
    1.4016   50.6479   20.6186 N   0  3  0  0  0  0
    1.6347   52.1756   20.6814 C   0  0  0  0  0  0
    1.2069   52.7704   22.0509 C   0  0  0  0  0  0
    2.0217   50.0697   19.3119 C   0  0  0  0  0  0
    1.4137   48.7097   18.9364 C   0  0  0  0  0  0
    0.5298   48.1899   19.6201 O   0  0  0  0  0  0
    1.9044   48.1526   17.8187 N   0  0  0  0  0  0
    1.4703   46.8987   17.2043 C   0  0  0  0  0  0
    0.0006   46.8870   16.7021 C   0  0  0  0  0  0
   -0.4018   45.5757   15.9988 C   0  0  0  0  0  0
    0.5876   45.1912   14.8878 C   0  0  0  0  0  0
    2.0250   45.1026   15.4247 C   0  0  0  0  0  0
    2.4693   46.3968   16.1331 C   0  0  0  0  0  0
   -2.9564   51.1492   26.1135 H   0  0  0  0  0  0
   -2.7675   52.7205   26.8814 H   0  0  0  0  0  0
   -1.7469   52.2751   25.5184 H   0  0  0  0  0  0
   -0.7080   50.4304   26.9373 H   0  0  0  0  0  0
   -1.7350   50.8963   28.2640 H   0  0  0  0  0  0
    6.6297   55.9763   24.4613 H   0  0  0  0  0  0
    7.1861   54.3161   24.5697 H   0  0  0  0  0  0
    5.9558   55.6968   22.1475 H   0  0  0  0  0  0
    7.4978   54.9065   22.2758 H   0  0  0  0  0  0
    5.8932   53.5351   20.9977 H   0  0  0  0  0  0
    6.3045   52.6983   22.4820 H   0  0  0  0  0  0
    3.9829   52.4840   22.2111 H   0  0  0  0  0  0
    3.7320   54.1811   21.8177 H   0  0  0  0  0  0
    0.2326   50.4430   23.0862 H   0  0  0  0  0  0
    1.6529   50.0317   24.0193 H   0  0  0  0  0  0
    1.7338   48.8992   21.8058 H   0  0  0  0  0  0
    3.0638   50.0834   21.8677 H   0  0  0  0  0  0
    2.6901   52.3469   20.4595 H   0  0  0  0  0  0
    1.0200   52.5991   19.8846 H   0  0  0  0  0  0
    1.4778   53.8249   22.1364 H   0  0  0  0  0  0
    0.1177   52.7289   22.0921 H   0  0  0  0  0  0
    3.1058   50.0260   19.4364 H   0  0  0  0  0  0
    1.8038   50.7848   18.5181 H   0  0  0  0  0  0
    2.6449   48.6448   17.3190 H   0  0  0  0  0  0
    1.4994   46.1464   17.9984 H   0  0  0  0  0  0
   -0.1307   47.7059   15.9921 H   0  0  0  0  0  0
   -0.6873   47.0726   17.5269 H   0  0  0  0  0  0
   -1.4060   45.6708   15.5866 H   0  0  0  0  0  0
   -0.4515   44.7713   16.7337 H   0  0  0  0  0  0
    0.5421   45.9303   14.0847 H   0  0  0  0  0  0
    0.2962   44.2377   14.4428 H   0  0  0  0  0  0
    2.7041   44.8926   14.6010 H   0  0  0  0  0  0
    2.1076   44.2630   16.1159 H   0  0  0  0  0  0
    3.4582   46.2536   16.5716 H   0  0  0  0  0  0
    2.5780   47.1714   15.3722 H   0  0  0  0  0  0
    0.4050   50.4709   20.6174 H   0  0  0  0  0  0
  1  2  1  0  0  0
  1 33  1  0  0  0
  1 34  1  0  0  0
  1 35  1  0  0  0
  2  3  1  0  0  0
  2 36  1  0  0  0
  2 37  1  0  0  0
  3  4  1  0  0  0
  4 12  2  0  0  0
  4  5  1  0  0  0
  5  6  2  0  0  0
  6  7  1  0  0  0
  6 17  1  0  0  0
  7 11  2  0  0  0
  7  8  1  0  0  0
  8 16  1  0  0  0
  8  9  2  0  0  0
  9 10  1  0  0  0
  9 13  1  0  0  0
 10 11  1  0  0  0
 11 12  1  0  0  0
 13 14  1  0  0  0
 13 38  1  0  0  0
 13 39  1  0  0  0
 14 15  1  0  0  0
 14 40  1  0  0  0
 14 41  1  0  0  0
 15 16  1  0  0  0
 15 42  1  0  0  0
 15 43  1  0  0  0
 16 44  1  0  0  0
 16 45  1  0  0  0
 17 22  1  0  0  0
 17 18  1  0  0  0
 18 19  1  0  0  0
 18 46  1  0  0  0
 18 47  1  0  0  0
 19 20  1  0  0  0
 19 48  1  0  0  0
 19 49  1  0  0  0
 20 21  1  0  0  0
 20 23  1  0  0  0
 20 68  1  0  0  0
 21 22  1  0  0  0
 21 50  1  0  0  0
 21 51  1  0  0  0
 22 52  1  0  0  0
 22 53  1  0  0  0
 23 24  1  0  0  0
 23 54  1  0  0  0
 23 55  1  0  0  0
 24 25  2  0  0  0
 24 26  1  0  0  0
 26 27  1  0  0  0
 26 56  1  0  0  0
 27 32  1  0  0  0
 27 28  1  0  0  0
 27 57  1  0  0  0
 28 29  1  0  0  0
 28 58  1  0  0  0
 28 59  1  0  0  0
 29 30  1  0  0  0
 29 60  1  0  0  0
 29 61  1  0  0  0
 30 31  1  0  0  0
 30 62  1  0  0  0
 30 63  1  0  0  0
 31 32  1  0  0  0
 31 64  1  0  0  0
 31 65  1  0  0  0
 32 66  1  0  0  0
 32 67  1  0  0  0
M  CHG  1  20   1
M  END
> <i_i_glide_confnum>
202

> <i_i_glide_lignum>
5244

> <i_i_glide_posenum>
355

> <i_i_glide_rotatable_bonds>
7

> <i_m_Source_File_Index>
2105

> <b_m_subgroup_collapsed>
0

> <r_i_docking_score>
-5.86909

> <r_i_glide_ecoul>
-5.96038

> <r_i_glide_eff_state_penalty>
0

> <r_i_glide_einternal>
2.59291

> <r_i_glide_emodel>
-58.9821

> <r_i_glide_energy>
-42.7033

> <r_i_glide_erotb>
0.449017

> <r_i_glide_esite>
-0.14806

> <r_i_glide_evdw>
-36.7429

> <r_i_glide_gscore>
-5.86909

> <r_i_glide_hbond>
-0.16

> <r_i_glide_ligand_efficiency>
-0.183409

> <r_i_glide_ligand_efficiency_ln>
-1.31425

> <r_i_glide_ligand_efficiency_sa>
-0.582287

> <r_i_glide_lipo>
-2.66069

> <r_i_glide_metal>
0

> <r_i_glide_rewards>
-0.618155

> <s_i_glide_gridfile>
wee1_glide-grid

> <s_m_Source_File>
wee1_decoys_glide_SP.sdf

> <s_m_Source_Path>
/Users/zhangxujun/Desktop

> <s_m_entry_id>
2380

> <s_m_entry_name>
wee1_decoys_glide_SP.2105

> <s_m_subgroup_title>
wee1_decoys_glide_SP

> <s_m_subgroupid>
wee1_decoys_glide_SP


$$$$
