@<TRIPOS>MOLECULE
ZINC14652776_2957
47   48    1
SMALL
USER_CHARGES


@<TRIPOS>ATOM
      1 C1          0.1583   48.7951   24.6033 C.3       1 UNK         0.0000 
      2 C2         -1.1611   49.0337   23.8488 C.3       1 UNK         0.0000 
      3 C3         -1.1806   48.4052   22.4482 C.3       1 UNK         0.0000 
      4 O4         -0.2129   49.0644   21.6343 O.3       1 UNK         0.0000 
      5 C5          0.2598   48.4755   20.4733 C.ar      1 UNK         0.0000 
      6 C6         -0.3522   47.3357   19.9180 C.ar      1 UNK         0.0000 
      7 C7          0.1424   46.7490   18.7582 C.ar      1 UNK         0.0000 
      8 C8          1.2489   47.2967   18.1224 C.ar      1 UNK         0.0000 
      9 C9          1.8561   48.4313   18.6479 C.ar      1 UNK         0.0000 
     10 C10         1.3770   49.0440   19.8185 C.ar      1 UNK         0.0000 
     11 C11         2.0455   50.2970   20.3536 C.2       1 UNK         0.0000 
     12 O12         2.0122   50.5651   21.5589 O.2       1 UNK         0.0000 
     13 N13         2.6278   51.0977   19.4253 N.am      1 UNK         0.0000 
     14 N14         3.0750   52.3793   19.7711 N.am      1 UNK         0.0000 
     15 C15         4.1776   52.5781   20.5270 C.2       1 UNK         0.0000 
     16 O16         4.9628   51.6993   20.8817 O.2       1 UNK         0.0000 
     17 C17         4.4005   54.0250   20.9736 C.3       1 UNK         0.0000 
     18 O18         3.7446   54.2031   22.2306 O.3       1 UNK         0.0000 
     19 C19         4.4255   54.1305   23.4340 C.ar      1 UNK         0.0000 
     20 C20         5.8259   54.1519   23.5585 C.ar      1 UNK         0.0000 
     21 C21         6.4277   54.1566   24.8140 C.ar      1 UNK         0.0000 
     22 C22         5.6457   54.1256   25.9642 C.ar      1 UNK         0.0000 
     23 C23         4.2579   54.0973   25.8582 C.ar      1 UNK         0.0000 
     24 C24         3.6449   54.0952   24.6023 C.ar      1 UNK         0.0000 
     25 C25         2.1267   54.0364   24.5123 C.3       1 UNK         0.0000 
     26 Br26        6.4702   54.0966   27.6782 Br        1 UNK         0.0000 
     27 Br27        1.9178   46.4964   16.5272 Br        1 UNK         0.0000 
     28 H28         0.1391   49.2664   25.5868 H         1 UNK         0.0000 
     29 H29         0.3354   47.7309   24.7573 H         1 UNK         0.0000 
     30 H30         1.0117   49.2019   24.0590 H         1 UNK         0.0000 
     31 H31        -1.3471   50.1048   23.7685 H         1 UNK         0.0000 
     32 H32        -1.9844   48.6277   24.4372 H         1 UNK         0.0000 
     33 H33        -2.1672   48.5150   21.9960 H         1 UNK         0.0000 
     34 H34        -0.9748   47.3380   22.5417 H         1 UNK         0.0000 
     35 H35        -1.2217   46.8858   20.3727 H         1 UNK         0.0000 
     36 H36        -0.3399   45.8741   18.3458 H         1 UNK         0.0000 
     37 H37         2.7040   48.8310   18.1125 H         1 UNK         0.0000 
     38 H38         3.0405   50.7585   18.5645 H         1 UNK         0.0000 
     39 H39         2.3960   53.1006   19.5747 H         1 UNK         0.0000 
     40 H40         3.9259   54.7066   20.2681 H         1 UNK         0.0000 
     41 H41         5.4548   54.2821   20.9289 H         1 UNK         0.0000 
     42 H42         6.4846   54.1802   22.7080 H         1 UNK         0.0000 
     43 H43         7.5048   54.1748   24.8861 H         1 UNK         0.0000 
     44 H44         3.6602   54.0633   26.7566 H         1 UNK         0.0000 
     45 H45         1.7400   54.8996   23.9704 H         1 UNK         0.0000 
     46 H46         1.8225   53.1472   23.9549 H         1 UNK         0.0000 
     47 H47         1.6497   54.0046   25.4926 H         1 UNK         0.0000 
@<TRIPOS>BOND
     1    1    2 1    
     2    1   28 1    
     3    1   29 1    
     4    1   30 1    
     5    2    3 1    
     6    2   31 1    
     7    2   32 1    
     8    3    4 1    
     9    3   33 1    
    10    3   34 1    
    11    4    5 1    
    12    5   10 ar   
    13    5    6 ar   
    14    6    7 ar   
    15    6   35 1    
    16    7    8 ar   
    17    7   36 1    
    18    8    9 ar   
    19    8   27 1    
    20    9   10 ar   
    21    9   37 1    
    22   10   11 1    
    23   11   12 2    
    24   11   13 am   BACKBONE|DICT|INTERRES
    25   13   14 1    
    26   13   38 1    
    27   14   15 am   BACKBONE|DICT|INTERRES
    28   14   39 1    
    29   15   16 2    
    30   15   17 1    
    31   17   18 1    
    32   17   40 1    
    33   17   41 1    
    34   18   19 1    
    35   19   24 ar   
    36   19   20 ar   
    37   20   21 ar   
    38   20   42 1    
    39   21   22 ar   
    40   21   43 1    
    41   22   23 ar   
    42   22   26 1    
    43   23   24 ar   
    44   23   44 1    
    45   24   25 1    
    46   25   45 1    
    47   25   46 1    
    48   25   47 1    
@<TRIPOS>SUBSTRUCTURE
     1 UNK         1 GROUP             0       ****    0 ROOT    
