@<TRIPOS>MOLECULE
ZINC39665089_1282
69   72    1
SMALL
USER_CHARGES


@<TRIPOS>ATOM
      1 C1          6.7274   53.5438   27.9052 C.3       1 UNK         0.0000 
      2 C2          6.2117   54.8511   27.2831 C.3       1 UNK         0.0000 
      3 C3          5.6299   54.6425   25.8937 C.ar      1 UNK         0.0000 
      4 C4          4.2514   54.7135   25.6815 C.ar      1 UNK         0.0000 
      5 C5          3.7264   54.4719   24.4127 C.ar      1 UNK         0.0000 
      6 C6          4.5698   54.0964   23.3543 C.ar      1 UNK         0.0000 
      7 C7          5.9551   54.0971   23.5684 C.ar      1 UNK         0.0000 
      8 C8          6.4796   54.3691   24.8248 C.ar      1 UNK         0.0000 
      9 C9          4.0614   53.7333   21.9718 C.2       1 UNK         0.0000 
     10 O10         4.6946   54.1530   20.9999 O.2       1 UNK         0.0000 
     11 N11         3.0056   52.8861   21.8102 N.am      1 UNK         0.0000 
     12 C12         2.1429   52.3024   22.8348 C.3       1 UNK         0.0000 
     13 C13         0.9116   51.8274   22.0376 C.3       1 UNK         0.0000 
     14 H14         0.2536   52.6888   21.9076 H         1 UNK         0.0000 
     15 C15         1.4853   51.3676   20.6679 C.3       1 UNK         0.0000 
     16 C16         2.6021   52.4353   20.4732 C.3       1 UNK         0.0000 
     17 C17         0.4571   51.3577   19.5111 C.3       1 UNK         0.0000 
     18 C18         1.1596   51.1472   18.1442 C.3       1 UNK         0.0000 
     19 N19         1.9044   49.7917   18.1609 N.4       1 UNK         0.0000 
     20 C20         2.7868   49.5463   19.4070 C.3       1 UNK         0.0000 
     21 C21         2.0256   49.9040   20.6889 C.3       1 UNK         0.0000 
     22 C22         0.2138   50.7720   22.9320 C.2       1 UNK         0.0000 
     23 O23         0.8485   49.8269   23.4059 O.2       1 UNK         0.0000 
     24 N24        -1.0680   51.0136   23.2559 N.am      1 UNK         0.0000 
     25 C25        -1.8076   50.2630   24.2783 C.3       1 UNK         0.0000 
     26 C26        -1.8394   50.9744   25.6540 C.3       1 UNK         0.0000 
     27 H27        -2.2064   50.2277   26.3606 H         1 UNK         0.0000 
     28 C28        -2.7673   52.2084   25.6613 C.3       1 UNK         0.0000 
     29 O29        -0.5043   51.3723   25.9904 O.3       1 UNK         0.0000 
     30 C30        -0.1504   51.6785   27.2897 C.ar      1 UNK         0.0000 
     31 C31         1.0979   52.2782   27.4633 C.ar      1 UNK         0.0000 
     32 C32         1.5493   52.6164   28.7363 C.ar      1 UNK         0.0000 
     33 C33         0.7507   52.3428   29.8437 C.ar      1 UNK         0.0000 
     34 C34        -0.4890   51.7263   29.6874 C.ar      1 UNK         0.0000 
     35 C35        -0.9454   51.4113   28.4135 C.ar      1 UNK         0.0000 
     36 H36         7.1541   53.7206   28.8916 H         1 UNK         0.0000 
     37 H37         5.9225   52.8167   28.0162 H         1 UNK         0.0000 
     38 H38         7.5037   53.0878   27.2913 H         1 UNK         0.0000 
     39 H39         7.0198   55.5802   27.2241 H         1 UNK         0.0000 
     40 H40         5.4644   55.2946   27.9413 H         1 UNK         0.0000 
     41 H41         3.5853   54.9624   26.4955 H         1 UNK         0.0000 
     42 H42         2.6652   54.6034   24.2781 H         1 UNK         0.0000 
     43 H43         6.6405   53.8553   22.7672 H         1 UNK         0.0000 
     44 H44         7.5453   54.3372   24.9676 H         1 UNK         0.0000 
     45 H45         1.8052   52.9571   23.6306 H         1 UNK         0.0000 
     46 H46         2.6987   51.4589   23.2494 H         1 UNK         0.0000 
     47 H47         3.4142   52.1327   19.8139 H         1 UNK         0.0000 
     48 H48         2.1379   53.2966   19.9958 H         1 UNK         0.0000 
     49 H49        -0.3465   50.6386   19.6843 H         1 UNK         0.0000 
     50 H50        -0.0322   52.3316   19.4680 H         1 UNK         0.0000 
     51 H51         0.4545   51.0969   17.3140 H         1 UNK         0.0000 
     52 H52         1.9119   51.9057   17.9166 H         1 UNK         0.0000 
     53 H53         1.2318   49.0426   18.0937 H         1 UNK         0.0000 
     54 H54         3.1007   48.5020   19.3628 H         1 UNK         0.0000 
     55 H55         3.6550   50.1776   19.2832 H         1 UNK         0.0000 
     56 H56         2.7358   49.7923   21.5100 H         1 UNK         0.0000 
     57 H57         1.2423   49.1707   20.8831 H         1 UNK         0.0000 
     58 H58        -1.5394   51.7994   22.8373 H         1 UNK         0.0000 
     59 H59        -1.3867   49.2619   24.4125 H         1 UNK         0.0000 
     60 H60        -2.8258   50.1010   23.9207 H         1 UNK         0.0000 
     61 H61        -3.7864   51.9424   25.3750 H         1 UNK         0.0000 
     62 H62        -2.8188   52.6664   26.6472 H         1 UNK         0.0000 
     63 H63        -2.4115   52.9687   24.9672 H         1 UNK         0.0000 
     64 H64         1.7196   52.4762   26.6008 H         1 UNK         0.0000 
     65 H65         2.5170   53.0799   28.8628 H         1 UNK         0.0000 
     66 H66         1.0951   52.5936   30.8367 H         1 UNK         0.0000 
     67 H67        -1.0925   51.4914   30.5538 H         1 UNK         0.0000 
     68 H68        -1.9030   50.9218   28.3347 H         1 UNK         0.0000 
     69 H69         2.5193   49.6978   17.3506 H         1 UNK         0.0000 
@<TRIPOS>BOND
     1    1    2 1    
     2    1   36 1    
     3    1   37 1    
     4    1   38 1    
     5    2    3 1    
     6    2   39 1    
     7    2   40 1    
     8    3    8 ar   
     9    3    4 ar   
    10    4    5 ar   
    11    4   41 1    
    12    5    6 ar   
    13    5   42 1    
    14    6    7 ar   
    15    6    9 1    
    16    7    8 ar   
    17    7   43 1    
    18    8   44 1    
    19    9   10 2    
    20    9   11 am   BACKBONE|DICT|INTERRES
    21   11   16 1    
    22   11   12 1    
    23   12   13 1    
    24   12   45 1    
    25   12   46 1    
    26   13   14 1    
    27   13   15 1    
    28   13   22 1    
    29   15   21 1    
    30   15   16 1    
    31   15   17 1    
    32   16   47 1    
    33   16   48 1    
    34   17   18 1    
    35   17   49 1    
    36   17   50 1    
    37   18   19 1    
    38   18   51 1    
    39   18   52 1    
    40   19   20 1    
    41   19   53 1    
    42   19   69 1    
    43   20   21 1    
    44   20   54 1    
    45   20   55 1    
    46   21   56 1    
    47   21   57 1    
    48   22   23 2    
    49   22   24 am   BACKBONE|DICT|INTERRES
    50   24   25 1    
    51   24   58 1    
    52   25   26 1    
    53   25   59 1    
    54   25   60 1    
    55   26   27 1    
    56   26   28 1    
    57   26   29 1    
    58   28   61 1    
    59   28   62 1    
    60   28   63 1    
    61   29   30 1    
    62   30   35 ar   
    63   30   31 ar   
    64   31   32 ar   
    65   31   64 1    
    66   32   33 ar   
    67   32   65 1    
    68   33   34 ar   
    69   33   66 1    
    70   34   35 ar   
    71   34   67 1    
    72   35   68 1    
@<TRIPOS>SUBSTRUCTURE
     1 UNK         1 GROUP             0       ****    0 ROOT    
