ZINC19818672_364
                    3D
 Schrodinger Suite 2024-2.
 64 67  0  0  1  0            999 V2000
    6.5611   55.5210   18.4560 C   0  0  0  0  0  0
    7.0170   54.6560   17.4584 C   0  0  0  0  0  0
    6.6107   53.3208   17.4777 C   0  0  0  0  0  0
    5.7877   52.8970   18.4570 N   0  3  0  0  0  0
    5.3114   53.6876   19.4457 C   0  0  0  0  0  0
    5.7102   55.0352   19.4539 C   0  0  0  0  0  0
    4.4644   53.1239   20.4597 N   0  0  0  0  0  0
    3.7077   53.9611   21.4112 C   0  0  0  0  0  0
    2.3859   53.2966   21.8577 C   0  0  0  0  0  0
    2.6612   51.9878   22.4659 N   0  0  0  0  0  0
    3.2922   51.1292   21.4505 C   0  0  0  0  0  0
    4.6119   51.7247   20.9155 C   0  0  0  0  0  0
    1.4878   51.2785   23.0236 C   0  0  0  0  0  0
    0.8565   51.9261   24.2926 C   0  0  0  0  0  0
    1.1053   53.0991   24.5811 O   0  0  0  0  0  0
    0.0430   51.1745   25.0897 N   0  0  0  0  0  0
   -0.3828   49.8043   24.7586 C   0  0  0  0  0  0
   -1.8493   49.8902   24.2884 C   0  0  0  0  0  0
   -2.6832   50.6195   25.2556 N   0  0  0  0  0  0
   -2.2458   51.5124   26.1677 C   0  0  0  0  0  0
   -3.0607   52.0974   26.8747 O   0  0  0  0  0  0
   -0.7065   51.7759   26.2273 C   0  0  1  0  0  0
   -0.6788   52.8648   26.1632 H   0  0  0  0  0  0
   -0.1958   51.3854   27.6520 C   0  0  0  0  0  0
    1.1274   51.9994   28.1507 C   0  0  0  0  0  0
    1.5101   51.6966   29.2810 O   0  0  0  0  0  0
    1.8165   52.8201   27.3287 N   0  0  0  0  0  0
    3.0407   53.4666   27.5805 C   0  0  0  0  0  0
    3.4662   53.8530   28.8605 C   0  0  0  0  0  0
    4.7026   54.4720   29.0310 C   0  0  0  0  0  0
    5.5222   54.7073   27.9308 C   0  0  0  0  0  0
    5.0983   54.3715   26.6421 C   0  0  0  0  0  0
    3.8523   53.7515   26.4770 C   0  0  0  0  0  0
    5.9772   54.7001   25.4376 C   0  0  0  0  0  0
    6.8140   53.6967   25.2043 F   0  0  0  0  0  0
    6.7039   55.7961   25.6501 F   0  0  0  0  0  0
    5.2443   54.8966   24.3455 F   0  0  0  0  0  0
    6.8682   56.5574   18.4580 H   0  0  0  0  0  0
    7.6773   55.0174   16.6826 H   0  0  0  0  0  0
    6.9060   52.5736   16.7536 H   0  0  0  0  0  0
    5.3849   55.7084   20.2315 H   0  0  0  0  0  0
    4.3392   54.2101   22.2613 H   0  0  0  0  0  0
    3.4787   54.8966   20.9134 H   0  0  0  0  0  0
    1.7294   53.1544   20.9972 H   0  0  0  0  0  0
    1.8875   53.9807   22.5407 H   0  0  0  0  0  0
    3.5039   50.1403   21.8589 H   0  0  0  0  0  0
    2.5984   51.0107   20.6147 H   0  0  0  0  0  0
    5.3972   51.6824   21.6712 H   0  0  0  0  0  0
    4.9498   51.1122   20.0826 H   0  0  0  0  0  0
    1.8456   50.2930   23.3234 H   0  0  0  0  0  0
    0.7141   51.1429   22.2659 H   0  0  0  0  0  0
   -0.3449   49.2246   25.6838 H   0  0  0  0  0  0
    0.2566   49.2625   24.0651 H   0  0  0  0  0  0
   -2.2520   48.8821   24.1833 H   0  0  0  0  0  0
   -1.9212   50.3890   23.3204 H   0  0  0  0  0  0
   -3.6795   50.4589   25.2485 H   0  0  0  0  0  0
   -0.0925   50.3013   27.6943 H   0  0  0  0  0  0
   -0.9318   51.6413   28.4171 H   0  0  0  0  0  0
    1.4806   52.9021   26.3755 H   0  0  0  0  0  0
    2.8467   53.6839   29.7275 H   0  0  0  0  0  0
    5.0313   54.7709   30.0150 H   0  0  0  0  0  0
    6.4801   55.1828   28.0816 H   0  0  0  0  0  0
    3.5275   53.4710   25.4845 H   0  0  0  0  0  0
    5.5048   51.9090   18.4409 H   0  0  0  0  0  0
  1  6  2  0  0  0
  1  2  1  0  0  0
  1 38  1  0  0  0
  2  3  2  0  0  0
  2 39  1  0  0  0
  3  4  1  0  0  0
  3 40  1  0  0  0
  4  5  2  0  0  0
  4 64  1  0  0  0
  5  6  1  0  0  0
  5  7  1  0  0  0
  6 41  1  0  0  0
  7 12  1  0  0  0
  7  8  1  0  0  0
  8  9  1  0  0  0
  8 42  1  0  0  0
  8 43  1  0  0  0
  9 10  1  0  0  0
  9 44  1  0  0  0
  9 45  1  0  0  0
 10 11  1  0  0  0
 10 13  1  0  0  0
 11 12  1  0  0  0
 11 46  1  0  0  0
 11 47  1  0  0  0
 12 48  1  0  0  0
 12 49  1  0  0  0
 13 14  1  0  0  0
 13 50  1  0  0  0
 13 51  1  0  0  0
 14 15  2  0  0  0
 14 16  1  0  0  0
 16 22  1  0  0  0
 16 17  1  0  0  0
 17 18  1  0  0  0
 17 52  1  0  0  0
 17 53  1  0  0  0
 18 19  1  0  0  0
 18 54  1  0  0  0
 18 55  1  0  0  0
 19 20  1  0  0  0
 19 56  1  0  0  0
 20 21  2  0  0  0
 20 22  1  0  0  0
 22 23  1  0  0  0
 22 24  1  0  0  0
 24 25  1  0  0  0
 24 57  1  0  0  0
 24 58  1  0  0  0
 25 26  2  0  0  0
 25 27  1  0  0  0
 27 28  1  0  0  0
 27 59  1  0  0  0
 28 33  2  0  0  0
 28 29  1  0  0  0
 29 30  2  0  0  0
 29 60  1  0  0  0
 30 31  1  0  0  0
 30 61  1  0  0  0
 31 32  2  0  0  0
 31 62  1  0  0  0
 32 33  1  0  0  0
 32 34  1  0  0  0
 33 63  1  0  0  0
 34 35  1  0  0  0
 34 36  1  0  0  0
 34 37  1  0  0  0
M  CHG  1   4   1
M  END
> <i_i_glide_confnum>
593

> <i_i_glide_lignum>
365

> <i_i_glide_posenum>
384

> <i_i_glide_rotatable_bonds>
9

> <i_m_Source_File_Index>
305

> <b_m_subgroup_collapsed>
0

> <r_i_docking_score>
-6.39918

> <r_i_glide_ecoul>
-8.87354

> <r_i_glide_eff_state_penalty>
0

> <r_i_glide_einternal>
6.47655

> <r_i_glide_emodel>
-70.4976

> <r_i_glide_energy>
-50.5559

> <r_i_glide_erotb>
0.640325

> <r_i_glide_esite>
-0.154947

> <r_i_glide_evdw>
-41.6824

> <r_i_glide_gscore>
-6.39918

> <r_i_glide_hbond>
-0.2

> <r_i_glide_ligand_efficiency>
-0.177755

> <r_i_glide_ligand_efficiency_ln>
-1.39613

> <r_i_glide_ligand_efficiency_sa>
-0.586934

> <r_i_glide_lipo>
-2.00276

> <r_i_glide_metal>
0

> <r_i_glide_rewards>
-1.26665

> <s_i_glide_gridfile>
wee1_glide-grid

> <s_m_Source_File>
wee1_decoys_glide_SP.sdf

> <s_m_Source_Path>
/Users/zhangxujun/Desktop

> <s_m_entry_id>
580

> <s_m_entry_name>
wee1_decoys_glide_SP.305

> <s_m_subgroup_title>
wee1_decoys_glide_SP

> <s_m_subgroupid>
wee1_decoys_glide_SP


$$$$
