@<TRIPOS>MOLECULE
ZINC38915385_5114
49   52    1
SMALL
USER_CHARGES


@<TRIPOS>ATOM
      1 C1         -0.0558   53.0624   30.7029 C.ar      1 UNK         0.0000 
      2 C2          0.7209   54.1973   30.4847 C.ar      1 UNK         0.0000 
      3 C3          1.3538   54.3837   29.2581 C.ar      1 UNK         0.0000 
      4 C4          1.1936   53.4484   28.2349 C.ar      1 UNK         0.0000 
      5 C5          0.3532   52.3339   28.4234 C.ar      1 UNK         0.0000 
      6 C6         -0.2557   52.1454   29.6718 C.ar      1 UNK         0.0000 
      7 C7          0.1087   51.3090   27.3160 C.3       1 UNK         0.0000 
      8 S8         -0.7016   52.0499   25.8473 S.3       1 UNK         0.0000 
      9 C9         -0.0432   51.0128   24.5250 C.2       1 UNK         0.0000 
     10 N10         0.5115   49.8914   24.7115 N.2       1 UNK         0.0000 
     11 N11         0.9063   49.2968   23.5174 N.pl3     1 UNK         0.0000 
     12 C12         0.9722   50.1844   22.3793 C.3       1 UNK         0.0000 
     13 H13         0.5951   49.6736   21.4925 H         1 UNK         0.0000 
     14 S14        -0.1095   51.5624   22.8169 S.3       1 UNK         0.0000 
     15 S15         2.7048   50.6434   22.0984 S.3       1 UNK         0.0000 
     16 C16         2.6516   51.5581   20.5232 C.3       1 UNK         0.0000 
     17 C17         3.8942   52.4272   20.2612 C.2       1 UNK         0.0000 
     18 O18         4.9494   52.2220   20.8730 O.2       1 UNK         0.0000 
     19 N19         3.7297   53.4101   19.3540 N.am      1 UNK         0.0000 
     20 N20         4.6615   54.3596   19.1366 N.2       1 UNK         0.0000 
     21 C21         4.2855   55.2494   18.3063 C.2       1 UNK         0.0000 
     22 C22         5.0882   56.3947   17.9553 C.2       1 UNK         0.0000 
     23 C23         6.4079   56.5839   18.1994 C.2       1 UNK         0.0000 
     24 C24         7.4350   55.7298   18.8323 C.2       1 UNK         0.0000 
     25 C25         8.7062   56.1559   18.9680 C.2       1 UNK         0.0000 
     26 C26         9.0351   57.4865   18.4815 C.2       1 UNK         0.0000 
     27 C27         8.1055   58.2978   17.9117 C.2       1 UNK         0.0000 
     28 C28         6.7854   57.8601   17.7550 C.2       1 UNK         0.0000 
     29 N29         5.7628   58.4966   17.2357 N.pl3     1 UNK         0.0000 
     30 C30         4.5833   57.6159   17.2097 C.3       1 UNK         0.0000 
     31 Cl31        2.0755   53.6972   26.7660 Cl        1 UNK         0.0000 
     32 H32        -0.4986   52.8977   31.6752 H         1 UNK         0.0000 
     33 H33         0.8520   54.9185   31.2786 H         1 UNK         0.0000 
     34 H34         1.9822   55.2504   29.1051 H         1 UNK         0.0000 
     35 H35        -0.8776   51.2801   29.8547 H         1 UNK         0.0000 
     36 H36        -0.5230   50.4965   27.6743 H         1 UNK         0.0000 
     37 H37         1.0704   50.8654   27.0604 H         1 UNK         0.0000 
     38 H38         1.6830   48.6641   23.6917 H         1 UNK         0.0000 
     39 H39         1.7671   52.1982   20.5317 H         1 UNK         0.0000 
     40 H40         2.5308   50.8483   19.7024 H         1 UNK         0.0000 
     41 H41         2.8509   53.5403   18.8744 H         1 UNK         0.0000 
     42 H42         3.3231   55.2521   17.7933 H         1 UNK         0.0000 
     43 H43         7.2092   54.7371   19.1965 H         1 UNK         0.0000 
     44 H44         9.4597   55.5290   19.4256 H         1 UNK         0.0000 
     45 H45        10.0506   57.8399   18.5958 H         1 UNK         0.0000 
     46 H46         8.4055   59.2810   17.5743 H         1 UNK         0.0000 
     47 H47         3.7493   58.1345   17.6812 H         1 UNK         0.0000 
     48 H48         4.3412   57.4139   16.1646 H         1 UNK         0.0000 
     49 H49         5.7759   59.4585   16.8855 H         1 UNK         0.0000 
@<TRIPOS>BOND
     1    1    6 ar   
     2    1    2 ar   
     3    1   32 1    
     4    2    3 ar   
     5    2   33 1    
     6    3    4 ar   
     7    3   34 1    
     8    4    5 ar   
     9    4   31 1    
    10    5    6 ar   
    11    5    7 1    
    12    6   35 1    
    13    7    8 1    
    14    7   36 1    
    15    7   37 1    
    16    8    9 1    
    17    9   14 1    
    18    9   10 2    
    19   10   11 1    
    20   11   12 1    
    21   11   38 1    
    22   12   13 1    
    23   12   14 1    
    24   12   15 1    
    25   15   16 1    
    26   16   17 1    
    27   16   39 1    
    28   16   40 1    
    29   17   18 2    
    30   17   19 am   BACKBONE|DICT|INTERRES
    31   19   20 1    
    32   19   41 1    
    33   20   21 2    
    34   21   22 1    
    35   21   42 1    
    36   22   30 1    
    37   22   23 2    
    38   23   28 1    
    39   23   24 1    
    40   24   25 2    
    41   24   43 1    
    42   25   26 1    
    43   25   44 1    
    44   26   27 2    
    45   26   45 1    
    46   27   28 1    
    47   27   46 1    
    48   28   29 2    
    49   29   30 1    
    50   29   49 1    
    51   30   47 1    
    52   30   48 1    
@<TRIPOS>SUBSTRUCTURE
     1 UNK         1 GROUP             0       ****    0 ROOT    
