ZINC00694529_3940
                    3D
 Schrodinger Suite 2024-2.
 55 59  0  0  1  0            999 V2000
    4.0518   53.1444   29.9362 C   0  0  0  0  0  0
    4.8128   54.1164   29.0144 C   0  0  0  0  0  0
    4.5909   53.8504   27.5050 C   0  0  1  0  0  0
    4.7768   52.7855   27.3461 H   0  0  0  0  0  0
    3.1618   54.2241   27.0616 C   0  0  0  0  0  0
    2.8503   53.7385   25.6338 C   0  0  0  0  0  0
    4.0038   54.0926   24.6818 C   0  0  0  0  0  0
    5.2513   54.5017   25.1796 C   0  0  0  0  0  0
    6.3599   54.8853   23.9178 S   0  0  0  0  0  0
    5.1939   54.4493   22.6872 C   0  0  0  0  0  0
    3.9836   53.9915   23.2617 C   0  0  0  0  0  0
    2.8114   53.5640   22.5123 C   0  0  0  0  0  0
    1.6640   53.8009   22.8820 O   0  0  0  0  0  0
    3.0505   52.8969   21.3831 N   0  0  0  0  0  0
    5.4856   54.5431   21.3207 N   0  0  0  0  0  0
    6.4292   55.2970   20.7144 C   0  0  0  0  0  0
    7.1135   56.1219   21.3151 O   0  0  0  0  0  0
    6.6390   55.0882   19.1844 C   0  0  0  0  0  0
    7.3914   56.2922   18.5908 C   0  0  0  0  0  0
    8.7878   56.4080   18.5994 C   0  0  0  0  0  0
    9.4142   57.5462   18.0890 C   0  0  0  0  0  0
    8.6507   58.5890   17.5620 C   0  0  0  0  0  0
    7.2593   58.4944   17.5427 C   0  0  0  0  0  0
    6.6416   57.3548   18.0568 C   0  0  0  0  0  0
    5.2655   57.2962   17.9857 O   0  0  0  0  0  0
    4.6644   56.0589   17.9333 C   0  0  0  0  0  0
    5.2918   54.9205   18.4651 C   0  0  0  0  0  0
    4.6556   53.6821   18.3073 C   0  0  0  0  0  0
    3.4263   53.5891   17.6530 C   0  0  0  0  0  0
    2.8144   54.7329   17.1411 C   0  0  0  0  0  0
    3.4362   55.9729   17.2779 C   0  0  0  0  0  0
    5.6152   54.6444   26.6542 C   0  0  0  0  0  0
    4.3042   53.3167   30.9823 H   0  0  0  0  0  0
    4.3061   52.1072   29.7092 H   0  0  0  0  0  0
    2.9704   53.2502   29.8436 H   0  0  0  0  0  0
    4.5335   55.1440   29.2596 H   0  0  0  0  0  0
    5.8763   54.0439   29.2408 H   0  0  0  0  0  0
    2.4286   53.7755   27.7298 H   0  0  0  0  0  0
    3.0033   55.2963   27.1809 H   0  0  0  0  0  0
    2.7021   52.6573   25.6378 H   0  0  0  0  0  0
    1.9071   54.1816   25.3192 H   0  0  0  0  0  0
    3.9558   52.4975   21.1962 H   0  0  0  0  0  0
    2.2695   52.6655   20.7903 H   0  0  0  0  0  0
    4.8052   54.1245   20.7007 H   0  0  0  0  0  0
    7.2347   54.1862   19.0383 H   0  0  0  0  0  0
    9.3916   55.6184   19.0217 H   0  0  0  0  0  0
   10.4918   57.6191   18.1105 H   0  0  0  0  0  0
    9.1320   59.4710   17.1661 H   0  0  0  0  0  0
    6.6607   59.2975   17.1361 H   0  0  0  0  0  0
    5.1163   52.7772   18.6785 H   0  0  0  0  0  0
    2.9544   52.6207   17.5344 H   0  0  0  0  0  0
    1.8653   54.6591   16.6341 H   0  0  0  0  0  0
    2.9803   56.8632   16.8715 H   0  0  0  0  0  0
    5.6037   55.6956   26.9389 H   0  0  0  0  0  0
    6.6252   54.2774   26.8418 H   0  0  0  0  0  0
  1  2  1  0  0  0
  1 33  1  0  0  0
  1 34  1  0  0  0
  1 35  1  0  0  0
  2  3  1  0  0  0
  2 36  1  0  0  0
  2 37  1  0  0  0
  3  4  1  0  0  0
  3 32  1  0  0  0
  3  5  1  0  0  0
  5  6  1  0  0  0
  5 38  1  0  0  0
  5 39  1  0  0  0
  6  7  1  0  0  0
  6 40  1  0  0  0
  6 41  1  0  0  0
  7 11  1  0  0  0
  7  8  2  0  0  0
  8  9  1  0  0  0
  8 32  1  0  0  0
  9 10  1  0  0  0
 10 11  2  0  0  0
 10 15  1  0  0  0
 11 12  1  0  0  0
 12 13  2  0  0  0
 12 14  1  0  0  0
 14 42  1  0  0  0
 14 43  1  0  0  0
 15 16  1  0  0  0
 15 44  1  0  0  0
 16 17  2  0  0  0
 16 18  1  0  0  0
 18 27  1  0  0  0
 18 19  1  0  0  0
 18 45  1  0  0  0
 19 24  2  0  0  0
 19 20  1  0  0  0
 20 21  2  0  0  0
 20 46  1  0  0  0
 21 22  1  0  0  0
 21 47  1  0  0  0
 22 23  2  0  0  0
 22 48  1  0  0  0
 23 24  1  0  0  0
 23 49  1  0  0  0
 24 25  1  0  0  0
 25 26  1  0  0  0
 26 31  2  0  0  0
 26 27  1  0  0  0
 27 28  2  0  0  0
 28 29  1  0  0  0
 28 50  1  0  0  0
 29 30  2  0  0  0
 29 51  1  0  0  0
 30 31  1  0  0  0
 30 52  1  0  0  0
 31 53  1  0  0  0
 32 54  1  0  0  0
 32 55  1  0  0  0
M  END
> <i_i_glide_confnum>
3

> <i_i_glide_lignum>
3941

> <i_i_glide_posenum>
131

> <i_i_glide_rotatable_bonds>
5

> <i_m_Source_File_Index>
1607

> <b_m_subgroup_collapsed>
0

> <r_i_docking_score>
-6.25934

> <r_i_glide_ecoul>
-3.97893

> <r_i_glide_eff_state_penalty>
0

> <r_i_glide_einternal>
6.91837

> <r_i_glide_emodel>
-61.2025

> <r_i_glide_energy>
-46.6386

> <r_i_glide_erotb>
0.319093

> <r_i_glide_esite>
0

> <r_i_glide_evdw>
-42.6597

> <r_i_glide_gscore>
-6.25934

> <r_i_glide_hbond>
-0.0810019

> <r_i_glide_ligand_efficiency>
-0.201914

> <r_i_glide_ligand_efficiency_ln>
-1.41167

> <r_i_glide_ligand_efficiency_sa>
-0.634289

> <r_i_glide_lipo>
-2.86785

> <r_i_glide_metal>
0

> <r_i_glide_rewards>
-0.899749

> <s_i_glide_gridfile>
wee1_glide-grid

> <s_m_Source_File>
wee1_decoys_glide_SP.sdf

> <s_m_Source_Path>
/Users/zhangxujun/Desktop

> <s_m_entry_id>
1882

> <s_m_entry_name>
wee1_decoys_glide_SP.1607

> <s_m_subgroup_title>
wee1_decoys_glide_SP

> <s_m_subgroupid>
wee1_decoys_glide_SP


$$$$
