@<TRIPOS>MOLECULE
ZINC09105157_3105
58   60    1
SMALL
USER_CHARGES


@<TRIPOS>ATOM
      1 C1          4.2756   52.4431   29.0516 C.3       1 UNK         0.0000 
      2 C2          3.0302   53.3133   29.2930 C.3       1 UNK         0.0000 
      3 C3          3.3217   54.8064   29.0374 C.3       1 UNK         0.0000 
      4 C4          1.8315   52.8019   28.4905 C.ar      1 UNK         0.0000 
      5 C5          0.7752   52.1646   29.1474 C.ar      1 UNK         0.0000 
      6 C6         -0.3175   51.6975   28.4225 C.ar      1 UNK         0.0000 
      7 C7         -0.3598   51.8783   27.0380 C.ar      1 UNK         0.0000 
      8 C8          0.6990   52.4948   26.3734 C.ar      1 UNK         0.0000 
      9 C9          1.7946   52.9547   27.0995 C.ar      1 UNK         0.0000 
     10 S10        -1.7910   51.3359   26.1059 S.o2      1 UNK         0.0000 
     11 O11        -2.0217   52.3377   25.0594 O.2       1 UNK         0.0000 
     12 O12        -2.8453   51.0626   27.0895 O.2       1 UNK         0.0000 
     13 C13        -1.2080   49.7056   25.2924 C.3       1 UNK         0.0000 
     14 H14        -0.6593   49.1851   26.0804 H         1 UNK         0.0000 
     15 C15        -2.4164   48.8234   24.9049 C.3       1 UNK         0.0000 
     16 N16        -3.1551   48.4006   26.0866 N.am      1 UNK         0.0000 
     17 C17        -4.4700   48.0967   26.1223 C.2       1 UNK         0.0000 
     18 O18        -5.1254   47.8610   25.1059 O.2       1 UNK         0.0000 
     19 C19        -5.0931   48.0671   27.4836 C.2       1 UNK         0.0000 
     20 O20        -6.0905   47.3751   27.7186 O.2       1 UNK         0.0000 
     21 N21        -4.4952   48.8780   28.3969 N.am      1 UNK         0.0000 
     22 N22        -5.0582   49.0980   29.6601 N.am      1 UNK         0.0000 
     23 C23        -6.0982   49.9569   29.7927 C.2       1 UNK         0.0000 
     24 O24        -6.5995   50.5906   28.8599 O.2       1 UNK         0.0000 
     25 C25        -6.6535   50.1136   31.1863 C.ar      1 UNK         0.0000 
     26 C26        -5.8615   49.9533   32.3325 C.ar      1 UNK         0.0000 
     27 C27        -6.4289   50.1082   33.5990 C.ar      1 UNK         0.0000 
     28 C28        -7.7808   50.4380   33.6834 C.ar      1 UNK         0.0000 
     29 N29        -8.5710   50.6017   32.5950 N.ar      1 UNK         0.0000 
     30 C30        -8.0051   50.4381   31.3730 C.ar      1 UNK         0.0000 
     31 C31        -0.2826   49.9294   24.1059 C.2       1 UNK         0.0000 
     32 C32         1.0866   49.6984   24.0271 C.2       1 UNK         0.0000 
     33 C33         1.6629   50.0026   22.7924 C.2       1 UNK         0.0000 
     34 C34         0.7396   50.4872   21.8846 C.2       1 UNK         0.0000 
     35 S35        -0.8488   50.5510   22.5699 S.3       1 UNK         0.0000 
     36 H36         4.0693   51.3979   29.2819 H         1 UNK         0.0000 
     37 H37         4.6121   52.5023   28.0150 H         1 UNK         0.0000 
     38 H38         5.1038   52.7568   29.6812 H         1 UNK         0.0000 
     39 H39         2.7804   53.2272   30.3534 H         1 UNK         0.0000 
     40 H40         2.4437   55.4216   29.2325 H         1 UNK         0.0000 
     41 H41         4.1241   55.1671   29.6784 H         1 UNK         0.0000 
     42 H42         3.6320   54.9890   28.0085 H         1 UNK         0.0000 
     43 H43         0.7914   52.0297   30.2198 H         1 UNK         0.0000 
     44 H44        -1.1282   51.2012   28.9405 H         1 UNK         0.0000 
     45 H45         0.6688   52.6270   25.3012 H         1 UNK         0.0000 
     46 H46         2.6087   53.4322   26.5758 H         1 UNK         0.0000 
     47 H47        -2.0832   47.9295   24.3737 H         1 UNK         0.0000 
     48 H48        -3.0732   49.3724   24.2233 H         1 UNK         0.0000 
     49 H49        -2.6544   48.4951   26.9745 H         1 UNK         0.0000 
     50 H50        -3.7305   49.5082   28.1893 H         1 UNK         0.0000 
     51 H51        -4.8429   48.3582   30.3137 H         1 UNK         0.0000 
     52 H52        -4.8063   49.7279   32.2626 H         1 UNK         0.0000 
     53 H53        -5.8286   49.9967   34.4883 H         1 UNK         0.0000 
     54 H54        -8.2568   50.5661   34.6445 H         1 UNK         0.0000 
     55 H55        -8.6690   50.5715   30.5327 H         1 UNK         0.0000 
     56 H56         1.6508   49.2967   24.8542 H         1 UNK         0.0000 
     57 H57         2.7127   49.8654   22.5703 H         1 UNK         0.0000 
     58 H58         0.9113   50.7911   20.8615 H         1 UNK         0.0000 
@<TRIPOS>BOND
     1    1    2 1    
     2    1   36 1    
     3    1   37 1    
     4    1   38 1    
     5    2    3 1    
     6    2    4 1    
     7    2   39 1    
     8    3   40 1    
     9    3   41 1    
    10    3   42 1    
    11    4    9 ar   
    12    4    5 ar   
    13    5    6 ar   
    14    5   43 1    
    15    6    7 ar   
    16    6   44 1    
    17    7    8 ar   
    18    7   10 1    
    19    8    9 ar   
    20    8   45 1    
    21    9   46 1    
    22   10   11 2    
    23   10   12 2    
    24   10   13 1    
    25   13   14 1    
    26   13   15 1    
    27   13   31 1    
    28   15   16 1    
    29   15   47 1    
    30   15   48 1    
    31   16   17 am   BACKBONE|DICT|INTERRES
    32   16   49 1    
    33   17   18 2    
    34   17   19 1    
    35   19   20 2    
    36   19   21 am   BACKBONE|DICT|INTERRES
    37   21   22 1    
    38   21   50 1    
    39   22   23 am   BACKBONE|DICT|INTERRES
    40   22   51 1    
    41   23   24 2    
    42   23   25 1    
    43   25   30 ar   
    44   25   26 ar   
    45   26   27 ar   
    46   26   52 1    
    47   27   28 ar   
    48   27   53 1    
    49   28   29 ar   
    50   28   54 1    
    51   29   30 ar   
    52   30   55 1    
    53   31   35 1    
    54   31   32 2    
    55   32   33 1    
    56   32   56 1    
    57   33   34 2    
    58   33   57 1    
    59   34   35 1    
    60   34   58 1    
@<TRIPOS>SUBSTRUCTURE
     1 UNK         1 GROUP             0       ****    0 ROOT    
