@<TRIPOS>MOLECULE
ZINC59384849_3550
51   53    1
SMALL
USER_CHARGES


@<TRIPOS>ATOM
      1 C1          3.0180   50.6824   19.9138 C.3       1 UNK         0.0000 
      2 C2          3.6175   51.9913   20.4323 C.2       1 UNK         0.0000 
      3 C3          3.1830   52.6959   21.5111 C.2       1 UNK         0.0000 
      4 C4          3.8531   54.0563   21.8878 C.3       1 UNK         0.0000 
      5 H5          3.0692   54.8096   21.9804 H         1 UNK         0.0000 
      6 N6          4.6895   54.4972   20.7374 N.pl3     1 UNK         0.0000 
      7 C7          5.1016   53.7461   19.6777 C.2       1 UNK         0.0000 
      8 S8          6.1634   54.3341   18.5542 S.2       1 UNK         0.0000 
      9 N9          4.5704   52.4966   19.6063 N.pl3     1 UNK         0.0000 
     10 C10         4.5686   54.0962   23.2469 C.ar      1 UNK         0.0000 
     11 C11         5.9670   54.0620   23.3268 C.ar      1 UNK         0.0000 
     12 C12         6.6015   54.0983   24.5626 C.ar      1 UNK         0.0000 
     13 C13         5.8422   54.1468   25.7287 C.ar      1 UNK         0.0000 
     14 C14         4.4529   54.2043   25.6652 C.ar      1 UNK         0.0000 
     15 C15         3.8184   54.1868   24.4267 C.ar      1 UNK         0.0000 
     16 Br16        6.7041   54.0972   27.4218 Br        1 UNK         0.0000 
     17 C17         2.1696   52.1593   22.3948 C.2       1 UNK         0.0000 
     18 O18         2.2663   51.0308   22.8816 O.2       1 UNK         0.0000 
     19 N19         1.1448   53.0230   22.6061 N.am      1 UNK         0.0000 
     20 N20         0.0155   52.8961   23.3884 N.2       1 UNK         0.0000 
     21 C21         0.0313   52.2270   24.4788 C.2       1 UNK         0.0000 
     22 C22        -1.1540   52.0156   25.3169 C.ar      1 UNK         0.0000 
     23 C23        -1.0188   51.3019   26.5081 C.ar      1 UNK         0.0000 
     24 C24        -2.1204   51.0764   27.3247 C.ar      1 UNK         0.0000 
     25 C25        -3.3966   51.5427   26.9824 C.ar      1 UNK         0.0000 
     26 C26        -3.5235   52.2668   25.7865 C.ar      1 UNK         0.0000 
     27 C27        -2.4216   52.4967   24.9650 C.ar      1 UNK         0.0000 
     28 N28        -4.5154   51.2963   27.8281 N.pl3     1 UNK         0.0000 
     29 C29        -5.8692   51.5827   27.3538 C.3       1 UNK         0.0000 
     30 C30        -4.3946   50.3299   28.9249 C.3       1 UNK         0.0000 
     31 H31         3.5043   49.8246   20.3689 H         1 UNK         0.0000 
     32 H32         1.9557   50.6094   20.1457 H         1 UNK         0.0000 
     33 H33         3.1037   50.5875   18.8290 H         1 UNK         0.0000 
     34 H34         5.0624   55.4351   20.7373 H         1 UNK         0.0000 
     35 H35         4.9335   51.9323   18.8396 H         1 UNK         0.0000 
     36 H36         6.5769   54.0051   22.4390 H         1 UNK         0.0000 
     37 H37         7.6781   54.0692   24.6039 H         1 UNK         0.0000 
     38 H38         3.8693   54.2474   26.5732 H         1 UNK         0.0000 
     39 H39         2.7406   54.2371   24.3946 H         1 UNK         0.0000 
     40 H40         1.0456   53.7328   21.8936 H         1 UNK         0.0000 
     41 H41         0.9418   51.7769   24.8674 H         1 UNK         0.0000 
     42 H42        -0.0619   50.9027   26.8157 H         1 UNK         0.0000 
     43 H43        -1.9546   50.5031   28.2238 H         1 UNK         0.0000 
     44 H44        -4.4755   52.6570   25.4651 H         1 UNK         0.0000 
     45 H45        -2.5640   53.0531   24.0496 H         1 UNK         0.0000 
     46 H46        -5.9643   52.6181   27.0266 H         1 UNK         0.0000 
     47 H47        -6.1137   50.9436   26.5036 H         1 UNK         0.0000 
     48 H48        -6.6188   51.4110   28.1282 H         1 UNK         0.0000 
     49 H49        -3.5928   50.6016   29.6127 H         1 UNK         0.0000 
     50 H50        -5.3141   50.2461   29.5053 H         1 UNK         0.0000 
     51 H51        -4.1591   49.3392   28.5315 H         1 UNK         0.0000 
@<TRIPOS>BOND
     1    1    2 1    
     2    1   31 1    
     3    1   32 1    
     4    1   33 1    
     5    2    9 1    
     6    2    3 2    
     7    3    4 1    
     8    3   17 1    
     9    4    5 1    
    10    4    6 1    
    11    4   10 1    
    12    6    7 1    
    13    6   34 1    
    14    7    8 2    
    15    7    9 1    
    16    9   35 1    
    17   10   15 ar   
    18   10   11 ar   
    19   11   12 ar   
    20   11   36 1    
    21   12   13 ar   
    22   12   37 1    
    23   13   14 ar   
    24   13   16 1    
    25   14   15 ar   
    26   14   38 1    
    27   15   39 1    
    28   17   18 2    
    29   17   19 am   BACKBONE|DICT|INTERRES
    30   19   20 1    
    31   19   40 1    
    32   20   21 2    
    33   21   22 1    
    34   21   41 1    
    35   22   27 ar   
    36   22   23 ar   
    37   23   24 ar   
    38   23   42 1    
    39   24   25 ar   
    40   24   43 1    
    41   25   26 ar   
    42   25   28 1    
    43   26   27 ar   
    44   26   44 1    
    45   27   45 1    
    46   28   29 1    
    47   28   30 1    
    48   29   46 1    
    49   29   47 1    
    50   29   48 1    
    51   30   49 1    
    52   30   50 1    
    53   30   51 1    
@<TRIPOS>SUBSTRUCTURE
     1 UNK         1 GROUP             0       ****    0 ROOT    
