@<TRIPOS>MOLECULE
ZINC22131567_1998
51   55    1
SMALL
USER_CHARGES


@<TRIPOS>ATOM
      1 C1          1.0756   53.0739   30.4493 C.3       1 UNK         0.0000 
      2 C2          1.9822   53.3705   29.2809 C.2       1 UNK         0.0000 
      3 N3          1.6398   53.3935   28.0103 N.2       1 UNK         0.0000 
      4 C4          2.8137   53.6793   27.3694 C.ar      1 UNK         0.0000 
      5 C5          3.1046   53.8235   26.0060 C.ar      1 UNK         0.0000 
      6 C6          4.4261   54.0969   25.6301 C.ar      1 UNK         0.0000 
      7 C7          5.4314   54.2599   26.6078 C.ar      1 UNK         0.0000 
      8 C8          5.1614   54.1349   27.9741 C.ar      1 UNK         0.0000 
      9 C9          3.8384   53.8332   28.3178 C.ar      1 UNK         0.0000 
     10 O10         3.2955   53.6455   29.5541 O.3       1 UNK         0.0000 
     11 N11         4.6538   54.2268   24.2478 N.am      1 UNK         0.0000 
     12 C12         5.8112   54.0967   23.5662 C.2       1 UNK         0.0000 
     13 O13         6.8975   53.8025   24.0705 O.2       1 UNK         0.0000 
     14 C14         5.6830   54.4067   22.1546 C.ar      1 UNK         0.0000 
     15 C15         6.5075   55.3807   21.6785 C.ar      1 UNK         0.0000 
     16 C16         6.4868   55.9047   20.3294 C.ar      1 UNK         0.0000 
     17 N17         5.6665   55.2391   19.4959 N.pl3     1 UNK         0.0000 
     18 C18         4.8137   54.1807   19.8366 C.ar      1 UNK         0.0000 
     19 C19         4.7700   53.7333   21.1718 C.ar      1 UNK         0.0000 
     20 C20         3.9309   52.6580   21.4855 C.ar      1 UNK         0.0000 
     21 C21         3.1539   52.0398   20.5023 C.ar      1 UNK         0.0000 
     22 C22         3.1935   52.5142   19.1878 C.ar      1 UNK         0.0000 
     23 C23         4.0214   53.5877   18.8552 C.ar      1 UNK         0.0000 
     24 S24         2.1034   50.6418   20.9170 S.o2      1 UNK         0.0000 
     25 O25         2.1218   49.7906   19.7263 O.2       1 UNK         0.0000 
     26 O26         2.6925   50.0837   22.1400 O.2       1 UNK         0.0000 
     27 N27         0.7271   51.3841   21.0923 N.2       1 UNK         0.0000 
     28 C28         0.1279   51.7393   22.2749 C.ar      1 UNK         0.0000 
     29 C29        -1.2292   52.0759   22.1951 C.ar      1 UNK         0.0000 
     30 C30        -1.9608   52.4376   23.3224 C.ar      1 UNK         0.0000 
     31 C31        -1.3362   52.4691   24.5630 C.ar      1 UNK         0.0000 
     32 C32         0.0158   52.1572   24.6744 C.ar      1 UNK         0.0000 
     33 C33         0.7429   51.8047   23.5385 C.ar      1 UNK         0.0000 
     34 F34        -2.0466   52.8065   25.6635 F         1 UNK         0.0000 
     35 O35         7.1045   56.9007   19.9809 O.2       1 UNK         0.0000 
     36 H36         0.0764   52.7721   30.1302 H         1 UNK         0.0000 
     37 H37         0.9562   53.9426   31.0978 H         1 UNK         0.0000 
     38 H38         1.4656   52.2624   31.0643 H         1 UNK         0.0000 
     39 H39         2.3216   53.7085   25.2681 H         1 UNK         0.0000 
     40 H40         6.4435   54.5001   26.3167 H         1 UNK         0.0000 
     41 H41         5.9295   54.2662   28.7241 H         1 UNK         0.0000 
     42 H42         3.8270   54.3865   23.6930 H         1 UNK         0.0000 
     43 H43         7.2072   55.8710   22.3423 H         1 UNK         0.0000 
     44 H44         3.8874   52.2679   22.4838 H         1 UNK         0.0000 
     45 H45         2.5964   52.0322   18.4253 H         1 UNK         0.0000 
     46 H46         4.0547   53.9326   17.8315 H         1 UNK         0.0000 
     47 H47        -1.7312   52.0405   21.2385 H         1 UNK         0.0000 
     48 H48        -3.0094   52.6813   23.2403 H         1 UNK         0.0000 
     49 H49         0.4946   52.1843   25.6413 H         1 UNK         0.0000 
     50 H50         1.7892   51.5815   23.6666 H         1 UNK         0.0000 
     51 H51         5.6632   55.5991   18.5565 H         1 UNK         0.0000 
@<TRIPOS>BOND
     1    1    2 1    
     2    1   36 1    
     3    1   37 1    
     4    1   38 1    
     5    2   10 1    
     6    2    3 2    
     7    3    4 1    
     8    4    9 ar   
     9    4    5 ar   
    10    5    6 ar   
    11    5   39 1    
    12    6    7 ar   
    13    6   11 1    
    14    7    8 ar   
    15    7   40 1    
    16    8    9 ar   
    17    8   41 1    
    18    9   10 1    
    19   11   12 am   BACKBONE|DICT|INTERRES
    20   11   42 1    
    21   12   13 2    
    22   12   14 1    
    23   14   19 ar   
    24   14   15 ar   
    25   15   16 ar   
    26   15   43 1    
    27   16   17 ar   
    28   16   35 2    
    29   17   18 ar   
    30   17   51 1    
    31   18   23 ar   
    32   18   19 ar   
    33   19   20 ar   
    34   20   21 ar   
    35   20   44 1    
    36   21   22 ar   
    37   21   24 1    
    38   22   23 ar   
    39   22   45 1    
    40   23   46 1    
    41   24   25 2    
    42   24   26 2    
    43   24   27 1    
    44   27   28 1    
    45   28   33 ar   
    46   28   29 ar   
    47   29   30 ar   
    48   29   47 1    
    49   30   31 ar   
    50   30   48 1    
    51   31   32 ar   
    52   31   34 1    
    53   32   33 ar   
    54   32   49 1    
    55   33   50 1    
@<TRIPOS>SUBSTRUCTURE
     1 UNK         1 GROUP             0       ****    0 ROOT    
