@<TRIPOS>MOLECULE
ZINC66720125_1456
55   57    1
SMALL
USER_CHARGES


@<TRIPOS>ATOM
      1 C1          4.6278   53.2362   28.9703 C.3       1 UNK         0.0000 
      2 C2          4.8433   53.7912   27.5678 C.ar      1 UNK         0.0000 
      3 C3          6.1619   54.0866   27.2019 C.ar      1 UNK         0.0000 
      4 C4          6.4780   54.4364   25.8935 C.ar      1 UNK         0.0000 
      5 C5          5.4853   54.4927   24.9224 C.ar      1 UNK         0.0000 
      6 C6          4.1494   54.2865   25.3010 C.ar      1 UNK         0.0000 
      7 C7          3.8027   53.9325   26.6152 C.ar      1 UNK         0.0000 
      8 C8          2.3369   53.6967   26.9290 C.2       1 UNK         0.0000 
      9 O9          1.5635   53.2812   26.0657 O.2       1 UNK         0.0000 
     10 N10         1.9313   54.0158   28.1716 N.am      1 UNK         0.0000 
     11 C11         0.6034   53.8020   28.7464 C.3       1 UNK         0.0000 
     12 C12         0.2458   52.3076   28.8739 C.3       1 UNK         0.0000 
     13 C13         0.5055   54.5092   30.1064 C.3       1 UNK         0.0000 
     14 N14         5.8920   54.7479   23.5991 N.am      1 UNK         0.0000 
     15 C15         5.2840   54.3151   22.4667 C.2       1 UNK         0.0000 
     16 O16         4.3310   53.5331   22.4726 O.2       1 UNK         0.0000 
     17 C17         5.8845   54.8956   21.2058 C.2       1 UNK         0.0000 
     18 O18         6.7042   55.8228   21.2818 O.2       1 UNK         0.0000 
     19 N19         5.5067   54.3674   19.9957 N.am      1 UNK         0.0000 
     20 C20         4.6096   53.2148   19.7566 C.3       1 UNK         0.0000 
     21 C21         4.5275   53.1070   18.2380 C.3       1 UNK         0.0000 
     22 C22         5.8724   53.6282   17.7754 C.3       1 UNK         0.0000 
     23 C23         6.1694   54.7846   18.7405 C.3       1 UNK         0.0000 
     24 H24         7.2458   54.8242   18.9219 H         1 UNK         0.0000 
     25 C25         5.7224   56.1368   18.2041 C.2       1 UNK         0.0000 
     26 C26         4.4861   56.4995   17.6704 C.2       1 UNK         0.0000 
     27 C27         4.6300   57.7984   17.2588 C.2       1 UNK         0.0000 
     28 O28         5.8808   58.2123   17.5823 O.3       1 UNK         0.0000 
     29 N29         6.5606   57.1522   18.1845 N.2       1 UNK         0.0000 
     30 C30         3.7176   58.7882   16.5853 C.3       1 UNK         0.0000 
     31 H31         3.8242   52.4999   29.0071 H         1 UNK         0.0000 
     32 H32         5.5049   52.6768   29.2807 H         1 UNK         0.0000 
     33 H33         4.4349   54.0347   29.6878 H         1 UNK         0.0000 
     34 H34         6.9614   53.9930   27.9245 H         1 UNK         0.0000 
     35 H35         7.5047   54.5962   25.6164 H         1 UNK         0.0000 
     36 H36         3.3681   54.3785   24.5584 H         1 UNK         0.0000 
     37 H37         2.6104   54.4564   28.7707 H         1 UNK         0.0000 
     38 H38        -0.1263   54.2682   28.0834 H         1 UNK         0.0000 
     39 H39        -0.7226   52.1795   29.3614 H         1 UNK         0.0000 
     40 H40         0.1689   51.8209   27.9021 H         1 UNK         0.0000 
     41 H41         0.9743   51.7684   29.4794 H         1 UNK         0.0000 
     42 H42        -0.4930   54.3913   30.5297 H         1 UNK         0.0000 
     43 H43         1.1968   54.0775   30.8319 H         1 UNK         0.0000 
     44 H44         0.7034   55.5788   30.0268 H         1 UNK         0.0000 
     45 H45         6.7236   55.3120   23.4768 H         1 UNK         0.0000 
     46 H46         3.6139   53.3718   20.1765 H         1 UNK         0.0000 
     47 H47         5.0532   52.3027   20.1601 H         1 UNK         0.0000 
     48 H48         3.7210   53.7368   17.8657 H         1 UNK         0.0000 
     49 H49         4.3033   52.0969   17.8942 H         1 UNK         0.0000 
     50 H50         5.8682   53.9244   16.7246 H         1 UNK         0.0000 
     51 H51         6.6215   52.8408   17.8898 H         1 UNK         0.0000 
     52 H52         3.6041   55.8896   17.5676 H         1 UNK         0.0000 
     53 H53         2.8292   58.3076   16.1793 H         1 UNK         0.0000 
     54 H54         4.2175   59.2952   15.7602 H         1 UNK         0.0000 
     55 H55         3.3755   59.5541   17.2809 H         1 UNK         0.0000 
@<TRIPOS>BOND
     1    1    2 1    
     2    1   31 1    
     3    1   32 1    
     4    1   33 1    
     5    2    7 ar   
     6    2    3 ar   
     7    3    4 ar   
     8    3   34 1    
     9    4    5 ar   
    10    4   35 1    
    11    5    6 ar   
    12    5   14 1    
    13    6    7 ar   
    14    6   36 1    
    15    7    8 1    
    16    8    9 2    
    17    8   10 am   BACKBONE|DICT|INTERRES
    18   10   11 1    
    19   10   37 1    
    20   11   12 1    
    21   11   13 1    
    22   11   38 1    
    23   12   39 1    
    24   12   40 1    
    25   12   41 1    
    26   13   42 1    
    27   13   43 1    
    28   13   44 1    
    29   14   15 am   BACKBONE|DICT|INTERRES
    30   14   45 1    
    31   15   16 2    
    32   15   17 1    
    33   17   18 2    
    34   17   19 am   BACKBONE|DICT|INTERRES
    35   19   23 1    
    36   19   20 1    
    37   20   21 1    
    38   20   46 1    
    39   20   47 1    
    40   21   22 1    
    41   21   48 1    
    42   21   49 1    
    43   22   23 1    
    44   22   50 1    
    45   22   51 1    
    46   23   24 1    
    47   23   25 1    
    48   25   29 2    
    49   25   26 1    
    50   26   27 2    
    51   26   52 1    
    52   27   28 1    
    53   27   30 1    
    54   28   29 1    
    55   30   53 1    
    56   30   54 1    
    57   30   55 1    
@<TRIPOS>SUBSTRUCTURE
     1 UNK         1 GROUP             0       ****    0 ROOT    
