ZINC12384474_1638
                    3D
 Schrodinger Suite 2024-2.
 44 45  0  0  1  0            999 V2000
    2.9942   51.6967   28.6283 C   0  0  0  0  0  0
    1.9252   52.6938   29.1300 C   0  0  2  0  0  0
    0.5030   52.4132   28.4783 C   0  0  1  0  0  0
   -0.0585   51.7072   29.0964 H   0  0  0  0  0  0
   -0.1864   53.7843   28.4997 C   0  0  0  0  0  0
    0.9055   54.8647   28.5249 C   0  0  0  0  0  0
    2.2881   54.1801   28.6649 C   0  0  0  0  0  0
    3.1403   54.9879   29.6807 C   0  0  0  0  0  0
    3.0999   54.2778   27.3354 C   0  0  0  0  0  0
    0.4698   51.8014   27.0398 C   0  0  0  0  0  0
    0.7476   52.5072   26.0671 O   0  0  0  0  0  0
    0.1205   50.4977   26.9030 N   0  0  0  0  0  0
    0.3048   49.8912   25.6549 N   0  0  0  0  0  0
   -0.6900   49.8880   24.7405 C   0  0  0  0  0  0
   -1.8570   50.2106   24.9825 O   0  0  0  0  0  0
   -0.2812   49.4875   23.3401 C   0  0  0  0  0  0
   -1.2363   48.9658   22.4579 C   0  0  0  0  0  0
   -0.8919   48.6655   21.1419 C   0  0  0  0  0  0
    0.4088   48.8915   20.6985 C   0  0  0  0  0  0
    1.3735   49.3987   21.5633 C   0  0  0  0  0  0
    1.0308   49.6965   22.8794 C   0  0  0  0  0  0
    1.8982   52.5007   30.6899 C   0  0  0  0  0  0
    0.8658   52.8656   31.2899 O   0  0  0  0  0  0
    2.9214   52.0807   31.2817 O   0  5  0  0  0  0
    3.0934   51.7308   27.5554 H   0  0  0  0  0  0
    3.9907   51.8898   29.0310 H   0  0  0  0  0  0
    2.7044   50.6760   28.8817 H   0  0  0  0  0  0
   -0.7823   53.8569   29.4113 H   0  0  0  0  0  0
   -0.8952   53.9188   27.6827 H   0  0  0  0  0  0
    0.7044   55.4807   29.4025 H   0  0  0  0  0  0
    0.8478   55.5457   27.6817 H   0  0  0  0  0  0
    3.4943   55.9318   29.2672 H   0  0  0  0  0  0
    2.5503   55.2597   30.5479 H   0  0  0  0  0  0
    4.0163   54.4307   30.0166 H   0  0  0  0  0  0
    3.1938   55.3062   27.0000 H   0  0  0  0  0  0
    4.1169   53.9020   27.4572 H   0  0  0  0  0  0
    2.6705   53.7430   26.4998 H   0  0  0  0  0  0
   -0.1563   49.8580   27.6386 H   0  0  0  0  0  0
    1.1151   49.2902   25.6151 H   0  0  0  0  0  0
   -2.2542   48.8044   22.7839 H   0  0  0  0  0  0
   -1.6338   48.2690   20.4648 H   0  0  0  0  0  0
    0.6748   48.6661   19.6757 H   0  0  0  0  0  0
    2.3812   49.5678   21.2120 H   0  0  0  0  0  0
    1.7925   50.1123   23.5235 H   0  0  0  0  0  0
  1  2  1  0  0  0
  1 25  1  0  0  0
  1 26  1  0  0  0
  1 27  1  0  0  0
  2  7  1  0  0  0
  2  3  1  0  0  0
  2 22  1  0  0  0
  3  4  1  0  0  0
  3  5  1  0  0  0
  3 10  1  0  0  0
  5  6  1  0  0  0
  5 28  1  0  0  0
  5 29  1  0  0  0
  6  7  1  0  0  0
  6 30  1  0  0  0
  6 31  1  0  0  0
  7  8  1  0  0  0
  7  9  1  0  0  0
  8 32  1  0  0  0
  8 33  1  0  0  0
  8 34  1  0  0  0
  9 35  1  0  0  0
  9 36  1  0  0  0
  9 37  1  0  0  0
 10 11  2  0  0  0
 10 12  1  0  0  0
 12 13  1  0  0  0
 12 38  1  0  0  0
 13 14  1  0  0  0
 13 39  1  0  0  0
 14 15  2  0  0  0
 14 16  1  0  0  0
 16 21  2  0  0  0
 16 17  1  0  0  0
 17 18  2  0  0  0
 17 40  1  0  0  0
 18 19  1  0  0  0
 18 41  1  0  0  0
 19 20  2  0  0  0
 19 42  1  0  0  0
 20 21  1  0  0  0
 20 43  1  0  0  0
 21 44  1  0  0  0
 22 23  2  0  0  0
 22 24  1  0  0  0
M  CHG  1  24  -1
M  END
> <i_i_glide_confnum>
37

> <i_i_glide_lignum>
1639

> <i_i_glide_posenum>
84

> <i_i_glide_rotatable_bonds>
6

> <i_m_Source_File_Index>
4184

> <b_m_subgroup_collapsed>
0

> <r_i_docking_score>
-3.96763

> <r_i_glide_ecoul>
-4.21913

> <r_i_glide_eff_state_penalty>
0

> <r_i_glide_einternal>
2.82249

> <r_i_glide_emodel>
-33.8291

> <r_i_glide_energy>
-26.6551

> <r_i_glide_erotb>
0.739885

> <r_i_glide_esite>
-0.176494

> <r_i_glide_evdw>
-22.436

> <r_i_glide_gscore>
-3.96763

> <r_i_glide_hbond>
-0.293422

> <r_i_glide_ligand_efficiency>
-0.172506

> <r_i_glide_ligand_efficiency_ln>
-0.959409

> <r_i_glide_ligand_efficiency_sa>
-0.490583

> <r_i_glide_lipo>
-1.18613

> <r_i_glide_metal>
0

> <r_i_glide_rewards>
-1.2968

> <s_i_glide_gridfile>
wee1_glide-grid

> <s_m_Source_File>
wee1_decoys_glide_SP.sdf

> <s_m_Source_Path>
/Users/zhangxujun/Desktop

> <s_m_entry_id>
4459

> <s_m_entry_name>
wee1_decoys_glide_SP.4184

> <s_m_subgroup_title>
wee1_decoys_glide_SP

> <s_m_subgroupid>
wee1_decoys_glide_SP


$$$$
