@<TRIPOS>MOLECULE
ZINC13154799_1345
42   44    1
SMALL
USER_CHARGES


@<TRIPOS>ATOM
      1 C1         -3.8670   52.7520   25.7301 C.3       1 UNK         0.0000 
      2 C2         -3.5148   51.6185   26.7065 C.2       1 UNK         0.0000 
      3 N3         -2.4354   50.9344   26.6938 N.2       1 UNK         0.0000 
      4 N4         -1.4962   51.2219   25.7449 N.pl3     1 UNK         0.0000 
      5 C5         -0.4590   50.4104   25.5001 C.2       1 UNK         0.0000 
      6 N6         -0.2693   49.2243   26.0816 N.pl3     1 UNK         0.0000 
      7 S7          0.7082   50.8862   24.3006 S.3       1 UNK         0.0000 
      8 C8          0.8471   52.7050   24.4536 C.3       1 UNK         0.0000 
      9 H9         -0.1258   53.1398   24.6767 H         1 UNK         0.0000 
     10 C10         1.4215   53.3455   23.2334 C.3       1 UNK         0.0000 
     11 C11         2.7453   53.9209   23.6728 C.2       1 UNK         0.0000 
     12 O12         3.4941   54.4966   22.8860 O.2       1 UNK         0.0000 
     13 N13         2.9206   53.6968   25.0141 N.am      1 UNK         0.0000 
     14 C14         1.8340   53.0516   25.5542 C.2       1 UNK         0.0000 
     15 O15         1.6338   52.7345   26.7288 O.2       1 UNK         0.0000 
     16 C16         4.1158   54.0422   25.7439 C.ar      1 UNK         0.0000 
     17 C17         5.3679   54.0970   25.0945 C.ar      1 UNK         0.0000 
     18 C18         6.5411   54.3593   25.7910 C.ar      1 UNK         0.0000 
     19 C19         6.4927   54.5422   27.1660 C.ar      1 UNK         0.0000 
     20 C20         5.2785   54.4969   27.8412 C.ar      1 UNK         0.0000 
     21 C21         4.0981   54.2732   27.1345 C.ar      1 UNK         0.0000 
     22 C22        -4.5149   51.3353   27.7477 C.2       1 UNK         0.0000 
     23 C23        -5.8665   51.6974   27.7732 C.2       1 UNK         0.0000 
     24 C24        -6.5329   51.3020   28.9395 C.2       1 UNK         0.0000 
     25 C25        -5.7032   50.6324   29.8264 C.2       1 UNK         0.0000 
     26 S26        -4.0957   50.4774   29.2120 S.3       1 UNK         0.0000 
     27 H27        -4.4782   53.5191   26.2146 H         1 UNK         0.0000 
     28 H28        -2.9852   53.2892   25.3736 H         1 UNK         0.0000 
     29 H29        -4.4206   52.3684   24.8665 H         1 UNK         0.0000 
     30 H30        -0.8960   48.9144   26.8296 H         1 UNK         0.0000 
     31 H31         1.5650   52.6590   22.3967 H         1 UNK         0.0000 
     32 H32         0.7987   54.1657   22.8823 H         1 UNK         0.0000 
     33 H33         5.4753   53.8991   24.0422 H         1 UNK         0.0000 
     34 H34         7.4836   54.3887   25.2625 H         1 UNK         0.0000 
     35 H35         7.4065   54.7262   27.7103 H         1 UNK         0.0000 
     36 H36         5.2517   54.6587   28.9087 H         1 UNK         0.0000 
     37 H37         3.1781   54.2808   27.6972 H         1 UNK         0.0000 
     38 H38        -6.3628   52.2298   26.9746 H         1 UNK         0.0000 
     39 H39        -7.5808   51.4930   29.1231 H         1 UNK         0.0000 
     40 H40        -5.9526   50.2165   30.7925 H         1 UNK         0.0000 
     41 H41         0.5189   48.6395   25.8412 H         1 UNK         0.0000 
     42 H42        -1.6145   52.0633   25.2016 H         1 UNK         0.0000 
@<TRIPOS>BOND
     1    1    2 1    
     2    1   27 1    
     3    1   28 1    
     4    1   29 1    
     5    2    3 2    
     6    2   22 1    
     7    3    4 1    
     8    4    5 2    
     9    4   42 1    
    10    5    6 1    
    11    5    7 1    
    12    6   30 1    
    13    6   41 1    
    14    7    8 1    
    15    8    9 1    
    16    8   14 1    
    17    8   10 1    
    18   10   11 1    
    19   10   31 1    
    20   10   32 1    
    21   11   12 2    
    22   11   13 am   BACKBONE|DICT|INTERRES
    23   13   14 am   BACKBONE|DICT|INTERRES
    24   13   16 1    
    25   14   15 2    
    26   16   21 ar   
    27   16   17 ar   
    28   17   18 ar   
    29   17   33 1    
    30   18   19 ar   
    31   18   34 1    
    32   19   20 ar   
    33   19   35 1    
    34   20   21 ar   
    35   20   36 1    
    36   21   37 1    
    37   22   26 1    
    38   22   23 2    
    39   23   24 1    
    40   23   38 1    
    41   24   25 2    
    42   24   39 1    
    43   25   26 1    
    44   25   40 1    
@<TRIPOS>SUBSTRUCTURE
     1 UNK         1 GROUP             0       ****    0 ROOT    
