@<TRIPOS>MOLECULE
ZINC08724004_816
49   51    1
SMALL
USER_CHARGES


@<TRIPOS>ATOM
      1 C1          4.0885   53.8532   21.0206 C.3       1 UNK         0.0000 
      2 C2          4.1768   54.0039   22.5282 C.ar      1 UNK         0.0000 
      3 C3          3.0178   54.0483   23.3017 C.ar      1 UNK         0.0000 
      4 C4          3.1041   54.1852   24.6859 C.ar      1 UNK         0.0000 
      5 C5          4.3492   54.2820   25.3245 C.ar      1 UNK         0.0000 
      6 C6          5.5182   54.2472   24.5392 C.ar      1 UNK         0.0000 
      7 C7          5.4218   54.0966   23.1508 C.ar      1 UNK         0.0000 
      8 C8          6.9052   54.3517   25.1616 C.3       1 UNK         0.0000 
      9 N9          4.4564   54.4908   26.7135 N.pl3     1 UNK         0.0000 
     10 C10         3.5607   54.2311   27.7238 C.2       1 UNK         0.0000 
     11 N11         3.5568   54.8964   28.8466 N.2       1 UNK         0.0000 
     12 N12         2.5117   54.5343   29.6821 N.2       1 UNK         0.0000 
     13 C13         1.7776   53.5544   29.2193 C.2       1 UNK         0.0000 
     14 S14         2.3390   52.9898   27.6634 S.3       1 UNK         0.0000 
     15 S15         0.3483   52.9552   30.0797 S.3       1 UNK         0.0000 
     16 C16        -0.1537   51.4933   29.1043 C.3       1 UNK         0.0000 
     17 C17        -0.8968   51.7917   27.7983 C.2       1 UNK         0.0000 
     18 O18        -0.8098   52.8967   27.2800 O.2       1 UNK         0.0000 
     19 N19        -1.6122   50.7969   27.2517 N.am      1 UNK         0.0000 
     20 C20        -2.2289   50.8183   25.9903 C.ar      1 UNK         0.0000 
     21 C21        -1.5086   51.2152   24.8544 C.ar      1 UNK         0.0000 
     22 C22        -2.1048   51.1824   23.5920 C.ar      1 UNK         0.0000 
     23 C23        -3.4338   50.7727   23.4629 C.ar      1 UNK         0.0000 
     24 C24        -4.1562   50.3830   24.5906 C.ar      1 UNK         0.0000 
     25 C25        -3.5596   50.3940   25.8532 C.ar      1 UNK         0.0000 
     26 Cl26       -4.4950   49.8853   27.2189 Cl        1 UNK         0.0000 
     27 S27        -1.1519   51.6338   22.1478 S.o2      1 UNK         0.0000 
     28 O28        -0.0558   52.4960   22.5993 O.2       1 UNK         0.0000 
     29 O29        -2.0952   52.0961   21.1231 O.2       1 UNK         0.0000 
     30 C30        -0.4178   49.9989   21.5869 C.3       1 UNK         0.0000 
     31 H31         3.1061   53.4972   20.7063 H         1 UNK         0.0000 
     32 H32         4.2947   54.8053   20.5303 H         1 UNK         0.0000 
     33 H33         4.8196   53.1255   20.6654 H         1 UNK         0.0000 
     34 H34         2.0476   53.9907   22.8298 H         1 UNK         0.0000 
     35 H35         2.1847   54.2543   25.2454 H         1 UNK         0.0000 
     36 H36         6.3180   54.0649   22.5476 H         1 UNK         0.0000 
     37 H37         7.6869   54.0966   24.4459 H         1 UNK         0.0000 
     38 H38         7.0799   55.3612   25.5336 H         1 UNK         0.0000 
     39 H39         7.0007   53.6588   25.9991 H         1 UNK         0.0000 
     40 H40         5.3792   54.7987   26.9791 H         1 UNK         0.0000 
     41 H41        -0.8090   50.8971   29.7404 H         1 UNK         0.0000 
     42 H42         0.7281   50.8960   28.8873 H         1 UNK         0.0000 
     43 H43        -1.6956   49.9140   27.7649 H         1 UNK         0.0000 
     44 H44        -0.4777   51.5268   24.9522 H         1 UNK         0.0000 
     45 H45        -3.9063   50.7468   22.4913 H         1 UNK         0.0000 
     46 H46        -5.1818   50.0617   24.4839 H         1 UNK         0.0000 
     47 H47         0.1863   50.1799   20.6985 H         1 UNK         0.0000 
     48 H48        -1.2281   49.3094   21.3584 H         1 UNK         0.0000 
     49 H49         0.2054   49.6043   22.3877 H         1 UNK         0.0000 
@<TRIPOS>BOND
     1    1    2 1    
     2    1   31 1    
     3    1   32 1    
     4    1   33 1    
     5    2    7 ar   
     6    2    3 ar   
     7    3    4 ar   
     8    3   34 1    
     9    4    5 ar   
    10    4   35 1    
    11    5    6 ar   
    12    5    9 1    
    13    6    7 ar   
    14    6    8 1    
    15    7   36 1    
    16    8   37 1    
    17    8   38 1    
    18    8   39 1    
    19    9   10 1    
    20    9   40 1    
    21   10   14 1    
    22   10   11 2    
    23   11   12 1    
    24   12   13 2    
    25   13   14 1    
    26   13   15 1    
    27   15   16 1    
    28   16   17 1    
    29   16   41 1    
    30   16   42 1    
    31   17   18 2    
    32   17   19 am   BACKBONE|DICT|INTERRES
    33   19   20 1    
    34   19   43 1    
    35   20   25 ar   
    36   20   21 ar   
    37   21   22 ar   
    38   21   44 1    
    39   22   23 ar   
    40   22   27 1    
    41   23   24 ar   
    42   23   45 1    
    43   24   25 ar   
    44   24   46 1    
    45   25   26 1    
    46   27   28 2    
    47   27   29 2    
    48   27   30 1    
    49   30   47 1    
    50   30   48 1    
    51   30   49 1    
@<TRIPOS>SUBSTRUCTURE
     1 UNK         1 GROUP             0       ****    0 ROOT    
