ZINC44460416_1904
                    3D
 Schrodinger Suite 2024-2.
 59 62  0  0  1  0            999 V2000
   -2.7112   49.3178   21.3649 C   0  0  0  0  0  0
   -2.1992   50.6735   21.8329 C   0  0  0  0  0  0
   -2.4954   51.6968   21.2159 O   0  0  0  0  0  0
   -1.3225   50.6885   23.1099 C   0  0  2  0  0  0
   -1.4830   49.7206   23.5867 H   0  0  0  0  0  0
   -1.7702   51.8337   24.0711 C   0  0  0  0  0  0
   -0.6536   52.8969   24.0602 C   0  0  0  0  0  0
    0.2563   52.4966   22.8914 C   0  0  2  0  0  0
   -0.3004   52.7843   21.9977 H   0  0  0  0  0  0
    0.2074   50.9400   22.8580 C   0  0  2  0  0  0
    0.8703   50.3929   21.5344 C   0  0  0  0  0  0
    1.8528   51.3823   20.8308 C   0  0  2  0  0  0
    2.5474   50.7846   20.2436 H   0  0  0  0  0  0
    2.6047   52.2901   21.8620 C   0  0  2  0  0  0
    2.9145   51.5756   22.6153 H   0  0  0  0  0  0
    1.6336   53.2010   22.6651 C   0  0  2  0  0  0
    1.4416   54.0970   22.0801 H   0  0  0  0  0  0
    2.3564   53.6966   23.9263 C   0  0  0  0  0  0
    3.5913   54.4956   23.4865 C   0  0  0  0  0  0
    4.6421   53.6411   22.7472 C   0  0  1  0  0  0
    4.9293   52.8967   23.4710 H   0  0  0  0  0  0
    4.0147   52.9239   21.4672 C   0  0  2  0  0  0
    4.0601   53.9437   20.2711 C   0  0  1  0  0  0
    3.5043   54.8255   20.5601 H   0  0  0  0  0  0
    5.4742   54.4935   19.9638 C   0  0  0  0  0  0
    6.0837   55.2290   21.1668 C   0  0  1  0  0  0
    5.4944   56.1356   21.2816 H   0  0  0  0  0  0
    5.9520   54.4490   22.4920 C   0  0  0  0  0  0
    7.4143   55.6455   20.9392 O   0  0  0  0  0  0
    3.5117   53.4311   19.0681 O   0  0  0  0  0  0
    4.8788   51.7065   21.0859 C   0  0  0  0  0  0
    1.1781   52.1859   19.8826 O   0  0  0  0  0  0
    0.9415   50.2860   24.0711 C   0  0  0  0  0  0
   -1.8781   48.6387   21.1852 H   0  0  0  0  0  0
   -3.2721   49.4260   20.4365 H   0  0  0  0  0  0
   -3.3738   48.8854   22.1143 H   0  0  0  0  0  0
   -2.7298   52.2823   23.8047 H   0  0  0  0  0  0
   -1.8978   51.4419   25.0816 H   0  0  0  0  0  0
   -1.0132   53.9219   23.9758 H   0  0  0  0  0  0
   -0.1059   52.8417   25.0015 H   0  0  0  0  0  0
    1.3358   49.4249   21.7257 H   0  0  0  0  0  0
    0.1101   50.2085   20.7780 H   0  0  0  0  0  0
    1.6929   54.3460   24.4982 H   0  0  0  0  0  0
    2.6040   52.8753   24.6005 H   0  0  0  0  0  0
    4.0401   54.9591   24.3657 H   0  0  0  0  0  0
    3.2920   55.2968   22.8279 H   0  0  0  0  0  0
    5.4459   55.1589   19.0991 H   0  0  0  0  0  0
    6.1317   53.6738   19.6784 H   0  0  0  0  0  0
    6.2084   55.0713   23.3509 H   0  0  0  0  0  0
    6.7393   53.6970   22.4828 H   0  0  0  0  0  0
    7.8623   55.7229   21.7865 H   0  0  0  0  0  0
    4.0799   52.7206   18.7486 H   0  0  0  0  0  0
    5.9044   51.9930   21.0429 H   0  0  0  0  0  0
    4.8228   50.8984   21.8083 H   0  0  0  0  0  0
    4.6419   51.2959   20.1053 H   0  0  0  0  0  0
    1.8296   52.7992   19.5087 H   0  0  0  0  0  0
    2.0172   50.4241   24.0654 H   0  0  0  0  0  0
    0.5886   50.6553   25.0336 H   0  0  0  0  0  0
    0.7816   49.2068   24.0831 H   0  0  0  0  0  0
  1  2  1  0  0  0
  1 34  1  0  0  0
  1 35  1  0  0  0
  1 36  1  0  0  0
  2  3  2  0  0  0
  2  4  1  0  0  0
  4  5  1  0  0  0
  4 10  1  0  0  0
  4  6  1  0  0  0
  6  7  1  0  0  0
  6 37  1  0  0  0
  6 38  1  0  0  0
  7  8  1  0  0  0
  7 39  1  0  0  0
  7 40  1  0  0  0
  8  9  1  0  0  0
  8 16  1  0  0  0
  8 10  1  0  0  0
 10 11  1  0  0  0
 10 33  1  0  0  0
 11 12  1  0  0  0
 11 41  1  0  0  0
 11 42  1  0  0  0
 12 13  1  0  0  0
 12 14  1  0  0  0
 12 32  1  0  0  0
 14 15  1  0  0  0
 14 22  1  0  0  0
 14 16  1  0  0  0
 16 17  1  0  0  0
 16 18  1  0  0  0
 18 19  1  0  0  0
 18 43  1  0  0  0
 18 44  1  0  0  0
 19 20  1  0  0  0
 19 45  1  0  0  0
 19 46  1  0  0  0
 20 21  1  0  0  0
 20 28  1  0  0  0
 20 22  1  0  0  0
 22 23  1  0  0  0
 22 31  1  0  0  0
 23 24  1  0  0  0
 23 25  1  0  0  0
 23 30  1  0  0  0
 25 26  1  0  0  0
 25 47  1  0  0  0
 25 48  1  0  0  0
 26 27  1  0  0  0
 26 28  1  0  0  0
 26 29  1  0  0  0
 28 49  1  0  0  0
 28 50  1  0  0  0
 29 51  1  0  0  0
 30 52  1  0  0  0
 31 53  1  0  0  0
 31 54  1  0  0  0
 31 55  1  0  0  0
 32 56  1  0  0  0
 33 57  1  0  0  0
 33 58  1  0  0  0
 33 59  1  0  0  0
M  END
> <i_i_glide_confnum>
1

> <i_i_glide_lignum>
1905

> <i_i_glide_posenum>
354

> <i_i_glide_rotatable_bonds>
4

> <i_m_Source_File_Index>
2893

> <b_m_subgroup_collapsed>
0

> <r_i_docking_score>
-4.50666

> <r_i_glide_ecoul>
-3.72872

> <r_i_glide_eff_state_penalty>
0

> <r_i_glide_einternal>
0.156048

> <r_i_glide_emodel>
-33.8558

> <r_i_glide_energy>
-30.4189

> <r_i_glide_erotb>
0

> <r_i_glide_esite>
-0.000285034

> <r_i_glide_evdw>
-26.6902

> <r_i_glide_gscore>
-4.50666

> <r_i_glide_hbond>
-0.0078814

> <r_i_glide_ligand_efficiency>
-0.180266

> <r_i_glide_ligand_efficiency_ln>
-1.06821

> <r_i_glide_ligand_efficiency_sa>
-0.527102

> <r_i_glide_lipo>
-1.5853

> <r_i_glide_metal>
0

> <r_i_glide_rewards>
-1.01937

> <s_i_glide_gridfile>
wee1_glide-grid

> <s_m_Source_File>
wee1_decoys_glide_SP.sdf

> <s_m_Source_Path>
/Users/zhangxujun/Desktop

> <s_m_entry_id>
3168

> <s_m_entry_name>
wee1_decoys_glide_SP.2893

> <s_m_subgroup_title>
wee1_decoys_glide_SP

> <s_m_subgroupid>
wee1_decoys_glide_SP


$$$$
