@<TRIPOS>MOLECULE
ZINC09505412_2947
62   66    1
SMALL
USER_CHARGES


@<TRIPOS>ATOM
      1 C1          3.1376   53.2934   27.3097 C.ar      1 UNK         0.0000 
      2 C2          1.8392   53.5410   27.7414 C.ar      1 UNK         0.0000 
      3 C3          1.6288   54.2825   28.8994 C.ar      1 UNK         0.0000 
      4 C4          2.7053   54.7960   29.6184 C.ar      1 UNK         0.0000 
      5 C5          4.0077   54.5063   29.2108 C.ar      1 UNK         0.0000 
      6 C6          4.2274   53.7603   28.0508 C.ar      1 UNK         0.0000 
      7 C7          5.6495   53.4492   27.5968 C.3       1 UNK         0.0000 
      8 S8          6.5022   54.8958   26.8891 S.3       1 UNK         0.0000 
      9 C9          5.4417   55.3054   25.4698 C.3       1 UNK         0.0000 
     10 C10         5.6674   54.4212   24.2130 C.3       1 UNK         0.0000 
     11 H11         6.0497   53.4472   24.5153 H         1 UNK         0.0000 
     12 C12         4.3143   54.0965   23.4873 C.2       1 UNK         0.0000 
     13 O13         3.2230   53.9751   24.0410 O.2       1 UNK         0.0000 
     14 N14         4.4356   53.9822   22.1553 N.am      1 UNK         0.0000 
     15 C15         5.4496   54.5263   21.3750 C.ar      1 UNK         0.0000 
     16 C16         5.3104   54.5562   19.9881 C.ar      1 UNK         0.0000 
     17 C17         6.2763   55.1845   19.1846 C.ar      1 UNK         0.0000 
     18 C18         7.4153   55.7271   19.8026 C.ar      1 UNK         0.0000 
     19 C19         7.5613   55.6965   21.1892 C.ar      1 UNK         0.0000 
     20 C20         6.5773   55.0998   21.9737 C.ar      1 UNK         0.0000 
     21 N21         6.7041   55.0702   23.3726 N.pl3     1 UNK         0.0000 
     22 C22         6.1562   55.2140   17.6719 C.2       1 UNK         0.0000 
     23 O23         7.1954   55.1242   17.0114 O.2       1 UNK         0.0000 
     24 N24         4.9278   55.3076   17.0831 N.am      1 UNK         0.0000 
     25 C25         3.8241   56.0664   17.7078 C.3       1 UNK         0.0000 
     26 C26         2.4796   55.4578   17.2468 C.3       1 UNK         0.0000 
     27 N27         2.3284   55.3798   15.7878 N.pl3     1 UNK         0.0000 
     28 C28         3.4496   54.6101   15.2318 C.3       1 UNK         0.0000 
     29 C29         4.8470   55.1542   15.6158 C.3       1 UNK         0.0000 
     30 C30         1.7390   56.4069   15.0496 C.ar      1 UNK         0.0000 
     31 C31         1.3493   56.1755   13.7232 C.ar      1 UNK         0.0000 
     32 C32         0.7370   57.1781   12.9722 C.ar      1 UNK         0.0000 
     33 C33         0.5113   58.4278   13.5412 C.ar      1 UNK         0.0000 
     34 C34         0.8929   58.6815   14.8542 C.ar      1 UNK         0.0000 
     35 C35         1.4991   57.6758   15.6022 C.ar      1 UNK         0.0000 
     36 F36        -0.0841   59.3967   12.8130 F         1 UNK         0.0000 
     37 F37         0.3699   54.4976   29.3354 F         1 UNK         0.0000 
     38 H38         3.2914   52.7096   26.4139 H         1 UNK         0.0000 
     39 H39         0.9979   53.1546   27.1841 H         1 UNK         0.0000 
     40 H40         2.5194   55.4185   30.4851 H         1 UNK         0.0000 
     41 H41         4.8469   54.8926   29.7724 H         1 UNK         0.0000 
     42 H42         5.6416   52.6451   26.8635 H         1 UNK         0.0000 
     43 H43         6.2294   53.0846   28.4450 H         1 UNK         0.0000 
     44 H44         5.6146   56.3566   25.2294 H         1 UNK         0.0000 
     45 H45         4.4118   55.2885   25.8232 H         1 UNK         0.0000 
     46 H46         3.5877   53.6823   21.6959 H         1 UNK         0.0000 
     47 H47         4.4489   54.0835   19.5360 H         1 UNK         0.0000 
     48 H48         8.1978   56.1782   19.2077 H         1 UNK         0.0000 
     49 H49         8.4505   56.1031   21.6482 H         1 UNK         0.0000 
     50 H50         7.5889   55.2861   23.8170 H         1 UNK         0.0000 
     51 H51         3.8479   57.0973   17.3516 H         1 UNK         0.0000 
     52 H52         3.8360   56.0762   18.7946 H         1 UNK         0.0000 
     53 H53         1.6326   55.9900   17.6813 H         1 UNK         0.0000 
     54 H54         2.4122   54.4363   17.6267 H         1 UNK         0.0000 
     55 H55         3.3543   53.5981   15.6330 H         1 UNK         0.0000 
     56 H56         3.3804   54.5136   14.1494 H         1 UNK         0.0000 
     57 H57         5.5893   54.4508   15.2341 H         1 UNK         0.0000 
     58 H58         4.9598   56.1259   15.1312 H         1 UNK         0.0000 
     59 H59         1.5018   55.2077   13.2690 H         1 UNK         0.0000 
     60 H60         0.4350   56.9881   11.9534 H         1 UNK         0.0000 
     61 H61         0.7247   59.6531   15.2927 H         1 UNK         0.0000 
     62 H62         1.7851   57.9027   16.6165 H         1 UNK         0.0000 
@<TRIPOS>BOND
     1    1    6 ar   
     2    1    2 ar   
     3    1   38 1    
     4    2    3 ar   
     5    2   39 1    
     6    3    4 ar   
     7    3   37 1    
     8    4    5 ar   
     9    4   40 1    
    10    5    6 ar   
    11    5   41 1    
    12    6    7 1    
    13    7    8 1    
    14    7   42 1    
    15    7   43 1    
    16    8    9 1    
    17    9   10 1    
    18    9   44 1    
    19    9   45 1    
    20   10   11 1    
    21   10   21 1    
    22   10   12 1    
    23   12   13 2    
    24   12   14 am   BACKBONE|DICT|INTERRES
    25   14   15 1    
    26   14   46 1    
    27   15   20 ar   
    28   15   16 ar   
    29   16   17 ar   
    30   16   47 1    
    31   17   18 ar   
    32   17   22 1    
    33   18   19 ar   
    34   18   48 1    
    35   19   20 ar   
    36   19   49 1    
    37   20   21 1    
    38   21   50 1    
    39   22   23 2    
    40   22   24 am   BACKBONE|DICT|INTERRES
    41   24   29 1    
    42   24   25 1    
    43   25   26 1    
    44   25   51 1    
    45   25   52 1    
    46   26   27 1    
    47   26   53 1    
    48   26   54 1    
    49   27   28 1    
    50   27   30 1    
    51   28   29 1    
    52   28   55 1    
    53   28   56 1    
    54   29   57 1    
    55   29   58 1    
    56   30   35 ar   
    57   30   31 ar   
    58   31   32 ar   
    59   31   59 1    
    60   32   33 ar   
    61   32   60 1    
    62   33   34 ar   
    63   33   36 1    
    64   34   35 ar   
    65   34   61 1    
    66   35   62 1    
@<TRIPOS>SUBSTRUCTURE
     1 UNK         1 GROUP             0       ****    0 ROOT    
