ZINC35693139_1574
                    3D
 Schrodinger Suite 2024-2.
 39 40  0  0  1  0            999 V2000
    2.5013   55.4942   29.3523 C   0  0  0  0  0  0
    2.5717   54.6824   28.0485 C   0  0  1  0  0  0
    2.0996   55.2890   27.2820 H   0  0  0  0  0  0
    4.0264   54.4316   27.6195 C   0  0  0  0  0  0
    4.4931   54.8967   26.3800 C   0  0  0  0  0  0
    5.8357   54.7209   26.0446 C   0  0  0  0  0  0
    6.7296   54.1420   26.8817 N   0  0  0  0  0  0
    6.2773   53.7033   28.0823 C   0  0  0  0  0  0
    4.9425   53.8110   28.4808 C   0  0  0  0  0  0
    1.7975   53.4442   28.1750 N   0  0  0  0  0  0
    1.3042   52.7127   27.0686 C   0  0  0  0  0  0
    1.6931   53.0062   25.7523 C   0  0  0  0  0  0
    1.2302   52.2604   24.6742 C   0  0  0  0  0  0
    0.3511   51.2022   24.8874 C   0  0  0  0  0  0
   -0.1033   50.9346   26.1799 C   0  0  0  0  0  0
    0.3738   51.6672   27.2689 C   0  0  0  0  0  0
   -0.1092   51.3038   28.5323 N   0  0  0  0  0  0
   -0.1492   50.1714   23.5140 S   0  0  0  0  0  0
   -1.6118   50.2465   23.4301 O   0  0  0  0  0  0
    0.6889   50.5355   22.3667 O   0  0  0  0  0  0
    0.2931   48.5329   23.9816 N   0  0  0  0  0  0
   -0.5117   47.8325   24.9997 C   0  0  0  0  0  0
    3.0618   56.4259   29.2789 H   0  0  0  0  0  0
    1.4716   55.7580   29.5985 H   0  0  0  0  0  0
    2.9070   54.9316   30.1898 H   0  0  0  0  0  0
    3.8382   55.4071   25.6901 H   0  0  0  0  0  0
    6.2186   55.0665   25.0951 H   0  0  0  0  0  0
    7.0235   53.2946   28.7453 H   0  0  0  0  0  0
    4.6354   53.4529   29.4515 H   0  0  0  0  0  0
    1.1729   53.4269   28.9668 H   0  0  0  0  0  0
    2.3667   53.8098   25.5296 H   0  0  0  0  0  0
    1.5775   52.4982   23.6784 H   0  0  0  0  0  0
   -0.8177   50.1422   26.3469 H   0  0  0  0  0  0
   -0.6830   50.4670   28.5960 H   0  0  0  0  0  0
    0.3301   51.6698   29.3627 H   0  0  0  0  0  0
    1.3033   48.3466   24.0101 H   0  0  0  0  0  0
   -0.4050   46.7560   24.8812 H   0  0  0  0  0  0
   -0.1473   48.0965   25.9930 H   0  0  0  0  0  0
   -1.5630   48.1139   24.9254 H   0  0  0  0  0  0
  1  2  1  0  0  0
  1 23  1  0  0  0
  1 24  1  0  0  0
  1 25  1  0  0  0
  2  3  1  0  0  0
  2  4  1  0  0  0
  2 10  1  0  0  0
  4  9  2  0  0  0
  4  5  1  0  0  0
  5  6  2  0  0  0
  5 26  1  0  0  0
  6  7  1  0  0  0
  6 27  1  0  0  0
  7  8  2  0  0  0
  8  9  1  0  0  0
  8 28  1  0  0  0
  9 29  1  0  0  0
 10 11  1  0  0  0
 10 30  1  0  0  0
 11 16  2  0  0  0
 11 12  1  0  0  0
 12 13  2  0  0  0
 12 31  1  0  0  0
 13 14  1  0  0  0
 13 32  1  0  0  0
 14 15  2  0  0  0
 14 18  1  0  0  0
 15 16  1  0  0  0
 15 33  1  0  0  0
 16 17  1  0  0  0
 17 34  1  0  0  0
 17 35  1  0  0  0
 18 19  2  0  0  0
 18 20  2  0  0  0
 18 21  1  0  0  0
 21 22  1  0  0  0
 21 36  1  0  0  0
 22 37  1  0  0  0
 22 38  1  0  0  0
 22 39  1  0  0  0
M  END
> <i_i_glide_confnum>
10

> <i_i_glide_lignum>
1575

> <i_i_glide_posenum>
169

> <i_i_glide_rotatable_bonds>
5

> <i_m_Source_File_Index>
5948

> <b_m_subgroup_collapsed>
0

> <r_i_docking_score>
-4.69209

> <r_i_glide_ecoul>
-2.94018

> <r_i_glide_eff_state_penalty>
0

> <r_i_glide_einternal>
5.11209

> <r_i_glide_emodel>
-40.5431

> <r_i_glide_energy>
-34.6442

> <r_i_glide_erotb>
0.787087

> <r_i_glide_esite>
-0.0847902

> <r_i_glide_evdw>
-31.704

> <r_i_glide_gscore>
-4.69209

> <r_i_glide_hbond>
-0.392478

> <r_i_glide_ligand_efficiency>
-0.223433

> <r_i_glide_ligand_efficiency_ln>
-1.16011

> <r_i_glide_ligand_efficiency_sa>
-0.616434

> <r_i_glide_lipo>
-2.46663

> <r_i_glide_metal>
0

> <r_i_glide_rewards>
-0.509047

> <s_i_glide_gridfile>
wee1_glide-grid

> <s_m_Source_File>
wee1_decoys_glide_SP.sdf

> <s_m_Source_Path>
/Users/zhangxujun/Desktop

> <s_m_entry_id>
6223

> <s_m_entry_name>
wee1_decoys_glide_SP.5948

> <s_m_subgroup_title>
wee1_decoys_glide_SP

> <s_m_subgroupid>
wee1_decoys_glide_SP


$$$$
