@<TRIPOS>MOLECULE
ZINC24639400_435
52   55    1
SMALL
USER_CHARGES


@<TRIPOS>ATOM
      1 C1          7.1105   55.6685   20.8551 C.ar      1 UNK         0.0000 
      2 C2          6.2015   55.2640   19.8826 C.ar      1 UNK         0.0000 
      3 C3          5.1118   54.4735   20.2383 C.ar      1 UNK         0.0000 
      4 C4          4.9145   54.0844   21.5679 C.ar      1 UNK         0.0000 
      5 C5          5.8265   54.4966   22.5711 C.ar      1 UNK         0.0000 
      6 C6          6.9224   55.2912   22.1827 C.ar      1 UNK         0.0000 
      7 N7          5.6157   54.1016   23.9158 N.am      1 UNK         0.0000 
      8 C8          5.9323   54.7849   25.0431 C.2       1 UNK         0.0000 
      9 O9          6.7554   55.6990   25.0885 O.2       1 UNK         0.0000 
     10 C10         5.2368   54.3647   26.3207 C.ar      1 UNK         0.0000 
     11 C11         5.8123   54.6979   27.5555 C.ar      1 UNK         0.0000 
     12 C12         5.1671   54.3857   28.7462 C.ar      1 UNK         0.0000 
     13 C13         3.9504   53.7123   28.7195 C.ar      1 UNK         0.0000 
     14 C14         3.3641   53.3679   27.5072 C.ar      1 UNK         0.0000 
     15 C15         4.0022   53.6969   26.3138 C.ar      1 UNK         0.0000 
     16 Cl16        3.1686   53.2956   30.1988 Cl        1 UNK         0.0000 
     17 N17         3.7992   53.2592   21.7896 N.am      1 UNK         0.0000 
     18 C18         2.7317   53.5675   22.5527 C.2       1 UNK         0.0000 
     19 O19         2.7196   54.4967   23.3599 O.2       1 UNK         0.0000 
     20 C20         1.5092   52.6964   22.3888 C.ar      1 UNK         0.0000 
     21 C21         1.2878   51.9347   21.2282 C.ar      1 UNK         0.0000 
     22 C22         0.1183   51.1888   21.0797 C.ar      1 UNK         0.0000 
     23 C23        -0.8485   51.1984   22.0827 C.ar      1 UNK         0.0000 
     24 C24        -0.6412   51.9479   23.2417 C.ar      1 UNK         0.0000 
     25 C25         0.5333   52.6865   23.3946 C.ar      1 UNK         0.0000 
     26 S26        -1.8867   51.9789   24.5183 S.o2      1 UNK         0.0000 
     27 O27        -3.0579   52.6369   23.9308 O.2       1 UNK         0.0000 
     28 O28        -1.2691   52.4966   25.7454 O.2       1 UNK         0.0000 
     29 N29        -2.3109   50.2986   24.7913 N.pl3     1 UNK         0.0000 
     30 C30        -1.4806   49.4658   25.6768 C.3       1 UNK         0.0000 
     31 C31        -1.3180   48.0192   25.2745 C.3       1 UNK         0.0000 
     32 C32        -0.1610   48.9691   25.1157 C.3       1 UNK         0.0000 
     33 H33         7.9726   56.2576   20.5787 H         1 UNK         0.0000 
     34 H34         6.3462   55.5539   18.8530 H         1 UNK         0.0000 
     35 H35         4.4189   54.1628   19.4682 H         1 UNK         0.0000 
     36 H36         7.6596   55.6238   22.8921 H         1 UNK         0.0000 
     37 H37         4.8824   53.4203   24.0314 H         1 UNK         0.0000 
     38 H38         6.7534   55.2297   27.6088 H         1 UNK         0.0000 
     39 H39         5.6151   54.6784   29.6815 H         1 UNK         0.0000 
     40 H40         2.4162   52.8493   27.4854 H         1 UNK         0.0000 
     41 H41         3.5160   53.4155   25.3946 H         1 UNK         0.0000 
     42 H42         3.7111   52.4658   21.1740 H         1 UNK         0.0000 
     43 H43         2.0004   51.9249   20.4154 H         1 UNK         0.0000 
     44 H44        -0.0387   50.6110   20.1803 H         1 UNK         0.0000 
     45 H45        -1.7549   50.6231   21.9604 H         1 UNK         0.0000 
     46 H46         0.6699   53.2732   24.2927 H         1 UNK         0.0000 
     47 H47        -3.3078   50.0635   24.7240 H         1 UNK         0.0000 
     48 H48        -1.5412   49.7033   26.7402 H         1 UNK         0.0000 
     49 H49        -1.8369   47.6562   24.3879 H         1 UNK         0.0000 
     50 H50        -1.2964   47.2835   26.0802 H         1 UNK         0.0000 
     51 H51         0.6875   48.8764   25.7968 H         1 UNK         0.0000 
     52 H52         0.1440   49.2715   24.1140 H         1 UNK         0.0000 
@<TRIPOS>BOND
     1    1    6 ar   
     2    1    2 ar   
     3    1   33 1    
     4    2    3 ar   
     5    2   34 1    
     6    3    4 ar   
     7    3   35 1    
     8    4    5 ar   
     9    4   17 1    
    10    5    6 ar   
    11    5    7 1    
    12    6   36 1    
    13    7    8 am   BACKBONE|DICT|INTERRES
    14    7   37 1    
    15    8    9 2    
    16    8   10 1    
    17   10   15 ar   
    18   10   11 ar   
    19   11   12 ar   
    20   11   38 1    
    21   12   13 ar   
    22   12   39 1    
    23   13   14 ar   
    24   13   16 1    
    25   14   15 ar   
    26   14   40 1    
    27   15   41 1    
    28   17   18 am   BACKBONE|DICT|INTERRES
    29   17   42 1    
    30   18   19 2    
    31   18   20 1    
    32   20   25 ar   
    33   20   21 ar   
    34   21   22 ar   
    35   21   43 1    
    36   22   23 ar   
    37   22   44 1    
    38   23   24 ar   
    39   23   45 1    
    40   24   25 ar   
    41   24   26 1    
    42   25   46 1    
    43   26   27 2    
    44   26   28 2    
    45   26   29 1    
    46   29   30 1    
    47   29   47 1    
    48   30   32 1    
    49   30   31 1    
    50   30   48 1    
    51   31   32 1    
    52   31   49 1    
    53   31   50 1    
    54   32   51 1    
    55   32   52 1    
@<TRIPOS>SUBSTRUCTURE
     1 UNK         1 GROUP             0       ****    0 ROOT    
