@<TRIPOS>MOLECULE
ZINC11332716_3295
44   47    1
SMALL
USER_CHARGES


@<TRIPOS>ATOM
      1 C1         -0.9672   51.3437   27.9086 C.ar      1 UNK         0.0000 
      2 C2          0.1731   51.8987   28.4910 C.ar      1 UNK         0.0000 
      3 C3          1.2155   52.3669   27.6859 C.ar      1 UNK         0.0000 
      4 C4          1.1002   52.2746   26.2970 C.ar      1 UNK         0.0000 
      5 C5         -0.0513   51.7529   25.7034 C.ar      1 UNK         0.0000 
      6 C6         -1.0870   51.2781   26.5207 C.ar      1 UNK         0.0000 
      7 N7         -0.0696   51.6825   24.3006 N.am      1 UNK         0.0000 
      8 C8         -1.1379   51.7418   23.4746 C.2       1 UNK         0.0000 
      9 O9         -2.2998   51.9170   23.8549 O.2       1 UNK         0.0000 
     10 C10        -0.8449   51.5420   21.9745 C.3       1 UNK         0.0000 
     11 F11         0.3312   52.0860   21.6496 F         1 UNK         0.0000 
     12 F12        -1.8060   52.0950   21.2304 F         1 UNK         0.0000 
     13 F13        -0.8033   50.2367   21.7104 F         1 UNK         0.0000 
     14 C14         2.4652   52.8995   28.2537 C.2       1 UNK         0.0000 
     15 C15         2.6477   54.0139   29.0006 C.2       1 UNK         0.0000 
     16 C16         1.5051   54.9699   29.3927 C.2       1 UNK         0.0000 
     17 O17         0.6746   54.4970   30.2005 O.co2     1 UNK         0.0000 
     18 S18         4.2685   54.4951   29.5788 S.3       1 UNK         0.0000 
     19 C19         5.2464   54.3167   28.1243 C.2       1 UNK         0.0000 
     20 N20         6.5327   54.0928   28.0499 N.2       1 UNK         0.0000 
     21 N21         6.8464   54.1375   26.6966 N.2       1 UNK         0.0000 
     22 C22         5.7214   54.3608   26.0614 C.2       1 UNK         0.0000 
     23 O23         4.6679   54.4934   26.9080 O.3       1 UNK         0.0000 
     24 C24         5.5031   54.4518   24.5899 C.ar      1 UNK         0.0000 
     25 C25         4.2567   54.0955   24.0368 C.ar      1 UNK         0.0000 
     26 C26         4.0515   54.0953   22.6491 C.ar      1 UNK         0.0000 
     27 C27         5.1114   54.4965   21.8453 C.ar      1 UNK         0.0000 
     28 C28         6.3061   54.8964   22.3739 C.ar      1 UNK         0.0000 
     29 C29         6.5469   54.8663   23.7433 C.ar      1 UNK         0.0000 
     30 O30         7.1331   55.2974   21.3725 O.3       1 UNK         0.0000 
     31 C31         6.3481   55.3001   20.2082 C.3       1 UNK         0.0000 
     32 O32         5.1623   54.6034   20.4917 O.3       1 UNK         0.0000 
     33 H33        -1.7564   50.9527   28.5344 H         1 UNK         0.0000 
     34 H34         0.2521   51.9447   29.5677 H         1 UNK         0.0000 
     35 H35         1.9158   52.6187   25.6806 H         1 UNK         0.0000 
     36 H36        -1.9731   50.8274   26.1002 H         1 UNK         0.0000 
     37 H37         0.8373   51.6346   23.8598 H         1 UNK         0.0000 
     38 H38         3.3364   52.2998   28.0327 H         1 UNK         0.0000 
     39 H39         3.4509   53.7925   24.6846 H         1 UNK         0.0000 
     40 H40         3.1009   53.8064   22.2259 H         1 UNK         0.0000 
     41 H41         7.5036   55.1633   24.1445 H         1 UNK         0.0000 
     42 H42         6.8815   54.8214   19.3857 H         1 UNK         0.0000 
     43 H43         6.1007   56.3292   19.9382 H         1 UNK         0.0000 
     44 O44         1.5846   56.1085   28.8815 O.co2     1 UNK         0.0000 
@<TRIPOS>BOND
     1    1    6 ar   
     2    1    2 ar   
     3    1   33 1    
     4    2    3 ar   
     5    2   34 1    
     6    3    4 ar   
     7    3   14 1    
     8    4    5 ar   
     9    4   35 1    
    10    5    6 ar   
    11    5    7 1    
    12    6   36 1    
    13    7    8 am   BACKBONE|DICT|INTERRES
    14    7   37 1    
    15    8    9 2    
    16    8   10 1    
    17   10   11 1    
    18   10   12 1    
    19   10   13 1    
    20   14   15 2    
    21   14   38 1    
    22   15   16 1    
    23   15   18 1    
    24   16   17 2    
    25   16   44 1    
    26   18   19 1    
    27   19   23 1    
    28   19   20 2    
    29   20   21 1    
    30   21   22 2    
    31   22   23 1    
    32   22   24 1    
    33   24   29 ar   
    34   24   25 ar   
    35   25   26 ar   
    36   25   39 1    
    37   26   27 ar   
    38   26   40 1    
    39   27   32 1    
    40   27   28 ar   
    41   28   29 ar   
    42   28   30 1    
    43   29   41 1    
    44   30   31 1    
    45   31   32 1    
    46   31   42 1    
    47   31   43 1    
@<TRIPOS>SUBSTRUCTURE
     1 UNK         1 GROUP             0       ****    0 ROOT    
