@<TRIPOS>MOLECULE
ZINC35729437_4950
55   58    1
SMALL
USER_CHARGES


@<TRIPOS>ATOM
      1 C1          2.8348   50.3407   20.6896 C.3       1 UNK         0.0000 
      2 C2          2.4219   50.9572   19.3484 C.3       1 UNK         0.0000 
      3 C3          2.2949   52.5032   19.3255 C.3       1 UNK         0.0000 
      4 H4          1.5668   52.7753   20.0908 H         1 UNK         0.0000 
      5 C5          1.6487   52.9189   17.9899 C.3       1 UNK         0.0000 
      6 C6          3.6144   53.3246   19.5593 C.3       1 UNK         0.0000 
      7 H7          3.4276   54.3754   19.3233 H         1 UNK         0.0000 
      8 C8          4.0376   53.2845   21.0557 C.2       1 UNK         0.0000 
      9 O9          5.0888   52.7267   21.3904 O.2       1 UNK         0.0000 
     10 N10         3.1785   53.8748   21.9176 N.am      1 UNK         0.0000 
     11 C11         3.3641   53.9400   23.2871 C.2       1 UNK         0.0000 
     12 N12         4.5017   54.1386   23.9144 N.2       1 UNK         0.0000 
     13 N13         4.3562   54.0976   25.2924 N.2       1 UNK         0.0000 
     14 C14         3.1274   53.8212   25.6764 C.2       1 UNK         0.0000 
     15 S15         2.0067   53.6890   24.3390 S.3       1 UNK         0.0000 
     16 C16         2.7254   53.5879   27.1048 C.ar      1 UNK         0.0000 
     17 C17         3.6738   53.7927   28.1335 C.ar      1 UNK         0.0000 
     18 C18         3.3673   53.5358   29.4753 C.ar      1 UNK         0.0000 
     19 C19         2.0852   53.0912   29.7651 C.ar      1 UNK         0.0000 
     20 C20         1.1517   52.8972   28.7883 C.ar      1 UNK         0.0000 
     21 C21         1.4401   53.1205   27.4445 C.ar      1 UNK         0.0000 
     22 O22         0.0054   52.4318   29.3524 O.3       1 UNK         0.0000 
     23 C23         0.1858   52.5715   30.7390 C.3       1 UNK         0.0000 
     24 O24         1.5581   52.7453   30.9687 O.3       1 UNK         0.0000 
     25 N25         4.6924   52.8968   18.6577 N.am      1 UNK         0.0000 
     26 C26         5.6999   53.6672   18.2256 C.2       1 UNK         0.0000 
     27 O27         5.7018   54.8989   18.2815 O.2       1 UNK         0.0000 
     28 N28         6.7018   52.9010   17.7593 N.am      1 UNK         0.0000 
     29 C29         7.9564   53.3252   17.2939 C.ar      1 UNK         0.0000 
     30 C30         8.4743   52.6552   16.1833 C.ar      1 UNK         0.0000 
     31 C31         9.7619   52.9411   15.7255 C.ar      1 UNK         0.0000 
     32 C32        10.5441   53.8882   16.3867 C.ar      1 UNK         0.0000 
     33 C33        10.0415   54.5459   17.5059 C.ar      1 UNK         0.0000 
     34 C34         8.7566   54.2686   17.9689 C.ar      1 UNK         0.0000 
     35 F35         8.3328   54.8951   19.0934 F         1 UNK         0.0000 
     36 F36        11.7913   54.1626   15.9435 F         1 UNK         0.0000 
     37 H37         2.5798   49.2815   20.7223 H         1 UNK         0.0000 
     38 H38         3.9108   50.4194   20.8371 H         1 UNK         0.0000 
     39 H39         2.3360   50.8261   21.5286 H         1 UNK         0.0000 
     40 H40         1.4588   50.5207   19.0840 H         1 UNK         0.0000 
     41 H41         3.1038   50.6233   18.5671 H         1 UNK         0.0000 
     42 H42         2.2841   52.6617   17.1429 H         1 UNK         0.0000 
     43 H43         0.6888   52.4241   17.8472 H         1 UNK         0.0000 
     44 H44         1.4689   53.9929   17.9568 H         1 UNK         0.0000 
     45 H45         2.3220   54.2556   21.5369 H         1 UNK         0.0000 
     46 H46         4.6701   54.1350   27.8942 H         1 UNK         0.0000 
     47 H47         4.1123   53.6749   30.2425 H         1 UNK         0.0000 
     48 H48         0.6902   52.9195   26.6932 H         1 UNK         0.0000 
     49 H49        -0.2010   51.7045   31.2817 H         1 UNK         0.0000 
     50 H50        -0.3518   53.4550   31.0900 H         1 UNK         0.0000 
     51 H51         4.7535   51.8931   18.4814 H         1 UNK         0.0000 
     52 H52         6.4970   51.9112   17.6780 H         1 UNK         0.0000 
     53 H53         7.8851   51.9035   15.6762 H         1 UNK         0.0000 
     54 H54        10.1592   52.4217   14.8668 H         1 UNK         0.0000 
     55 H55        10.6524   55.2605   18.0390 H         1 UNK         0.0000 
@<TRIPOS>BOND
     1    1    2 1    
     2    1   37 1    
     3    1   38 1    
     4    1   39 1    
     5    2    3 1    
     6    2   40 1    
     7    2   41 1    
     8    3    4 1    
     9    3    5 1    
    10    3    6 1    
    11    5   42 1    
    12    5   43 1    
    13    5   44 1    
    14    6    7 1    
    15    6    8 1    
    16    6   25 1    
    17    8    9 2    
    18    8   10 am   BACKBONE|DICT|INTERRES
    19   10   11 am   BACKBONE|DICT|INTERRES
    20   10   45 1    
    21   11   15 1    
    22   11   12 2    
    23   12   13 1    
    24   13   14 2    
    25   14   15 1    
    26   14   16 1    
    27   16   21 ar   
    28   16   17 ar   
    29   17   18 ar   
    30   17   46 1    
    31   18   19 ar   
    32   18   47 1    
    33   19   24 1    
    34   19   20 ar   
    35   20   21 ar   
    36   20   22 1    
    37   21   48 1    
    38   22   23 1    
    39   23   24 1    
    40   23   49 1    
    41   23   50 1    
    42   25   26 am   BACKBONE|DICT|INTERRES
    43   25   51 1    
    44   26   27 2    
    45   26   28 am   BACKBONE|DICT|INTERRES
    46   28   29 1    
    47   28   52 1    
    48   29   34 ar   
    49   29   30 ar   
    50   30   31 ar   
    51   30   53 1    
    52   31   32 ar   
    53   31   54 1    
    54   32   33 ar   
    55   32   36 1    
    56   33   34 ar   
    57   33   55 1    
    58   34   35 1    
@<TRIPOS>SUBSTRUCTURE
     1 UNK         1 GROUP             0       ****    0 ROOT    
