@<TRIPOS>MOLECULE
ZINC35664070_1035
71   74    1
SMALL
USER_CHARGES


@<TRIPOS>ATOM
      1 C1          0.5654   49.7131   25.4627 C.3       1 UNK         0.0000 
      2 C2          0.0214   50.5398   26.6137 C.ar      1 UNK         0.0000 
      3 C3         -1.3280   50.8965   26.6445 C.ar      1 UNK         0.0000 
      4 C4         -1.8501   51.5496   27.7582 C.ar      1 UNK         0.0000 
      5 C5         -1.0182   51.8868   28.8278 C.ar      1 UNK         0.0000 
      6 C6          0.3412   51.6049   28.7862 C.ar      1 UNK         0.0000 
      7 C7          0.8494   50.8968   27.6828 C.ar      1 UNK         0.0000 
      8 N8          1.1317   52.0780   29.8601 N.am      1 UNK         0.0000 
      9 C9          2.4726   52.2756   29.9149 C.2       1 UNK         0.0000 
     10 O10         3.0447   52.0972   30.9900 O.2       1 UNK         0.0000 
     11 N11         3.1394   52.7199   28.8128 N.am      1 UNK         0.0000 
     12 C12         4.6150   52.7795   28.7744 C.3       1 UNK         0.0000 
     13 C13         5.0640   54.1977   28.3628 C.3       1 UNK         0.0000 
     14 N14         4.4046   54.6708   27.1292 N.pl3     1 UNK         0.0000 
     15 C15         2.9661   54.6622   27.3560 C.3       1 UNK         0.0000 
     16 C16         2.4453   53.2883   27.6517 C.3       1 UNK         0.0000 
     17 C17         4.9250   54.4973   25.8460 C.ar      1 UNK         0.0000 
     18 C18         6.3061   54.4940   25.6691 C.ar      1 UNK         0.0000 
     19 C19         6.8444   54.5228   24.3978 C.ar      1 UNK         0.0000 
     20 C20         6.0413   54.6065   23.2706 C.ar      1 UNK         0.0000 
     21 C21         4.6588   54.4901   23.4157 C.ar      1 UNK         0.0000 
     22 C22         4.1126   54.4388   24.6928 C.ar      1 UNK         0.0000 
     23 N23         6.7108   54.8964   22.0732 N.am      1 UNK         0.0000 
     24 C24         6.2603   54.9029   20.8035 C.2       1 UNK         0.0000 
     25 O25         5.1044   54.6631   20.4601 O.2       1 UNK         0.0000 
     26 C26         7.3636   55.1572   19.7601 C.3       1 UNK         0.0000 
     27 N27         6.8878   55.7403   18.4927 N.am      1 UNK         0.0000 
     28 C28         6.3174   54.8135   17.4978 C.3       1 UNK         0.0000 
     29 C29         7.3700   54.0607   16.7056 C.2       1 UNK         0.0000 
     30 C30         7.5034   52.7252   16.7094 C.2       1 UNK         0.0000 
     31 C31         6.8628   57.0956   18.3531 C.2       1 UNK         0.0000 
     32 O32         7.1036   57.8720   19.2815 O.2       1 UNK         0.0000 
     33 C33         6.5585   57.6667   16.9950 C.ar      1 UNK         0.0000 
     34 C34         5.3451   58.3273   16.7721 C.ar      1 UNK         0.0000 
     35 C35         5.0706   58.8963   15.5288 C.ar      1 UNK         0.0000 
     36 C36         6.0099   58.8221   14.5017 C.ar      1 UNK         0.0000 
     37 C37         7.2316   58.1874   14.7228 C.ar      1 UNK         0.0000 
     38 C38         7.5135   57.6214   15.9673 C.ar      1 UNK         0.0000 
     39 F39         8.7243   57.0473   16.1650 F         1 UNK         0.0000 
     40 H40        -0.2338   49.1915   24.9350 H         1 UNK         0.0000 
     41 H41         1.1062   50.3417   24.7558 H         1 UNK         0.0000 
     42 H42         1.2418   48.9394   25.8324 H         1 UNK         0.0000 
     43 H43        -1.9854   50.6173   25.8344 H         1 UNK         0.0000 
     44 H44        -2.9040   51.7785   27.7982 H         1 UNK         0.0000 
     45 H45        -1.4267   52.4000   29.6820 H         1 UNK         0.0000 
     46 H46         1.8902   50.6013   27.6791 H         1 UNK         0.0000 
     47 H47         0.6607   52.0514   30.7531 H         1 UNK         0.0000 
     48 H48         4.9872   52.0964   28.0171 H         1 UNK         0.0000 
     49 H49         5.0863   52.5067   29.7174 H         1 UNK         0.0000 
     50 H50         6.1496   54.2443   28.3160 H         1 UNK         0.0000 
     51 H51         4.7811   54.8966   29.1518 H         1 UNK         0.0000 
     52 H52         2.7230   55.3628   28.1574 H         1 UNK         0.0000 
     53 H53         2.3894   54.8967   26.4833 H         1 UNK         0.0000 
     54 H54         1.3830   53.4650   27.7993 H         1 UNK         0.0000 
     55 H55         2.5916   52.6498   26.7795 H         1 UNK         0.0000 
     56 H56         6.9906   54.5155   26.5011 H         1 UNK         0.0000 
     57 H57         7.9043   54.5217   24.3096 H         1 UNK         0.0000 
     58 H58         3.9884   54.5188   22.5706 H         1 UNK         0.0000 
     59 H59         3.0383   54.3968   24.7283 H         1 UNK         0.0000 
     60 H60         7.6938   55.0906   22.1936 H         1 UNK         0.0000 
     61 H61         7.8050   54.1906   19.5178 H         1 UNK         0.0000 
     62 H62         8.1968   55.7128   20.1943 H         1 UNK         0.0000 
     63 H63         5.6869   54.0908   18.0184 H         1 UNK         0.0000 
     64 H64         5.6344   55.3281   16.8207 H         1 UNK         0.0000 
     65 H65         8.0458   54.6544   16.1074 H         1 UNK         0.0000 
     66 H66         8.2721   52.2374   16.1278 H         1 UNK         0.0000 
     67 H67         6.8435   52.0972   17.2933 H         1 UNK         0.0000 
     68 H68         4.6115   58.4152   17.5601 H         1 UNK         0.0000 
     69 H69         4.1379   59.4211   15.3736 H         1 UNK         0.0000 
     70 H70         5.8000   59.2746   13.5440 H         1 UNK         0.0000 
     71 H71         7.9695   58.1462   13.9354 H         1 UNK         0.0000 
@<TRIPOS>BOND
     1    1    2 1    
     2    1   40 1    
     3    1   41 1    
     4    1   42 1    
     5    2    7 ar   
     6    2    3 ar   
     7    3    4 ar   
     8    3   43 1    
     9    4    5 ar   
    10    4   44 1    
    11    5    6 ar   
    12    5   45 1    
    13    6    7 ar   
    14    6    8 1    
    15    7   46 1    
    16    8    9 am   BACKBONE|DICT|INTERRES
    17    8   47 1    
    18    9   10 2    
    19    9   11 am   BACKBONE|DICT|INTERRES
    20   11   16 1    
    21   11   12 1    
    22   12   13 1    
    23   12   48 1    
    24   12   49 1    
    25   13   14 1    
    26   13   50 1    
    27   13   51 1    
    28   14   15 1    
    29   14   17 1    
    30   15   16 1    
    31   15   52 1    
    32   15   53 1    
    33   16   54 1    
    34   16   55 1    
    35   17   22 ar   
    36   17   18 ar   
    37   18   19 ar   
    38   18   56 1    
    39   19   20 ar   
    40   19   57 1    
    41   20   21 ar   
    42   20   23 1    
    43   21   22 ar   
    44   21   58 1    
    45   22   59 1    
    46   23   24 am   BACKBONE|DICT|INTERRES
    47   23   60 1    
    48   24   25 2    
    49   24   26 1    
    50   26   27 1    
    51   26   61 1    
    52   26   62 1    
    53   27   28 1    
    54   27   31 am   BACKBONE|DICT|INTERRES
    55   28   29 1    
    56   28   63 1    
    57   28   64 1    
    58   29   30 2    
    59   29   65 1    
    60   30   66 1    
    61   30   67 1    
    62   31   32 2    
    63   31   33 1    
    64   33   38 ar   
    65   33   34 ar   
    66   34   35 ar   
    67   34   68 1    
    68   35   36 ar   
    69   35   69 1    
    70   36   37 ar   
    71   36   70 1    
    72   37   38 ar   
    73   37   71 1    
    74   38   39 1    
@<TRIPOS>SUBSTRUCTURE
     1 UNK         1 GROUP             0       ****    0 ROOT    
