@<TRIPOS>MOLECULE
ZINC31056713_5091
67   71    1
SMALL
USER_CHARGES


@<TRIPOS>ATOM
      1 C1          1.6682   51.0126   27.8985 C.3       1 UNK         0.0000 
      2 C2          0.3613   51.6435   28.4106 C.3       1 UNK         0.0000 
      3 H3          0.0176   50.9773   29.2064 H         1 UNK         0.0000 
      4 C4          0.5838   53.0276   29.0301 C.ar      1 UNK         0.0000 
      5 C5          0.1893   53.2629   30.3511 C.ar      1 UNK         0.0000 
      6 C6          0.4387   54.4962   30.9450 C.ar      1 UNK         0.0000 
      7 C7          1.1044   55.4907   30.2315 C.ar      1 UNK         0.0000 
      8 C8          1.5064   55.2683   28.9201 C.ar      1 UNK         0.0000 
      9 C9          1.2465   54.0383   28.3192 C.ar      1 UNK         0.0000 
     10 N10        -0.7445   51.5930   27.4528 N.am      1 UNK         0.0000 
     11 C11        -0.7785   52.0376   26.1835 C.2       1 UNK         0.0000 
     12 O12         0.2025   52.4829   25.5859 O.2       1 UNK         0.0000 
     13 C13        -2.1249   51.9232   25.4949 C.ar      1 UNK         0.0000 
     14 C14        -3.2872   52.1874   26.2421 C.ar      1 UNK         0.0000 
     15 C15        -4.5515   52.0890   25.6741 C.ar      1 UNK         0.0000 
     16 C16        -4.6844   51.7103   24.3461 C.ar      1 UNK         0.0000 
     17 C17        -3.5506   51.4445   23.5832 C.ar      1 UNK         0.0000 
     18 C18        -2.2622   51.5649   24.1294 C.ar      1 UNK         0.0000 
     19 N19        -1.1176   51.2530   23.3587 N.am      1 UNK         0.0000 
     20 C20        -0.9629   51.2976   22.0165 C.2       1 UNK         0.0000 
     21 O21        -1.7920   51.7802   21.2394 O.2       1 UNK         0.0000 
     22 C22         0.3529   50.7115   21.4566 C.3       1 UNK         0.0000 
     23 H23         1.0480   50.6495   22.2978 H         1 UNK         0.0000 
     24 C24         0.0593   49.2844   20.9136 C.3       1 UNK         0.0000 
     25 C25         1.3233   48.6857   20.2605 C.3       1 UNK         0.0000 
     26 C26         1.9049   49.5931   19.1577 C.3       1 UNK         0.0000 
     27 N27         2.1970   50.9777   19.7846 N.4       1 UNK         0.0000 
     28 C28         0.9228   51.6465   20.3621 C.3       1 UNK         0.0000 
     29 C29         2.9039   51.9231   18.7777 C.3       1 UNK         0.0000 
     30 C30         3.7751   52.8992   19.5461 C.2       1 UNK         0.0000 
     31 N31         3.9527   52.9794   20.8385 N.2       1 UNK         0.0000 
     32 C32         4.8344   53.9498   20.9376 C.2       1 UNK         0.0000 
     33 N33         5.2240   54.4996   19.8043 N.2       1 UNK         0.0000 
     34 O34         4.5065   53.7925   18.8407 O.3       1 UNK         0.0000 
     35 C35         5.3517   54.3567   22.2357 C.2       1 UNK         0.0000 
     36 C36         4.8331   54.0854   23.5040 C.2       1 UNK         0.0000 
     37 C37         5.6010   54.6010   24.5509 C.2       1 UNK         0.0000 
     38 C38         6.7042   55.2961   24.0914 C.2       1 UNK         0.0000 
     39 S39         6.8088   55.2954   22.3638 S.3       1 UNK         0.0000 
     40 H40         2.3063   50.7292   28.7344 H         1 UNK         0.0000 
     41 H41         1.4811   50.1169   27.2990 H         1 UNK         0.0000 
     42 H42         2.2339   51.7077   27.2799 H         1 UNK         0.0000 
     43 H43        -0.3114   52.4963   30.9274 H         1 UNK         0.0000 
     44 H44         0.1335   54.6698   31.9654 H         1 UNK         0.0000 
     45 H45         1.3051   56.4454   30.6995 H         1 UNK         0.0000 
     46 H46         2.0121   56.0448   28.3634 H         1 UNK         0.0000 
     47 H47         1.5600   53.8777   27.2997 H         1 UNK         0.0000 
     48 H48        -1.5797   51.1386   27.7979 H         1 UNK         0.0000 
     49 H49        -3.2239   52.4788   27.2813 H         1 UNK         0.0000 
     50 H50        -5.4288   52.2960   26.2692 H         1 UNK         0.0000 
     51 H51        -5.6636   51.6163   23.9056 H         1 UNK         0.0000 
     52 H52        -3.7007   51.1234   22.5652 H         1 UNK         0.0000 
     53 H53        -0.2936   51.0584   23.9078 H         1 UNK         0.0000 
     54 H54        -0.2424   48.6024   21.7136 H         1 UNK         0.0000 
     55 H55        -0.6910   49.3148   20.1185 H         1 UNK         0.0000 
     56 H56         2.0865   48.5053   21.0207 H         1 UNK         0.0000 
     57 H57         1.0901   47.7083   19.8336 H         1 UNK         0.0000 
     58 H58         2.8616   49.1955   18.8068 H         1 UNK         0.0000 
     59 H59         1.2326   49.7437   18.3086 H         1 UNK         0.0000 
     60 H60         0.2488   51.7875   19.5131 H         1 UNK         0.0000 
     61 H61         1.2251   52.6121   20.7785 H         1 UNK         0.0000 
     62 H62         3.5025   51.2969   18.1169 H         1 UNK         0.0000 
     63 H63         2.1299   52.3980   18.1745 H         1 UNK         0.0000 
     64 H64         3.9285   53.5177   23.6630 H         1 UNK         0.0000 
     65 H65         5.3564   54.4754   25.5962 H         1 UNK         0.0000 
     66 H66         7.4679   55.8063   24.6594 H         1 UNK         0.0000 
     67 H67         2.8560   50.8271   20.5410 H         1 UNK         0.0000 
@<TRIPOS>BOND
     1    1    2 1    
     2    1   40 1    
     3    1   41 1    
     4    1   42 1    
     5    2    3 1    
     6    2    4 1    
     7    2   10 1    
     8    4    9 ar   
     9    4    5 ar   
    10    5    6 ar   
    11    5   43 1    
    12    6    7 ar   
    13    6   44 1    
    14    7    8 ar   
    15    7   45 1    
    16    8    9 ar   
    17    8   46 1    
    18    9   47 1    
    19   10   11 am   BACKBONE|DICT|INTERRES
    20   10   48 1    
    21   11   12 2    
    22   11   13 1    
    23   13   18 ar   
    24   13   14 ar   
    25   14   15 ar   
    26   14   49 1    
    27   15   16 ar   
    28   15   50 1    
    29   16   17 ar   
    30   16   51 1    
    31   17   18 ar   
    32   17   52 1    
    33   18   19 1    
    34   19   20 am   BACKBONE|DICT|INTERRES
    35   19   53 1    
    36   20   21 2    
    37   20   22 1    
    38   22   23 1    
    39   22   28 1    
    40   22   24 1    
    41   24   25 1    
    42   24   54 1    
    43   24   55 1    
    44   25   26 1    
    45   25   56 1    
    46   25   57 1    
    47   26   27 1    
    48   26   58 1    
    49   26   59 1    
    50   27   28 1    
    51   27   29 1    
    52   27   67 1    
    53   28   60 1    
    54   28   61 1    
    55   29   30 1    
    56   29   62 1    
    57   29   63 1    
    58   30   34 1    
    59   30   31 2    
    60   31   32 1    
    61   32   33 2    
    62   32   35 1    
    63   33   34 1    
    64   35   39 1    
    65   35   36 2    
    66   36   37 1    
    67   36   64 1    
    68   37   38 2    
    69   37   65 1    
    70   38   39 1    
    71   38   66 1    
@<TRIPOS>SUBSTRUCTURE
     1 UNK         1 GROUP             0       ****    0 ROOT    
