@<TRIPOS>MOLECULE
ZINC63600767_2078
53   58    1
SMALL
USER_CHARGES


@<TRIPOS>ATOM
      1 C1          1.0650   52.4964   31.5324 C.ar      1 UNK         0.0000 
      2 C2          0.5719   53.2641   30.4833 C.ar      1 UNK         0.0000 
      3 C3          1.4165   53.6332   29.4409 C.ar      1 UNK         0.0000 
      4 C4          2.7623   53.2277   29.4463 C.ar      1 UNK         0.0000 
      5 C5          3.2472   52.4675   30.5173 C.ar      1 UNK         0.0000 
      6 C6          2.3977   52.0967   31.5551 C.ar      1 UNK         0.0000 
      7 C7          3.6952   53.5886   28.3183 C.2       1 UNK         0.0000 
      8 O8          4.8982   53.7377   28.5393 O.2       1 UNK         0.0000 
      9 N9          3.1131   53.6800   27.1019 N.am      1 UNK         0.0000 
     10 C10         3.7475   53.9300   25.8990 C.2       1 UNK         0.0000 
     11 N11         4.9917   54.2913   25.7316 N.2       1 UNK         0.0000 
     12 C12         5.2960   54.3924   24.4154 C.ar      1 UNK         0.0000 
     13 C13         6.5527   54.7586   23.9212 C.ar      1 UNK         0.0000 
     14 C14         6.7043   54.8996   22.5441 C.ar      1 UNK         0.0000 
     15 C15         5.6381   54.6683   21.6650 C.ar      1 UNK         0.0000 
     16 C16         4.4014   54.2162   22.1314 C.ar      1 UNK         0.0000 
     17 C17         4.2296   54.1061   23.5194 C.ar      1 UNK         0.0000 
     18 S18         2.7953   53.6976   24.4510 S.3       1 UNK         0.0000 
     19 N19         5.7750   54.8961   20.2901 N.am      1 UNK         0.0000 
     20 C20         6.3019   56.0083   19.7253 C.2       1 UNK         0.0000 
     21 O21         6.7045   56.9756   20.3765 O.2       1 UNK         0.0000 
     22 C22         6.3876   56.0651   18.1853 C.3       1 UNK         0.0000 
     23 H23         6.4475   57.1089   17.8762 H         1 UNK         0.0000 
     24 C24         7.5064   55.2147   17.6757 C.2       1 UNK         0.0000 
     25 C25         6.9315   54.3011   16.8951 C.2       1 UNK         0.0000 
     26 C26         7.7150   53.2906   16.1575 C.ar      1 UNK         0.0000 
     27 C27         7.1314   52.4992   15.1618 C.ar      1 UNK         0.0000 
     28 C28         7.9114   51.6120   14.4228 C.ar      1 UNK         0.0000 
     29 C29         9.2769   51.5059   14.6792 C.ar      1 UNK         0.0000 
     30 C30         9.8608   52.2867   15.6764 C.ar      1 UNK         0.0000 
     31 C31         9.0937   53.1813   16.4307 C.ar      1 UNK         0.0000 
     32 C32         9.7001   54.0055   17.5779 C.3       1 UNK         0.0000 
     33 C33         9.0136   55.3847   17.7909 C.3       1 UNK         0.0000 
     34 N34         5.5862   54.4376   16.8697 N.2       1 UNK         0.0000 
     35 N35         5.2340   55.4425   17.5764 N.2       1 UNK         0.0000 
     36 H36         0.4044   52.2134   32.3405 H         1 UNK         0.0000 
     37 H37        -0.4644   53.5667   30.4775 H         1 UNK         0.0000 
     38 H38         1.0134   54.2357   28.6395 H         1 UNK         0.0000 
     39 H39         4.2827   52.1518   30.5476 H         1 UNK         0.0000 
     40 H40         2.7672   51.5146   32.3871 H         1 UNK         0.0000 
     41 H41         2.1410   53.4210   27.0442 H         1 UNK         0.0000 
     42 H42         7.3807   54.9571   24.5828 H         1 UNK         0.0000 
     43 H43         7.6649   55.2155   22.1582 H         1 UNK         0.0000 
     44 H44         3.5774   54.0342   21.4546 H         1 UNK         0.0000 
     45 H45         5.3362   54.2349   19.6643 H         1 UNK         0.0000 
     46 H46         6.0750   52.5780   14.9501 H         1 UNK         0.0000 
     47 H47         7.4576   51.0049   13.6543 H         1 UNK         0.0000 
     48 H48         9.8822   50.8144   14.1108 H         1 UNK         0.0000 
     49 H49        10.9172   52.1810   15.8781 H         1 UNK         0.0000 
     50 H50         9.5535   53.4173   18.4816 H         1 UNK         0.0000 
     51 H51        10.7779   54.1265   17.4609 H         1 UNK         0.0000 
     52 H52         9.3547   56.0719   17.0160 H         1 UNK         0.0000 
     53 H53         9.3098   55.8326   18.7395 H         1 UNK         0.0000 
@<TRIPOS>BOND
     1    1    6 ar   
     2    1    2 ar   
     3    1   36 1    
     4    2    3 ar   
     5    2   37 1    
     6    3    4 ar   
     7    3   38 1    
     8    4    5 ar   
     9    4    7 1    
    10    5    6 ar   
    11    5   39 1    
    12    6   40 1    
    13    7    8 2    
    14    7    9 am   BACKBONE|DICT|INTERRES
    15    9   10 am   BACKBONE|DICT|INTERRES
    16    9   41 1    
    17   10   18 1    
    18   10   11 2    
    19   11   12 1    
    20   12   17 ar   
    21   12   13 ar   
    22   13   14 ar   
    23   13   42 1    
    24   14   15 ar   
    25   14   43 1    
    26   15   16 ar   
    27   15   19 1    
    28   16   17 ar   
    29   16   44 1    
    30   17   18 1    
    31   19   20 am   BACKBONE|DICT|INTERRES
    32   19   45 1    
    33   20   21 2    
    34   20   22 1    
    35   22   23 1    
    36   22   35 1    
    37   22   24 1    
    38   24   33 1    
    39   24   25 2    
    40   25   26 1    
    41   25   34 1    
    42   26   31 ar   
    43   26   27 ar   
    44   27   28 ar   
    45   27   46 1    
    46   28   29 ar   
    47   28   47 1    
    48   29   30 ar   
    49   29   48 1    
    50   30   31 ar   
    51   30   49 1    
    52   31   32 1    
    53   32   33 1    
    54   32   50 1    
    55   32   51 1    
    56   33   52 1    
    57   33   53 1    
    58   34   35 2    
@<TRIPOS>SUBSTRUCTURE
     1 UNK         1 GROUP             0       ****    0 ROOT    
