@<TRIPOS>MOLECULE
ZINC28284270_4626
48   50    1
SMALL
USER_CHARGES


@<TRIPOS>ATOM
      1 C1          5.0624   54.1786   19.5879 C.3       1 UNK         0.0000 
      2 O2          5.9037   54.5055   20.6895 O.3       1 UNK         0.0000 
      3 C3          5.4234   54.3550   21.9758 C.ar      1 UNK         0.0000 
      4 C4          4.1124   53.9699   22.2937 C.ar      1 UNK         0.0000 
      5 C5          3.7021   53.8390   23.6300 C.ar      1 UNK         0.0000 
      6 C6          4.6347   54.1011   24.6459 C.ar      1 UNK         0.0000 
      7 C7          5.9486   54.4955   24.3515 C.ar      1 UNK         0.0000 
      8 C8          6.3204   54.6132   23.0136 C.ar      1 UNK         0.0000 
      9 O9          6.9133   54.7795   25.3017 O.3       1 UNK         0.0000 
     10 C10         6.6083   54.5869   26.6792 C.3       1 UNK         0.0000 
     11 C11         2.2925   53.4294   23.9971 C.2       1 UNK         0.0000 
     12 O12         1.8545   53.6963   25.1182 O.2       1 UNK         0.0000 
     13 N13         1.6050   52.7310   23.0660 N.am      1 UNK         0.0000 
     14 C14         0.3130   52.1816   23.1740 C.ar      1 UNK         0.0000 
     15 C15        -0.6871   52.7813   23.9571 C.ar      1 UNK         0.0000 
     16 C16        -1.9566   52.2154   24.0519 C.ar      1 UNK         0.0000 
     17 C17        -2.2416   51.0345   23.3773 C.ar      1 UNK         0.0000 
     18 C18        -1.2655   50.4317   22.5901 C.ar      1 UNK         0.0000 
     19 C19         0.0086   51.0076   22.4565 C.ar      1 UNK         0.0000 
     20 S20         1.2058   50.2199   21.3452 S.o2      1 UNK         0.0000 
     21 O21         2.4043   50.0526   22.1719 O.2       1 UNK         0.0000 
     22 O22         0.5561   48.9989   20.8496 O.2       1 UNK         0.0000 
     23 N23         1.3805   51.3520   20.2666 N.2       1 UNK         0.0000 
     24 C24         0.4147   51.7596   19.3752 C.ar      1 UNK         0.0000 
     25 C25         0.7577   52.7864   18.4881 C.ar      1 UNK         0.0000 
     26 C26        -0.1809   53.3497   17.6286 C.ar      1 UNK         0.0000 
     27 C27        -1.4887   52.8785   17.6355 C.ar      1 UNK         0.0000 
     28 C28        -1.8460   51.8182   18.4590 C.ar      1 UNK         0.0000 
     29 C29        -0.8992   51.2625   19.3148 C.ar      1 UNK         0.0000 
     30 Br30       -2.8001   53.6997   16.5277 Br        1 UNK         0.0000 
     31 F31        -3.4718   50.4819   23.4694 F         1 UNK         0.0000 
     32 H32         5.6149   54.3298   18.6598 H         1 UNK         0.0000 
     33 H33         4.7509   53.1343   19.6172 H         1 UNK         0.0000 
     34 H34         4.1783   54.8164   19.5522 H         1 UNK         0.0000 
     35 H35         3.4105   53.7828   21.4943 H         1 UNK         0.0000 
     36 H36         4.3252   53.9950   25.6739 H         1 UNK         0.0000 
     37 H37         7.3311   54.9120   22.7755 H         1 UNK         0.0000 
     38 H38         7.4862   54.8268   27.2771 H         1 UNK         0.0000 
     39 H39         6.3417   53.5497   26.8877 H         1 UNK         0.0000 
     40 H40         5.7978   55.2395   27.0058 H         1 UNK         0.0000 
     41 H41         2.1082   52.4499   22.2330 H         1 UNK         0.0000 
     42 H42        -0.4978   53.7028   24.4813 H         1 UNK         0.0000 
     43 H43        -2.7158   52.6904   24.6545 H         1 UNK         0.0000 
     44 H44        -1.5164   49.5204   22.0663 H         1 UNK         0.0000 
     45 H45         1.7605   53.1886   18.5004 H         1 UNK         0.0000 
     46 H46         0.1010   54.1684   16.9834 H         1 UNK         0.0000 
     47 H47        -2.8571   51.4363   18.4501 H         1 UNK         0.0000 
     48 H48        -1.2159   50.4492   19.9423 H         1 UNK         0.0000 
@<TRIPOS>BOND
     1    1    2 1    
     2    1   32 1    
     3    1   33 1    
     4    1   34 1    
     5    2    3 1    
     6    3    8 ar   
     7    3    4 ar   
     8    4    5 ar   
     9    4   35 1    
    10    5    6 ar   
    11    5   11 1    
    12    6    7 ar   
    13    6   36 1    
    14    7    8 ar   
    15    7    9 1    
    16    8   37 1    
    17    9   10 1    
    18   10   38 1    
    19   10   39 1    
    20   10   40 1    
    21   11   12 2    
    22   11   13 am   BACKBONE|DICT|INTERRES
    23   13   14 1    
    24   13   41 1    
    25   14   19 ar   
    26   14   15 ar   
    27   15   16 ar   
    28   15   42 1    
    29   16   17 ar   
    30   16   43 1    
    31   17   18 ar   
    32   17   31 1    
    33   18   19 ar   
    34   18   44 1    
    35   19   20 1    
    36   20   21 2    
    37   20   22 2    
    38   20   23 1    
    39   23   24 1    
    40   24   29 ar   
    41   24   25 ar   
    42   25   26 ar   
    43   25   45 1    
    44   26   27 ar   
    45   26   46 1    
    46   27   28 ar   
    47   27   30 1    
    48   28   29 ar   
    49   28   47 1    
    50   29   48 1    
@<TRIPOS>SUBSTRUCTURE
     1 UNK         1 GROUP             0       ****    0 ROOT    
