@<TRIPOS>MOLECULE
ZINC21450717_2047
64   67    1
SMALL
USER_CHARGES


@<TRIPOS>ATOM
      1 C1         -1.8872   51.3217   28.3663 C.3       1 UNK         0.0000 
      2 C2         -0.4980   51.9443   28.3313 C.ar      1 UNK         0.0000 
      3 C3          0.2061   52.1076   29.5282 C.ar      1 UNK         0.0000 
      4 C4          1.4953   52.6381   29.5216 C.ar      1 UNK         0.0000 
      5 C5          2.0960   53.0218   28.3139 C.ar      1 UNK         0.0000 
      6 C6          1.3782   52.8836   27.1211 C.ar      1 UNK         0.0000 
      7 C7          0.0919   52.3345   27.1175 C.ar      1 UNK         0.0000 
      8 C8         -0.6391   52.1667   25.7924 C.3       1 UNK         0.0000 
      9 N9          3.4142   53.5123   28.2570 N.am      1 UNK         0.0000 
     10 C10         3.7811   54.7434   27.5597 C.3       1 UNK         0.0000 
     11 C11         5.3070   54.7476   27.4427 C.3       1 UNK         0.0000 
     12 H12         5.7366   55.6966   27.7545 H         1 UNK         0.0000 
     13 C13         5.7359   53.6739   28.4357 C.3       1 UNK         0.0000 
     14 C14         4.4714   52.9359   28.8843 C.2       1 UNK         0.0000 
     15 O15         4.4595   51.9753   29.6540 O.2       1 UNK         0.0000 
     16 C16         5.8813   54.5192   26.0209 C.2       1 UNK         0.0000 
     17 O17         7.0948   54.6472   25.8598 O.2       1 UNK         0.0000 
     18 N18         5.0081   54.2376   25.0310 N.am      1 UNK         0.0000 
     19 C19         5.1803   54.2622   23.6359 C.ar      1 UNK         0.0000 
     20 C20         4.0889   53.8176   22.8838 C.ar      1 UNK         0.0000 
     21 C21         4.1051   53.9059   21.4945 C.ar      1 UNK         0.0000 
     22 C22         5.2158   54.4511   20.8501 C.ar      1 UNK         0.0000 
     23 C23         6.3122   54.8967   21.5928 C.ar      1 UNK         0.0000 
     24 C24         6.3045   54.7899   22.9819 C.ar      1 UNK         0.0000 
     25 S25         5.2465   54.5932   19.0639 S.o2      1 UNK         0.0000 
     26 O26         3.9040   54.2985   18.5553 O.2       1 UNK         0.0000 
     27 O27         5.8993   55.8741   18.7685 O.2       1 UNK         0.0000 
     28 N28         6.3067   53.2967   18.5310 N.pl3     1 UNK         0.0000 
     29 C29         7.1212   53.5330   17.3193 C.3       1 UNK         0.0000 
     30 C30         8.4836   54.0850   17.8037 C.3       1 UNK         0.0000 
     31 C31         9.4175   54.3277   16.6006 C.3       1 UNK         0.0000 
     32 C32         9.6148   53.0338   15.7757 C.3       1 UNK         0.0000 
     33 C33         8.2771   52.3522   15.4035 C.3       1 UNK         0.0000 
     34 C34         7.3736   52.1712   16.6401 C.3       1 UNK         0.0000 
     35 H35        -2.1379   50.9179   29.3493 H         1 UNK         0.0000 
     36 H36        -2.6433   52.0484   28.0665 H         1 UNK         0.0000 
     37 H37        -1.9431   50.4968   27.6571 H         1 UNK         0.0000 
     38 H38        -0.2420   51.8093   30.4675 H         1 UNK         0.0000 
     39 H39         2.0267   52.7379   30.4560 H         1 UNK         0.0000 
     40 H40         1.8365   53.1657   26.1849 H         1 UNK         0.0000 
     41 H41        -0.0871   52.5952   24.9562 H         1 UNK         0.0000 
     42 H42        -1.6107   52.6589   25.8335 H         1 UNK         0.0000 
     43 H43        -0.8122   51.1111   25.5867 H         1 UNK         0.0000 
     44 H44         3.2382   54.9449   26.6374 H         1 UNK         0.0000 
     45 H45         3.4719   55.5593   28.2153 H         1 UNK         0.0000 
     46 H46         6.2547   54.1222   29.2811 H         1 UNK         0.0000 
     47 H47         6.4254   52.9397   28.0144 H         1 UNK         0.0000 
     48 H48         4.0801   53.9791   25.3274 H         1 UNK         0.0000 
     49 H49         3.2097   53.4207   23.3702 H         1 UNK         0.0000 
     50 H50         3.2473   53.5717   20.9260 H         1 UNK         0.0000 
     51 H51         7.1744   55.3151   21.0915 H         1 UNK         0.0000 
     52 H52         7.1605   55.1618   23.5243 H         1 UNK         0.0000 
     53 H53         5.8174   52.3934   18.4615 H         1 UNK         0.0000 
     54 H54         6.6969   54.3064   16.6747 H         1 UNK         0.0000 
     55 H55         8.3559   55.0089   18.3703 H         1 UNK         0.0000 
     56 H56         8.9723   53.3833   18.4795 H         1 UNK         0.0000 
     57 H57         9.0017   55.1105   15.9630 H         1 UNK         0.0000 
     58 H58        10.3836   54.6972   16.9484 H         1 UNK         0.0000 
     59 H59        10.1891   53.2479   14.8732 H         1 UNK         0.0000 
     60 H60        10.2177   52.3339   16.3578 H         1 UNK         0.0000 
     61 H61         7.7576   52.9513   14.6521 H         1 UNK         0.0000 
     62 H62         8.4703   51.3849   14.9398 H         1 UNK         0.0000 
     63 H63         7.8464   51.4748   17.3357 H         1 UNK         0.0000 
     64 H64         6.4291   51.7088   16.3490 H         1 UNK         0.0000 
@<TRIPOS>BOND
     1    1    2 1    
     2    1   35 1    
     3    1   36 1    
     4    1   37 1    
     5    2    7 ar   
     6    2    3 ar   
     7    3    4 ar   
     8    3   38 1    
     9    4    5 ar   
    10    4   39 1    
    11    5    6 ar   
    12    5    9 1    
    13    6    7 ar   
    14    6   40 1    
    15    7    8 1    
    16    8   41 1    
    17    8   42 1    
    18    8   43 1    
    19    9   14 am   BACKBONE|DICT|INTERRES
    20    9   10 1    
    21   10   11 1    
    22   10   44 1    
    23   10   45 1    
    24   11   12 1    
    25   11   13 1    
    26   11   16 1    
    27   13   14 1    
    28   13   46 1    
    29   13   47 1    
    30   14   15 2    
    31   16   17 2    
    32   16   18 am   BACKBONE|DICT|INTERRES
    33   18   19 1    
    34   18   48 1    
    35   19   24 ar   
    36   19   20 ar   
    37   20   21 ar   
    38   20   49 1    
    39   21   22 ar   
    40   21   50 1    
    41   22   23 ar   
    42   22   25 1    
    43   23   24 ar   
    44   23   51 1    
    45   24   52 1    
    46   25   26 2    
    47   25   27 2    
    48   25   28 1    
    49   28   29 1    
    50   28   53 1    
    51   29   34 1    
    52   29   30 1    
    53   29   54 1    
    54   30   31 1    
    55   30   55 1    
    56   30   56 1    
    57   31   32 1    
    58   31   57 1    
    59   31   58 1    
    60   32   33 1    
    61   32   59 1    
    62   32   60 1    
    63   33   34 1    
    64   33   61 1    
    65   33   62 1    
    66   34   63 1    
    67   34   64 1    
@<TRIPOS>SUBSTRUCTURE
     1 UNK         1 GROUP             0       ****    0 ROOT    
