@<TRIPOS>MOLECULE
ZINC33259876_1954
53   56    1
SMALL
USER_CHARGES


@<TRIPOS>ATOM
      1 C1          5.9018   54.4360   27.9067 C.ar      1 UNK         0.0000 
      2 C2          6.6114   54.4384   26.7127 C.ar      1 UNK         0.0000 
      3 C3          5.9334   54.3408   25.4995 C.ar      1 UNK         0.0000 
      4 C4          4.5324   54.2260   25.4587 C.ar      1 UNK         0.0000 
      5 C5          3.8410   54.2534   26.6843 C.ar      1 UNK         0.0000 
      6 C6          4.5160   54.3552   27.8969 C.ar      1 UNK         0.0000 
      7 N7          3.8444   54.0258   24.2528 N.pl3     1 UNK         0.0000 
      8 C8          2.4162   54.3461   24.0821 C.3       1 UNK         0.0000 
      9 C9          1.6774   53.6946   22.8949 C.3       1 UNK         0.0000 
     10 N10         2.3677   52.5547   22.2904 N.pl3     1 UNK         0.0000 
     11 C11         3.7506   52.9211   21.9447 C.3       1 UNK         0.0000 
     12 C12         4.4812   53.8735   22.9326 C.3       1 UNK         0.0000 
     13 C13         1.6879   51.5334   21.6300 C.ar      1 UNK         0.0000 
     14 C14         2.2940   50.2878   21.4552 C.ar      1 UNK         0.0000 
     15 C15         1.6142   49.2421   20.8431 C.ar      1 UNK         0.0000 
     16 C16         0.3066   49.4114   20.3813 C.ar      1 UNK         0.0000 
     17 C17        -0.3433   50.6607   20.5388 C.ar      1 UNK         0.0000 
     18 C18         0.3791   51.6997   21.1539 C.ar      1 UNK         0.0000 
     19 C19        -1.7587   50.9240   20.0720 C.2       1 UNK         0.0000 
     20 O20        -2.4407   49.9640   19.6422 O.co2     1 UNK         0.0000 
     21 O21        -2.1973   52.0966   20.1456 O.co2     1 UNK         0.0000 
     22 N22        -0.3253   48.3288   19.7543 N.pl3     1 UNK         0.0000 
     23 S23         0.3154   47.6877   18.2418 S.o2      1 UNK         0.0000 
     24 O24        -0.6814   46.7299   17.7498 O.2       1 UNK         0.0000 
     25 O25         1.7058   47.2869   18.4796 O.2       1 UNK         0.0000 
     26 C26         0.3073   49.1053   17.1497 C.ar      1 UNK         0.0000 
     27 C27         1.4253   49.9406   17.0973 C.ar      1 UNK         0.0000 
     28 C28         1.4041   51.0746   16.2909 C.ar      1 UNK         0.0000 
     29 C29         0.2625   51.3720   15.5489 C.ar      1 UNK         0.0000 
     30 C30        -0.8594   50.5463   15.6077 C.ar      1 UNK         0.0000 
     31 C31        -0.8392   49.4107   16.4137 C.ar      1 UNK         0.0000 
     32 H32         6.4294   54.4967   28.8479 H         1 UNK         0.0000 
     33 H33         7.6865   54.4965   26.7357 H         1 UNK         0.0000 
     34 H34         6.5267   54.3357   24.5999 H         1 UNK         0.0000 
     35 H35         2.7688   54.1653   26.7344 H         1 UNK         0.0000 
     36 H36         3.9662   54.3573   28.8262 H         1 UNK         0.0000 
     37 H37         1.9186   53.8906   24.9346 H         1 UNK         0.0000 
     38 H38         2.2264   55.4174   24.0820 H         1 UNK         0.0000 
     39 H39         1.6719   54.4240   22.0831 H         1 UNK         0.0000 
     40 H40         0.6306   53.5124   23.1389 H         1 UNK         0.0000 
     41 H41         4.3049   51.9871   22.0197 H         1 UNK         0.0000 
     42 H42         3.8412   53.3018   20.9265 H         1 UNK         0.0000 
     43 H43         5.5473   53.6574   22.9442 H         1 UNK         0.0000 
     44 H44         4.4031   54.8807   22.5195 H         1 UNK         0.0000 
     45 H45         3.2938   50.1057   21.8149 H         1 UNK         0.0000 
     46 H46         2.1184   48.2927   20.7346 H         1 UNK         0.0000 
     47 H47        -0.0913   52.6647   21.2629 H         1 UNK         0.0000 
     48 H48        -1.3263   48.4927   19.6745 H         1 UNK         0.0000 
     49 H49         2.3036   49.7121   17.6821 H         1 UNK         0.0000 
     50 H50         2.2715   51.7172   16.2462 H         1 UNK         0.0000 
     51 H51         0.2466   52.2541   14.9255 H         1 UNK         0.0000 
     52 H52        -1.7435   50.7888   15.0367 H         1 UNK         0.0000 
     53 H53        -1.7132   48.7786   16.4749 H         1 UNK         0.0000 
@<TRIPOS>BOND
     1    1    6 ar   
     2    1    2 ar   
     3    1   32 1    
     4    2    3 ar   
     5    2   33 1    
     6    3    4 ar   
     7    3   34 1    
     8    4    5 ar   
     9    4    7 1    
    10    5    6 ar   
    11    5   35 1    
    12    6   36 1    
    13    7   12 1    
    14    7    8 1    
    15    8    9 1    
    16    8   37 1    
    17    8   38 1    
    18    9   10 1    
    19    9   39 1    
    20    9   40 1    
    21   10   11 1    
    22   10   13 1    
    23   11   12 1    
    24   11   41 1    
    25   11   42 1    
    26   12   43 1    
    27   12   44 1    
    28   13   18 ar   
    29   13   14 ar   
    30   14   15 ar   
    31   14   45 1    
    32   15   16 ar   
    33   15   46 1    
    34   16   17 ar   
    35   16   22 1    
    36   17   18 ar   
    37   17   19 1    
    38   18   47 1    
    39   19   20 2    
    40   19   21 1    
    41   22   23 1    
    42   22   48 1    
    43   23   24 2    
    44   23   25 2    
    45   23   26 1    
    46   26   31 ar   
    47   26   27 ar   
    48   27   28 ar   
    49   27   49 1    
    50   28   29 ar   
    51   28   50 1    
    52   29   30 ar   
    53   29   51 1    
    54   30   31 ar   
    55   30   52 1    
    56   31   53 1    
@<TRIPOS>SUBSTRUCTURE
     1 UNK         1 GROUP             0       ****    0 ROOT    
