@<TRIPOS>MOLECULE
ZINC35300361_4392
55   59    1
SMALL
USER_CHARGES


@<TRIPOS>ATOM
      1 C1          5.1735   56.4944   18.0764 C.ar      1 UNK         0.0000 
      2 C2          6.0855   56.1319   19.0652 C.ar      1 UNK         0.0000 
      3 C3          5.9048   54.9428   19.7672 C.ar      1 UNK         0.0000 
      4 C4          4.8122   54.1210   19.4765 C.ar      1 UNK         0.0000 
      5 C5          3.9055   54.4862   18.4791 C.ar      1 UNK         0.0000 
      6 C6          4.0848   55.6767   17.7788 C.ar      1 UNK         0.0000 
      7 C7          4.6106   52.8172   20.2413 C.3       1 UNK         0.0000 
      8 O8          3.6133   52.9446   21.2542 O.3       1 UNK         0.0000 
      9 C9          3.8394   53.6132   22.4187 C.2       1 UNK         0.0000 
     10 O10         4.9311   54.1099   22.7099 O.2       1 UNK         0.0000 
     11 N11         2.6905   53.6626   23.2283 N.am      1 UNK         0.0000 
     12 C12         1.4606   52.9056   22.9309 C.3       1 UNK         0.0000 
     13 C13         1.3069   51.9227   24.0997 C.2       1 UNK         0.0000 
     14 C14         0.9578   50.6281   23.9140 C.2       1 UNK         0.0000 
     15 C15         0.7207   49.9320   22.6642 C.2       1 UNK         0.0000 
     16 C16        -0.4370   49.2440   22.3147 C.2       1 UNK         0.0000 
     17 C17        -0.3691   48.6754   21.0370 C.2       1 UNK         0.0000 
     18 C18         0.8553   48.8973   20.4184 C.2       1 UNK         0.0000 
     19 S19         1.9326   49.8161   21.4181 S.3       1 UNK         0.0000 
     20 C20         1.5639   52.4618   25.4392 C.2       1 UNK         0.0000 
     21 C21         2.1852   53.6564   25.6408 C.2       1 UNK         0.0000 
     22 C22         2.7128   54.4849   24.4519 C.3       1 UNK         0.0000 
     23 C23         2.5324   54.0969   27.0846 C.3       1 UNK         0.0000 
     24 H24         2.3040   55.1467   27.2635 H         1 UNK         0.0000 
     25 C25         1.6212   53.3594   28.0759 C.2       1 UNK         0.0000 
     26 C26         1.0432   52.1947   27.7242 C.2       1 UNK         0.0000 
     27 O27         1.1035   51.6949   26.4695 O.3       1 UNK         0.0000 
     28 N28         0.1837   51.4223   28.4589 N.pl3     1 UNK         0.0000 
     29 C29         1.3444   53.9488   29.3444 C.1       1 UNK         0.0000 
     30 N30         1.0961   54.4453   30.3583 N.1       1 UNK         0.0000 
     31 C31         4.0267   53.9902   27.3876 C.2       1 UNK         0.0000 
     32 C32         5.1038   53.6966   26.5403 C.2       1 UNK         0.0000 
     33 C33         6.3566   53.6982   27.1483 C.2       1 UNK         0.0000 
     34 C34         6.2827   54.0210   28.4817 C.2       1 UNK         0.0000 
     35 S35         4.6547   54.3189   28.9792 S.3       1 UNK         0.0000 
     36 H36         5.3117   57.4186   17.5335 H         1 UNK         0.0000 
     37 H37         6.9286   56.7701   19.2831 H         1 UNK         0.0000 
     38 H38         6.6073   54.6667   20.5401 H         1 UNK         0.0000 
     39 H39         3.0591   53.8523   18.2559 H         1 UNK         0.0000 
     40 H40         3.3806   55.9647   17.0118 H         1 UNK         0.0000 
     41 H41         4.2973   52.0478   19.5338 H         1 UNK         0.0000 
     42 H42         5.5502   52.4648   20.6664 H         1 UNK         0.0000 
     43 H43         0.6216   53.5994   22.9235 H         1 UNK         0.0000 
     44 H44         1.4639   52.4157   21.9592 H         1 UNK         0.0000 
     45 H45         0.8264   49.9834   24.7718 H         1 UNK         0.0000 
     46 H46        -1.3028   49.1682   22.9581 H         1 UNK         0.0000 
     47 H47        -1.1774   48.1162   20.5875 H         1 UNK         0.0000 
     48 H48         1.1763   48.5665   19.4405 H         1 UNK         0.0000 
     49 H49         3.6816   54.9390   24.6611 H         1 UNK         0.0000 
     50 H50         2.0278   55.3057   24.2800 H         1 UNK         0.0000 
     51 H51         0.0136   51.6095   29.4365 H         1 UNK         0.0000 
     52 H52        -0.3741   50.6999   28.0225 H         1 UNK         0.0000 
     53 H53         4.9902   53.4470   25.4971 H         1 UNK         0.0000 
     54 H54         7.2741   53.4690   26.6302 H         1 UNK         0.0000 
     55 H55         7.0950   54.0966   29.1899 H         1 UNK         0.0000 
@<TRIPOS>BOND
     1    1    6 ar   
     2    1    2 ar   
     3    1   36 1    
     4    2    3 ar   
     5    2   37 1    
     6    3    4 ar   
     7    3   38 1    
     8    4    5 ar   
     9    4    7 1    
    10    5    6 ar   
    11    5   39 1    
    12    6   40 1    
    13    7    8 1    
    14    7   41 1    
    15    7   42 1    
    16    8    9 1    
    17    9   10 2    
    18    9   11 am   BACKBONE|DICT|INTERRES
    19   11   22 1    
    20   11   12 1    
    21   12   13 1    
    22   12   43 1    
    23   12   44 1    
    24   13   14 2    
    25   13   20 1    
    26   14   15 1    
    27   14   45 1    
    28   15   19 1    
    29   15   16 2    
    30   16   17 1    
    31   16   46 1    
    32   17   18 2    
    33   17   47 1    
    34   18   19 1    
    35   18   48 1    
    36   20   27 1    
    37   20   21 2    
    38   21   22 1    
    39   21   23 1    
    40   22   49 1    
    41   22   50 1    
    42   23   24 1    
    43   23   25 1    
    44   23   31 1    
    45   25   26 2    
    46   25   29 1    
    47   26   27 1    
    48   26   28 1    
    49   28   51 1    
    50   28   52 1    
    51   29   30 3    
    52   31   35 1    
    53   31   32 2    
    54   32   33 1    
    55   32   53 1    
    56   33   34 2    
    57   33   54 1    
    58   34   35 1    
    59   34   55 1    
@<TRIPOS>SUBSTRUCTURE
     1 UNK         1 GROUP             0       ****    0 ROOT    
