@<TRIPOS>MOLECULE
ZINC40455824_6155
37   39    1
SMALL
USER_CHARGES


@<TRIPOS>ATOM
      1 C1          0.6065   52.7693   30.6885 C.ar      1 UNK         0.0000 
      2 C2         -0.2263   51.9659   29.9122 C.ar      1 UNK         0.0000 
      3 C3          0.0996   51.8002   28.5695 C.ar      1 UNK         0.0000 
      4 N4          1.1941   52.3840   28.0247 N.ar      1 UNK         0.0000 
      5 C5          1.9739   53.1329   28.8570 C.ar      1 UNK         0.0000 
      6 N6          1.7231   53.3458   30.1798 N.ar      1 UNK         0.0000 
      7 N7          3.1571   53.6222   28.3218 N.pl3     1 UNK         0.0000 
      8 C8          4.2222   54.2371   29.1363 C.3       1 UNK         0.0000 
      9 C9          5.6001   54.0145   28.4817 C.3       1 UNK         0.0000 
     10 C10         5.6571   54.5395   27.0400 C.3       1 UNK         0.0000 
     11 H11         5.5561   55.6249   27.0465 H         1 UNK         0.0000 
     12 C12         6.9651   54.1388   26.3472 C.3       1 UNK         0.0000 
     13 C13         7.0173   54.6197   24.8819 C.3       1 UNK         0.0000 
     14 C14         5.7820   54.1907   24.0646 C.3       1 UNK         0.0000 
     15 C15         4.4713   54.4967   24.8093 C.3       1 UNK         0.0000 
     16 C16         4.4771   53.9539   26.2463 C.3       1 UNK         0.0000 
     17 H17         4.6321   52.8828   26.2345 H         1 UNK         0.0000 
     18 C18         3.1606   54.2340   26.9842 C.3       1 UNK         0.0000 
     19 N19        -1.2956   51.2967   30.4817 N.pl3     1 UNK         0.0000 
     20 H20         0.4120   52.9183   31.7414 H         1 UNK         0.0000 
     21 H21        -0.4953   51.1713   27.9220 H         1 UNK         0.0000 
     22 H22         4.0101   55.2973   29.2787 H         1 UNK         0.0000 
     23 H23         4.2515   53.7757   30.1238 H         1 UNK         0.0000 
     24 H24         6.3995   54.4590   29.0738 H         1 UNK         0.0000 
     25 H25         5.8085   52.9428   28.5041 H         1 UNK         0.0000 
     26 H26         7.8166   54.4967   26.9246 H         1 UNK         0.0000 
     27 H27         7.0699   53.0532   26.3715 H         1 UNK         0.0000 
     28 H28         7.9044   54.2029   24.4092 H         1 UNK         0.0000 
     29 H29         7.1191   55.7056   24.8522 H         1 UNK         0.0000 
     30 H30         5.8375   53.1252   23.8474 H         1 UNK         0.0000 
     31 H31         5.7859   54.6908   23.0953 H         1 UNK         0.0000 
     32 H32         3.6135   54.1134   24.2549 H         1 UNK         0.0000 
     33 H33         4.3224   55.5697   24.8700 H         1 UNK         0.0000 
     34 H34         2.3655   53.8052   26.3735 H         1 UNK         0.0000 
     35 H35         2.9387   55.2968   27.0366 H         1 UNK         0.0000 
     36 H36        -1.6047   50.4153   30.0727 H         1 UNK         0.0000 
     37 H37        -1.4234   51.3942   31.4982 H         1 UNK         0.0000 
@<TRIPOS>BOND
     1    1    6 ar   
     2    1    2 ar   
     3    1   20 1    
     4    2    3 ar   
     5    2   19 1    
     6    3    4 ar   
     7    3   21 1    
     8    4    5 ar   
     9    5    6 ar   
    10    5    7 1    
    11    7   18 1    
    12    7    8 1    
    13    8    9 1    
    14    8   22 1    
    15    8   23 1    
    16    9   10 1    
    17    9   24 1    
    18    9   25 1    
    19   10   11 1    
    20   10   16 1    
    21   10   12 1    
    22   12   13 1    
    23   12   26 1    
    24   12   27 1    
    25   13   14 1    
    26   13   28 1    
    27   13   29 1    
    28   14   15 1    
    29   14   30 1    
    30   14   31 1    
    31   15   16 1    
    32   15   32 1    
    33   15   33 1    
    34   16   17 1    
    35   16   18 1    
    36   18   34 1    
    37   18   35 1    
    38   19   36 1    
    39   19   37 1    
@<TRIPOS>SUBSTRUCTURE
     1 UNK         1 GROUP             0       ****    0 ROOT    
