@<TRIPOS>MOLECULE
ZINC00865796_5167
50   53    1
SMALL
USER_CHARGES


@<TRIPOS>ATOM
      1 C1          2.7750   52.6274   30.8766 C.3       1 UNK         0.0000 
      2 O2          3.8702   53.4037   30.3944 O.3       1 UNK         0.0000 
      3 C3          3.9579   53.6669   29.0400 C.ar      1 UNK         0.0000 
      4 C4          5.1366   54.2477   28.5780 C.ar      1 UNK         0.0000 
      5 C5          5.3292   54.4947   27.2207 C.ar      1 UNK         0.0000 
      6 C6          4.3284   54.1721   26.2910 C.ar      1 UNK         0.0000 
      7 C7          3.1131   53.6291   26.7452 C.ar      1 UNK         0.0000 
      8 C8          2.9436   53.3816   28.1172 C.ar      1 UNK         0.0000 
      9 O9          2.1355   53.3513   25.8044 O.3       1 UNK         0.0000 
     10 C10         0.9475   52.6727   26.1978 C.3       1 UNK         0.0000 
     11 N11         4.4678   54.3399   24.8952 N.am      1 UNK         0.0000 
     12 C12         5.5799   54.4965   24.1439 C.2       1 UNK         0.0000 
     13 O13         6.7069   54.6905   24.6001 O.2       1 UNK         0.0000 
     14 C14         5.3541   54.4253   22.7056 C.ar      1 UNK         0.0000 
     15 C15         4.2591   53.8175   22.0322 C.ar      1 UNK         0.0000 
     16 C16         4.5454   53.9332   20.6884 C.ar      1 UNK         0.0000 
     17 N17         5.7604   54.5815   20.5999 N.pl3     1 UNK         0.0000 
     18 N18         6.2230   54.8964   21.8224 N.2       1 UNK         0.0000 
     19 C19         6.5002   54.8864   19.3542 C.3       1 UNK         0.0000 
     20 H20         7.5113   54.4958   19.4780 H         1 UNK         0.0000 
     21 C21         5.8010   54.1190   18.1949 C.3       1 UNK         0.0000 
     22 C22         4.2601   54.1506   18.3178 C.3       1 UNK         0.0000 
     23 H23         3.9141   55.1793   18.4285 H         1 UNK         0.0000 
     24 N24         3.9040   53.4657   19.5585 N.pl3     1 UNK         0.0000 
     25 C25         3.5599   53.5726   17.1060 C.2       1 UNK         0.0000 
     26 C26         3.1025   52.2758   16.8610 C.2       1 UNK         0.0000 
     27 C27         2.5201   52.0961   15.6049 C.2       1 UNK         0.0000 
     28 C28         2.5167   53.2573   14.8543 C.2       1 UNK         0.0000 
     29 S29         3.2532   54.5699   15.7081 S.3       1 UNK         0.0000 
     30 C30         6.6458   56.3958   19.0425 C.3       1 UNK         0.0000 
     31 F31         7.4956   56.5879   18.0338 F         1 UNK         0.0000 
     32 F32         5.4957   56.9601   18.6914 F         1 UNK         0.0000 
     33 F33         7.1040   57.0820   20.0820 F         1 UNK         0.0000 
     34 Br34        2.7051   52.9492   22.7221 Br        1 UNK         0.0000 
     35 H35         2.9380   52.3721   31.9255 H         1 UNK         0.0000 
     36 H36         2.6673   51.6943   30.3233 H         1 UNK         0.0000 
     37 H37         1.8384   53.1832   30.8118 H         1 UNK         0.0000 
     38 H38         5.9215   54.4963   29.2783 H         1 UNK         0.0000 
     39 H39         6.2660   54.9373   26.9225 H         1 UNK         0.0000 
     40 H40         2.0188   52.9572   28.4684 H         1 UNK         0.0000 
     41 H41         0.3102   52.5308   25.3257 H         1 UNK         0.0000 
     42 H42         1.1694   51.6871   26.6097 H         1 UNK         0.0000 
     43 H43         0.3795   53.2477   26.9307 H         1 UNK         0.0000 
     44 H44         3.6149   54.1688   24.3800 H         1 UNK         0.0000 
     45 H45         6.1112   54.5311   17.2328 H         1 UNK         0.0000 
     46 H46         6.1538   53.0841   18.1679 H         1 UNK         0.0000 
     47 H47         2.9150   53.2656   19.6117 H         1 UNK         0.0000 
     48 H48         3.2111   51.4684   17.5727 H         1 UNK         0.0000 
     49 H49         2.1305   51.1484   15.2630 H         1 UNK         0.0000 
     50 H50         2.1346   53.3998   13.8543 H         1 UNK         0.0000 
@<TRIPOS>BOND
     1    1    2 1    
     2    1   35 1    
     3    1   36 1    
     4    1   37 1    
     5    2    3 1    
     6    3    8 ar   
     7    3    4 ar   
     8    4    5 ar   
     9    4   38 1    
    10    5    6 ar   
    11    5   39 1    
    12    6    7 ar   
    13    6   11 1    
    14    7    8 ar   
    15    7    9 1    
    16    8   40 1    
    17    9   10 1    
    18   10   41 1    
    19   10   42 1    
    20   10   43 1    
    21   11   12 am   BACKBONE|DICT|INTERRES
    22   11   44 1    
    23   12   13 2    
    24   12   14 1    
    25   14   18 ar   
    26   14   15 ar   
    27   15   16 ar   
    28   15   34 1    
    29   16   24 1    
    30   16   17 ar   
    31   17   18 ar   
    32   17   19 1    
    33   19   20 1    
    34   19   21 1    
    35   19   30 1    
    36   21   22 1    
    37   21   45 1    
    38   21   46 1    
    39   22   23 1    
    40   22   24 1    
    41   22   25 1    
    42   24   47 1    
    43   25   29 1    
    44   25   26 2    
    45   26   27 1    
    46   26   48 1    
    47   27   28 2    
    48   27   49 1    
    49   28   29 1    
    50   28   50 1    
    51   30   31 1    
    52   30   32 1    
    53   30   33 1    
@<TRIPOS>SUBSTRUCTURE
     1 UNK         1 GROUP             0       ****    0 ROOT    
