@<TRIPOS>MOLECULE
ZINC44854616_3949
53   57    1
SMALL
USER_CHARGES


@<TRIPOS>ATOM
      1 C1          2.9654   51.1923   19.9941 C.ar      1 UNK         0.0000 
      2 C2          1.7995   51.1770   20.7559 C.ar      1 UNK         0.0000 
      3 C3          1.6355   52.1001   21.7864 C.ar      1 UNK         0.0000 
      4 C4          2.6363   53.0336   22.0592 C.ar      1 UNK         0.0000 
      5 C5          3.8216   53.0549   21.3021 C.ar      1 UNK         0.0000 
      6 C6          3.9659   52.1243   20.2660 C.ar      1 UNK         0.0000 
      7 C7          4.9195   54.0142   21.5947 C.ar      1 UNK         0.0000 
      8 C8          5.5008   54.8782   20.6426 C.ar      1 UNK         0.0000 
      9 C9          5.3284   55.2575   19.2843 C.ar      1 UNK         0.0000 
     10 N10         6.2626   56.2589   19.0463 N.pl3     1 UNK         0.0000 
     11 N11         7.0753   56.4968   20.1008 N.2       1 UNK         0.0000 
     12 C12         6.5890   55.6889   21.0832 C.ar      1 UNK         0.0000 
     13 N13         7.0425   55.6814   22.3372 N.ar      1 UNK         0.0000 
     14 C14         6.3535   54.8966   23.2054 C.ar      1 UNK         0.0000 
     15 N15         5.3508   54.0413   22.8803 N.ar      1 UNK         0.0000 
     16 N16         6.7040   55.0807   24.5517 N.pl3     1 UNK         0.0000 
     17 C17         6.0492   54.3537   25.6440 C.3       1 UNK         0.0000 
     18 C18         6.7896   54.6207   26.9647 C.3       1 UNK         0.0000 
     19 C19         6.1945   53.7449   28.0814 C.3       1 UNK         0.0000 
     20 C20         4.6826   54.0107   28.2582 C.3       1 UNK         0.0000 
     21 C21         3.9025   53.9360   26.9245 C.3       1 UNK         0.0000 
     22 C22         4.5705   54.7777   25.8164 C.3       1 UNK         0.0000 
     23 C23         6.4181   57.0714   17.8972 C.ar      1 UNK         0.0000 
     24 C24         5.2922   57.6309   17.2753 C.ar      1 UNK         0.0000 
     25 C25         5.4452   58.4970   16.1922 C.ar      1 UNK         0.0000 
     26 C26         6.7195   58.8064   15.7181 C.ar      1 UNK         0.0000 
     27 C27         7.8455   58.2510   16.3270 C.ar      1 UNK         0.0000 
     28 C28         7.6975   57.3859   17.4112 C.ar      1 UNK         0.0000 
     29 F29         9.0803   58.5608   15.8739 F         1 UNK         0.0000 
     30 N30         4.3934   54.7960   18.3959 N.pl3     1 UNK         0.0000 
     31 F31         2.4312   53.9285   23.0538 F         1 UNK         0.0000 
     32 H32         3.1038   50.4806   19.1911 H         1 UNK         0.0000 
     33 H33         1.0258   50.4537   20.5452 H         1 UNK         0.0000 
     34 H34         0.7303   52.0974   22.3753 H         1 UNK         0.0000 
     35 H35         4.8680   52.1046   19.6688 H         1 UNK         0.0000 
     36 H36         7.6860   55.2916   24.6366 H         1 UNK         0.0000 
     37 H37         6.1018   53.2954   25.4092 H         1 UNK         0.0000 
     38 H38         7.8512   54.3972   26.8765 H         1 UNK         0.0000 
     39 H39         6.7062   55.6718   27.2489 H         1 UNK         0.0000 
     40 H40         6.3585   52.6911   27.8495 H         1 UNK         0.0000 
     41 H41         6.7195   53.9408   29.0160 H         1 UNK         0.0000 
     42 H42         4.2632   53.3042   28.9754 H         1 UNK         0.0000 
     43 H43         4.5453   55.0013   28.6946 H         1 UNK         0.0000 
     44 H44         3.8412   52.8968   26.5971 H         1 UNK         0.0000 
     45 H45         2.8744   54.2656   27.0770 H         1 UNK         0.0000 
     46 H46         4.5222   55.8301   26.0815 H         1 UNK         0.0000 
     47 H47         3.9928   54.6703   24.9019 H         1 UNK         0.0000 
     48 H48         4.2968   57.4354   17.6503 H         1 UNK         0.0000 
     49 H49         4.5771   58.9516   15.7350 H         1 UNK         0.0000 
     50 H50         6.8348   59.4927   14.8935 H         1 UNK         0.0000 
     51 H51         8.5825   56.9769   17.8804 H         1 UNK         0.0000 
     52 H52         3.6847   54.1331   18.6832 H         1 UNK         0.0000 
     53 H53         4.3843   55.0783   17.4265 H         1 UNK         0.0000 
@<TRIPOS>BOND
     1    1    6 ar   
     2    1    2 ar   
     3    1   32 1    
     4    2    3 ar   
     5    2   33 1    
     6    3    4 ar   
     7    3   34 1    
     8    4    5 ar   
     9    4   31 1    
    10    5    6 ar   
    11    5    7 1    
    12    6   35 1    
    13    7   15 ar   
    14    7    8 ar   
    15    8   12 ar   
    16    8    9 ar   
    17    9   10 ar   
    18    9   30 1    
    19   10   11 ar   
    20   10   23 1    
    21   11   12 ar   
    22   12   13 ar   
    23   13   14 ar   
    24   14   15 ar   
    25   14   16 1    
    26   16   17 1    
    27   16   36 1    
    28   17   22 1    
    29   17   18 1    
    30   17   37 1    
    31   18   19 1    
    32   18   38 1    
    33   18   39 1    
    34   19   20 1    
    35   19   40 1    
    36   19   41 1    
    37   20   21 1    
    38   20   42 1    
    39   20   43 1    
    40   21   22 1    
    41   21   44 1    
    42   21   45 1    
    43   22   46 1    
    44   22   47 1    
    45   23   28 ar   
    46   23   24 ar   
    47   24   25 ar   
    48   24   48 1    
    49   25   26 ar   
    50   25   49 1    
    51   26   27 ar   
    52   26   50 1    
    53   27   28 ar   
    54   27   29 1    
    55   28   51 1    
    56   30   52 1    
    57   30   53 1    
@<TRIPOS>SUBSTRUCTURE
     1 UNK         1 GROUP             0       ****    0 ROOT    
