@<TRIPOS>MOLECULE
ZINC39665829_338
80   83    1
SMALL
USER_CHARGES


@<TRIPOS>ATOM
      1 C1          9.0315   53.9277   17.3793 C.3       1 UNK         0.0000 
      2 C2          8.1213   55.1496   17.5854 C.3       1 UNK         0.0000 
      3 H3          8.3882   55.8643   16.8023 H         1 UNK         0.0000 
      4 C4          8.3243   55.8218   18.9677 C.3       1 UNK         0.0000 
      5 N5          7.8336   55.0260   20.1035 N.am      1 UNK         0.0000 
      6 C6          7.0628   55.5104   21.1032 C.2       1 UNK         0.0000 
      7 O7          6.7031   56.6891   21.0924 O.2       1 UNK         0.0000 
      8 C8          6.6788   54.5748   22.2994 C.3       1 UNK         0.0000 
      9 H9          7.4669   53.8448   22.4820 H         1 UNK         0.0000 
     10 C10         6.6943   55.4542   23.5731 C.3       1 UNK         0.0000 
     11 N11         5.7547   54.7940   24.4769 N.am      1 UNK         0.0000 
     12 C12         4.9244   53.8187   23.7992 C.3       1 UNK         0.0000 
     13 C13         5.2571   53.8809   22.2914 C.3       1 UNK         0.0000 
     14 C14         4.0732   54.6377   21.6255 C.3       1 UNK         0.0000 
     15 C15         4.2001   54.6633   20.0781 C.3       1 UNK         0.0000 
     16 N16         4.0038   53.2237   19.5974 N.4       1 UNK         0.0000 
     17 C17         5.0716   52.2915   20.1962 C.3       1 UNK         0.0000 
     18 C18         5.1404   52.4331   21.7306 C.3       1 UNK         0.0000 
     19 C19         5.8735   54.9126   25.8200 C.2       1 UNK         0.0000 
     20 O20         6.7039   55.6966   26.2855 O.2       1 UNK         0.0000 
     21 C21         4.9917   54.0513   26.7826 C.3       1 UNK         0.0000 
     22 H22         4.8766   53.0713   26.3221 H         1 UNK         0.0000 
     23 C23         5.6190   53.7820   28.2067 C.3       1 UNK         0.0000 
     24 C24         7.1036   53.3688   28.1837 C.3       1 UNK         0.0000 
     25 C25         5.4663   54.9814   29.1489 C.3       1 UNK         0.0000 
     26 O26         3.6798   54.6577   26.8249 O.3       1 UNK         0.0000 
     27 C27         2.7321   54.1790   27.7102 C.ar      1 UNK         0.0000 
     28 C28         2.4813   52.8136   27.8692 C.ar      1 UNK         0.0000 
     29 C29         1.5415   52.3711   28.7961 C.ar      1 UNK         0.0000 
     30 C30         0.8596   53.2975   29.5801 C.ar      1 UNK         0.0000 
     31 C31         1.1029   54.6614   29.4327 C.ar      1 UNK         0.0000 
     32 C32         2.0178   55.1025   28.4799 C.ar      1 UNK         0.0000 
     33 O33         6.7790   54.6985   17.3813 O.3       1 UNK         0.0000 
     34 C34         5.7722   55.5700   17.0058 C.ar      1 UNK         0.0000 
     35 C35         4.5506   54.9780   16.6861 C.ar      1 UNK         0.0000 
     36 C36         3.4605   55.7559   16.3125 C.ar      1 UNK         0.0000 
     37 C37         3.5744   57.1424   16.2314 C.ar      1 UNK         0.0000 
     38 C38         4.8028   57.7482   16.5416 C.ar      1 UNK         0.0000 
     39 C39         5.8928   56.9669   16.9226 C.ar      1 UNK         0.0000 
     40 O40         2.4445   57.8205   15.8216 O.3       1 UNK         0.0000 
     41 C41         2.5132   59.2253   15.6030 C.3       1 UNK         0.0000 
     42 H42        10.0828   54.1919   17.5090 H         1 UNK         0.0000 
     43 H43         8.7989   53.1296   18.0813 H         1 UNK         0.0000 
     44 H44         8.9144   53.5192   16.3760 H         1 UNK         0.0000 
     45 H45         7.8636   56.8099   18.9528 H         1 UNK         0.0000 
     46 H46         9.3889   56.0086   19.1278 H         1 UNK         0.0000 
     47 H47         8.1127   54.0608   20.0817 H         1 UNK         0.0000 
     48 H48         6.3046   56.4451   23.3910 H         1 UNK         0.0000 
     49 H49         7.6928   55.5118   23.9926 H         1 UNK         0.0000 
     50 H50         5.3602   52.8966   24.1517 H         1 UNK         0.0000 
     51 H51         3.8682   53.7709   24.0687 H         1 UNK         0.0000 
     52 H52         3.1300   54.1385   21.8686 H         1 UNK         0.0000 
     53 H53         3.9046   55.6062   22.0807 H         1 UNK         0.0000 
     54 H54         3.5043   55.2951   19.5507 H         1 UNK         0.0000 
     55 H55         5.1574   54.9449   19.6626 H         1 UNK         0.0000 
     56 H56         3.0807   52.9124   19.8603 H         1 UNK         0.0000 
     57 H57         4.7182   51.2968   19.9354 H         1 UNK         0.0000 
     58 H58         5.9997   52.5282   19.6734 H         1 UNK         0.0000 
     59 H59         5.9043   51.7878   22.1584 H         1 UNK         0.0000 
     60 H60         4.2059   51.9945   22.0824 H         1 UNK         0.0000 
     61 H61         5.0861   52.9474   28.6627 H         1 UNK         0.0000 
     62 H62         7.7534   54.0923   27.7058 H         1 UNK         0.0000 
     63 H63         7.4926   53.2978   29.1954 H         1 UNK         0.0000 
     64 H64         7.2476   52.4187   27.6816 H         1 UNK         0.0000 
     65 H65         5.9044   55.8253   28.6514 H         1 UNK         0.0000 
     66 H66         4.4390   55.2236   29.4056 H         1 UNK         0.0000 
     67 H67         6.0059   54.8966   30.0818 H         1 UNK         0.0000 
     68 H68         3.0206   52.0967   27.2782 H         1 UNK         0.0000 
     69 H69         1.3500   51.3121   28.9106 H         1 UNK         0.0000 
     70 H70         0.1373   52.9525   30.3098 H         1 UNK         0.0000 
     71 H71         0.5751   55.3708   30.0491 H         1 UNK         0.0000 
     72 H72         2.2000   56.1614   28.3624 H         1 UNK         0.0000 
     73 H73         4.4601   53.9017   16.7095 H         1 UNK         0.0000 
     74 H74         2.5250   55.2834   16.0526 H         1 UNK         0.0000 
     75 H75         4.9274   58.8202   16.4822 H         1 UNK         0.0000 
     76 H76         6.8220   57.4643   17.1431 H         1 UNK         0.0000 
     77 H77         1.5588   59.5772   15.2120 H         1 UNK         0.0000 
     78 H78         2.7036   59.7615   16.5278 H         1 UNK         0.0000 
     79 H79         3.2839   59.4872   14.8768 H         1 UNK         0.0000 
     80 H80         4.0523   53.1754   18.5873 H         1 UNK         0.0000 
@<TRIPOS>BOND
     1    1    2 1    
     2    1   42 1    
     3    1   43 1    
     4    1   44 1    
     5    2    3 1    
     6    2    4 1    
     7    2   33 1    
     8    4    5 1    
     9    4   45 1    
    10    4   46 1    
    11    5    6 am   BACKBONE|DICT|INTERRES
    12    5   47 1    
    13    6    7 2    
    14    6    8 1    
    15    8    9 1    
    16    8   13 1    
    17    8   10 1    
    18   10   11 1    
    19   10   48 1    
    20   10   49 1    
    21   11   12 1    
    22   11   19 am   BACKBONE|DICT|INTERRES
    23   12   13 1    
    24   12   50 1    
    25   12   51 1    
    26   13   18 1    
    27   13   14 1    
    28   14   15 1    
    29   14   52 1    
    30   14   53 1    
    31   15   16 1    
    32   15   54 1    
    33   15   55 1    
    34   16   17 1    
    35   16   56 1    
    36   16   80 1    
    37   17   18 1    
    38   17   57 1    
    39   17   58 1    
    40   18   59 1    
    41   18   60 1    
    42   19   20 2    
    43   19   21 1    
    44   21   22 1    
    45   21   23 1    
    46   21   26 1    
    47   23   24 1    
    48   23   25 1    
    49   23   61 1    
    50   24   62 1    
    51   24   63 1    
    52   24   64 1    
    53   25   65 1    
    54   25   66 1    
    55   25   67 1    
    56   26   27 1    
    57   27   32 ar   
    58   27   28 ar   
    59   28   29 ar   
    60   28   68 1    
    61   29   30 ar   
    62   29   69 1    
    63   30   31 ar   
    64   30   70 1    
    65   31   32 ar   
    66   31   71 1    
    67   32   72 1    
    68   33   34 1    
    69   34   39 ar   
    70   34   35 ar   
    71   35   36 ar   
    72   35   73 1    
    73   36   37 ar   
    74   36   74 1    
    75   37   38 ar   
    76   37   40 1    
    77   38   39 ar   
    78   38   75 1    
    79   39   76 1    
    80   40   41 1    
    81   41   77 1    
    82   41   78 1    
    83   41   79 1    
@<TRIPOS>SUBSTRUCTURE
     1 UNK         1 GROUP             0       ****    0 ROOT    
