@<TRIPOS>MOLECULE
ZINC13977395_3712
49   50    1
SMALL
USER_CHARGES


@<TRIPOS>ATOM
      1 C1         -1.1916   51.1822   24.8214 C.3       1 UNK         0.0000 
      2 C2         -0.0523   51.3602   23.8282 C.ar      1 UNK         0.0000 
      3 C3          0.2450   52.6348   23.3447 C.ar      1 UNK         0.0000 
      4 C4          1.2886   52.8229   22.4379 C.ar      1 UNK         0.0000 
      5 C5          2.0700   51.7385   22.0132 C.ar      1 UNK         0.0000 
      6 C6          1.7702   50.4599   22.5075 C.ar      1 UNK         0.0000 
      7 C7          0.7079   50.2658   23.3963 C.ar      1 UNK         0.0000 
      8 Br8         0.3043   48.4997   24.0004 Br        1 UNK         0.0000 
      9 C9          3.2527   51.9468   21.0984 C.2       1 UNK         0.0000 
     10 O10         4.2850   51.2967   21.2730 O.2       1 UNK         0.0000 
     11 N11         3.1045   52.8901   20.1348 N.am      1 UNK         0.0000 
     12 N12         4.1957   53.2787   19.3213 N.pl3     1 UNK         0.0000 
     13 C13         5.2739   54.0020   19.7582 C.2       1 UNK         0.0000 
     14 S14         6.3547   54.5187   18.5990 S.2       1 UNK         0.0000 
     15 N15         5.3718   54.1647   21.1197 N.am      1 UNK         0.0000 
     16 C16         6.1700   54.8993   21.9314 C.2       1 UNK         0.0000 
     17 O17         7.0332   55.6965   21.5707 O.2       1 UNK         0.0000 
     18 C18         5.9047   54.6678   23.3338 C.2       1 UNK         0.0000 
     19 C19         4.6551   54.4942   23.8352 C.2       1 UNK         0.0000 
     20 C20         4.2799   54.2069   25.2330 C.ar      1 UNK         0.0000 
     21 C21         2.9350   54.0025   25.5406 C.ar      1 UNK         0.0000 
     22 C22         2.5339   53.6987   26.8383 C.ar      1 UNK         0.0000 
     23 C23         3.4775   53.5952   27.8711 C.ar      1 UNK         0.0000 
     24 C24         4.8355   53.7913   27.5745 C.ar      1 UNK         0.0000 
     25 C25         5.2221   54.0969   26.2587 C.ar      1 UNK         0.0000 
     26 O26         5.7325   53.6633   28.6147 O.3       1 UNK         0.0000 
     27 C27         7.1267   53.7324   28.3455 C.3       1 UNK         0.0000 
     28 O28         3.1441   53.3032   29.1846 O.3       1 UNK         0.0000 
     29 C29         1.7857   53.0339   29.5186 C.3       1 UNK         0.0000 
     30 H30        -1.6507   52.1281   25.1090 H         1 UNK         0.0000 
     31 H31        -1.9634   50.5365   24.4001 H         1 UNK         0.0000 
     32 H32        -0.8250   50.6981   25.7288 H         1 UNK         0.0000 
     33 H33        -0.3280   53.4866   23.6813 H         1 UNK         0.0000 
     34 H34         1.4990   53.8259   22.0914 H         1 UNK         0.0000 
     35 H35         2.3612   49.6046   22.2073 H         1 UNK         0.0000 
     36 H36         2.4204   53.6327   20.2013 H         1 UNK         0.0000 
     37 H37         4.2889   52.6772   18.5114 H         1 UNK         0.0000 
     38 H38         4.7882   53.5256   21.6312 H         1 UNK         0.0000 
     39 H39         6.7868   54.6479   23.9560 H         1 UNK         0.0000 
     40 H40         3.8148   54.5605   23.1576 H         1 UNK         0.0000 
     41 H41         2.1805   54.0809   24.7721 H         1 UNK         0.0000 
     42 H42         1.4809   53.5473   27.0195 H         1 UNK         0.0000 
     43 H43         6.2635   54.2348   26.0201 H         1 UNK         0.0000 
     44 H44         7.6825   53.6966   29.2813 H         1 UNK         0.0000 
     45 H45         7.4531   52.8942   27.7271 H         1 UNK         0.0000 
     46 H46         7.4030   54.6643   27.8505 H         1 UNK         0.0000 
     47 H47         1.7134   52.8037   30.5819 H         1 UNK         0.0000 
     48 H48         1.4046   52.1720   28.9685 H         1 UNK         0.0000 
     49 H49         1.1475   53.8963   29.3231 H         1 UNK         0.0000 
@<TRIPOS>BOND
     1    1    2 1    
     2    1   30 1    
     3    1   31 1    
     4    1   32 1    
     5    2    7 ar   
     6    2    3 ar   
     7    3    4 ar   
     8    3   33 1    
     9    4    5 ar   
    10    4   34 1    
    11    5    6 ar   
    12    5    9 1    
    13    6    7 ar   
    14    6   35 1    
    15    7    8 1    
    16    9   10 2    
    17    9   11 am   BACKBONE|DICT|INTERRES
    18   11   12 1    
    19   11   36 1    
    20   12   13 1    
    21   12   37 1    
    22   13   14 2    
    23   13   15 am   BACKBONE|DICT|INTERRES
    24   15   16 am   BACKBONE|DICT|INTERRES
    25   15   38 1    
    26   16   17 2    
    27   16   18 1    
    28   18   19 2    
    29   18   39 1    
    30   19   20 1    
    31   19   40 1    
    32   20   25 ar   
    33   20   21 ar   
    34   21   22 ar   
    35   21   41 1    
    36   22   23 ar   
    37   22   42 1    
    38   23   24 ar   
    39   23   28 1    
    40   24   25 ar   
    41   24   26 1    
    42   25   43 1    
    43   26   27 1    
    44   27   44 1    
    45   27   45 1    
    46   27   46 1    
    47   28   29 1    
    48   29   47 1    
    49   29   48 1    
    50   29   49 1    
@<TRIPOS>SUBSTRUCTURE
     1 UNK         1 GROUP             0       ****    0 ROOT    
