@<TRIPOS>MOLECULE
ZINC35397563_3293
59   62    1
SMALL
USER_CHARGES


@<TRIPOS>ATOM
      1 C1         -3.2410   46.3106   19.3377 C.ar      1 UNK         0.0000 
      2 C2         -3.7503   45.4986   20.3512 C.ar      1 UNK         0.0000 
      3 C3         -2.9622   44.4860   20.8997 C.ar      1 UNK         0.0000 
      4 C4         -1.6611   44.2841   20.4363 C.ar      1 UNK         0.0000 
      5 C5         -1.1519   45.0969   19.4260 C.ar      1 UNK         0.0000 
      6 C6         -1.9375   46.1151   18.8725 C.ar      1 UNK         0.0000 
      7 S7         -1.2853   47.1244   17.5353 S.o2      1 UNK         0.0000 
      8 O8         -1.1415   46.1665   16.4351 O.2       1 UNK         0.0000 
      9 O9         -2.2513   48.2119   17.3506 O.2       1 UNK         0.0000 
     10 N10         0.0937   47.5427   18.1585 N.2       1 UNK         0.0000 
     11 C11         0.2843   48.4937   19.1277 C.ar      1 UNK         0.0000 
     12 C12        -0.6175   49.5008   19.5288 C.ar      1 UNK         0.0000 
     13 C13        -0.3245   50.3749   20.5926 C.ar      1 UNK         0.0000 
     14 C14         0.9276   50.2324   21.2421 C.ar      1 UNK         0.0000 
     15 N15         1.7748   49.2746   20.8157 N.pl3     1 UNK         0.0000 
     16 C16         1.5045   48.4356   19.8035 C.ar      1 UNK         0.0000 
     17 N17         1.4009   51.0698   22.2922 N.pl3     1 UNK         0.0000 
     18 C18         1.7796   52.4762   22.0552 C.3       1 UNK         0.0000 
     19 C19         1.1046   53.4136   23.0705 C.3       1 UNK         0.0000 
     20 C20         1.3027   53.0422   24.5510 C.3       1 UNK         0.0000 
     21 C21         0.8824   51.5591   24.7161 C.3       1 UNK         0.0000 
     22 C22         1.5043   50.5779   23.6819 C.3       1 UNK         0.0000 
     23 N23         2.7788   53.2247   25.0291 N.4       1 UNK         0.0000 
     24 C24         2.7847   53.4288   26.5730 C.3       1 UNK         0.0000 
     25 C25         4.2329   53.4771   27.0992 C.3       1 UNK         0.0000 
     26 C26         5.0787   54.5412   26.3854 C.3       1 UNK         0.0000 
     27 C27         5.0126   54.3897   24.8600 C.3       1 UNK         0.0000 
     28 C28         3.5655   54.3697   24.3391 C.3       1 UNK         0.0000 
     29 C29        -1.3437   51.4049   20.9886 C.2       1 UNK         0.0000 
     30 O30        -1.5407   51.5913   22.2107 O.co2     1 UNK         0.0000 
     31 O31        -1.9555   52.0124   20.0809 O.co2     1 UNK         0.0000 
     32 F32        -0.8948   43.2968   20.9572 F         1 UNK         0.0000 
     33 F33        -3.4653   43.6956   21.8749 F         1 UNK         0.0000 
     34 H34        -3.8642   47.0874   18.9156 H         1 UNK         0.0000 
     35 H35        -4.7605   45.6507   20.7090 H         1 UNK         0.0000 
     36 H36        -0.1495   44.9350   19.0595 H         1 UNK         0.0000 
     37 H37        -1.5678   49.6113   19.0322 H         1 UNK         0.0000 
     38 H38         2.2838   47.7224   19.5670 H         1 UNK         0.0000 
     39 H39         2.8670   52.5338   22.0323 H         1 UNK         0.0000 
     40 H40         1.4393   52.7491   21.0534 H         1 UNK         0.0000 
     41 H41         1.3866   54.4438   22.8533 H         1 UNK         0.0000 
     42 H42         0.0368   53.3152   22.8830 H         1 UNK         0.0000 
     43 H43         0.6977   53.6964   25.1732 H         1 UNK         0.0000 
     44 H44        -0.2002   51.4984   24.5908 H         1 UNK         0.0000 
     45 H45         1.0988   51.1847   25.7155 H         1 UNK         0.0000 
     46 H46         0.9561   49.6349   23.7375 H         1 UNK         0.0000 
     47 H47         2.5457   50.3284   23.8710 H         1 UNK         0.0000 
     48 H48         2.2367   54.3460   26.7942 H         1 UNK         0.0000 
     49 H49         2.2680   52.5810   27.0230 H         1 UNK         0.0000 
     50 H50         4.2220   53.6799   28.1712 H         1 UNK         0.0000 
     51 H51         4.7023   52.4981   26.9913 H         1 UNK         0.0000 
     52 H52         6.1143   54.4864   26.7257 H         1 UNK         0.0000 
     53 H53         4.7207   55.5337   26.6593 H         1 UNK         0.0000 
     54 H54         5.5224   53.4731   24.5566 H         1 UNK         0.0000 
     55 H55         5.5618   55.2036   24.3854 H         1 UNK         0.0000 
     56 H56         3.5996   54.1729   23.2697 H         1 UNK         0.0000 
     57 H57         3.0228   55.2964   24.5257 H         1 UNK         0.0000 
     58 H58         2.6767   49.2003   21.2669 H         1 UNK         0.0000 
     59 H59         3.2600   52.3577   24.8343 H         1 UNK         0.0000 
@<TRIPOS>BOND
     1    1    6 ar   
     2    1    2 ar   
     3    1   34 1    
     4    2    3 ar   
     5    2   35 1    
     6    3    4 ar   
     7    3   33 1    
     8    4    5 ar   
     9    4   32 1    
    10    5    6 ar   
    11    5   36 1    
    12    6    7 1    
    13    7    8 2    
    14    7    9 2    
    15    7   10 1    
    16   10   11 1    
    17   11   16 ar   
    18   11   12 ar   
    19   12   13 ar   
    20   12   37 1    
    21   13   14 ar   
    22   13   29 1    
    23   14   15 ar   
    24   14   17 1    
    25   15   16 ar   
    26   15   58 1    
    27   16   38 1    
    28   17   22 1    
    29   17   18 1    
    30   18   19 1    
    31   18   39 1    
    32   18   40 1    
    33   19   20 1    
    34   19   41 1    
    35   19   42 1    
    36   20   21 1    
    37   20   23 1    
    38   20   43 1    
    39   21   22 1    
    40   21   44 1    
    41   21   45 1    
    42   22   46 1    
    43   22   47 1    
    44   23   28 1    
    45   23   24 1    
    46   23   59 1    
    47   24   25 1    
    48   24   48 1    
    49   24   49 1    
    50   25   26 1    
    51   25   50 1    
    52   25   51 1    
    53   26   27 1    
    54   26   52 1    
    55   26   53 1    
    56   27   28 1    
    57   27   54 1    
    58   27   55 1    
    59   28   56 1    
    60   28   57 1    
    61   29   30 2    
    62   29   31 1    
@<TRIPOS>SUBSTRUCTURE
     1 UNK         1 GROUP             0       ****    0 ROOT    
