@<TRIPOS>MOLECULE
ZINC40369114_1840
32   33    1
SMALL
USER_CHARGES


@<TRIPOS>ATOM
      1 C1         -0.6173   51.7002   26.3413 C.ar      1 UNK         0.0000 
      2 C2         -0.6758   52.0093   27.6971 C.ar      1 UNK         0.0000 
      3 C3          0.3467   52.7336   28.3455 C.ar      1 UNK         0.0000 
      4 C4          1.4569   53.1062   27.5539 C.ar      1 UNK         0.0000 
      5 C5          1.5029   52.8497   26.1789 C.ar      1 UNK         0.0000 
      6 C6          0.4648   52.1262   25.5809 C.ar      1 UNK         0.0000 
      7 N7          2.6157   53.2977   25.4426 N.am      1 UNK         0.0000 
      8 C8          2.5831   53.8048   24.1877 C.2       1 UNK         0.0000 
      9 O9          1.5360   54.0229   23.5699 O.2       1 UNK         0.0000 
     10 C10         3.9160   54.0968   23.5329 C.ar      1 UNK         0.0000 
     11 C11         5.0710   54.3863   24.2809 C.ar      1 UNK         0.0000 
     12 C12         6.2638   54.7190   23.6358 C.ar      1 UNK         0.0000 
     13 C13         6.3042   54.7767   22.2459 C.ar      1 UNK         0.0000 
     14 C14         5.1788   54.4596   21.4928 C.ar      1 UNK         0.0000 
     15 C15         3.9919   54.1163   22.1321 C.ar      1 UNK         0.0000 
     16 Br16        7.9048   55.2986   21.3576 Br        1 UNK         0.0000 
     17 C17         0.2510   53.0516   29.8148 C.2       1 UNK         0.0000 
     18 N18         0.7561   54.0609   30.4207 N.2       1 UNK         0.0000 
     19 O19         1.2704   55.1024   29.6192 O.3       1 UNK         0.0000 
     20 N20        -0.4850   52.0966   30.4816 N.pl3     1 UNK         0.0000 
     21 H21        -1.4123   51.1334   25.8819 H         1 UNK         0.0000 
     22 H22        -1.5493   51.6702   28.2356 H         1 UNK         0.0000 
     23 H23         2.3085   53.5990   28.0000 H         1 UNK         0.0000 
     24 H24         0.4912   51.8788   24.5293 H         1 UNK         0.0000 
     25 H25         3.5098   53.2401   25.9036 H         1 UNK         0.0000 
     26 H26         5.0549   54.3836   25.3616 H         1 UNK         0.0000 
     27 H27         7.1478   54.9580   24.2085 H         1 UNK         0.0000 
     28 H28         5.2168   54.4955   20.4131 H         1 UNK         0.0000 
     29 H29         3.1229   53.9012   21.5257 H         1 UNK         0.0000 
     30 H30         1.0346   54.8256   28.7308 H         1 UNK         0.0000 
     31 H31        -0.6774   52.1672   31.4796 H         1 UNK         0.0000 
     32 H32        -0.7975   51.2590   30.0110 H         1 UNK         0.0000 
@<TRIPOS>BOND
     1    1    6 ar   
     2    1    2 ar   
     3    1   21 1    
     4    2    3 ar   
     5    2   22 1    
     6    3    4 ar   
     7    3   17 1    
     8    4    5 ar   
     9    4   23 1    
    10    5    6 ar   
    11    5    7 1    
    12    6   24 1    
    13    7    8 am   BACKBONE|DICT|INTERRES
    14    7   25 1    
    15    8    9 2    
    16    8   10 1    
    17   10   15 ar   
    18   10   11 ar   
    19   11   12 ar   
    20   11   26 1    
    21   12   13 ar   
    22   12   27 1    
    23   13   14 ar   
    24   13   16 1    
    25   14   15 ar   
    26   14   28 1    
    27   15   29 1    
    28   17   18 2    
    29   17   20 1    
    30   18   19 1    
    31   19   30 1    
    32   20   31 1    
    33   20   32 1    
@<TRIPOS>SUBSTRUCTURE
     1 UNK         1 GROUP             0       ****    0 ROOT    
