@<TRIPOS>MOLECULE
ZINC39684892_1294
66   69    1
SMALL
USER_CHARGES


@<TRIPOS>ATOM
      1 C1          3.3070   52.3554   30.8788 C.3       1 UNK         0.0000 
      2 C2          3.9273   53.1906   29.7447 C.3       1 UNK         0.0000 
      3 C3          3.2440   53.0780   28.3436 C.3       1 UNK         0.0000 
      4 H4          3.3417   52.0282   28.0810 H         1 UNK         0.0000 
      5 C5          3.9957   53.8202   27.2040 C.ar      1 UNK         0.0000 
      6 C6          3.3970   53.9870   25.9442 C.ar      1 UNK         0.0000 
      7 C7          4.1181   54.4994   24.8702 C.ar      1 UNK         0.0000 
      8 C8          5.4417   54.8905   25.0477 C.ar      1 UNK         0.0000 
      9 C9          6.0505   54.7574   26.2893 C.ar      1 UNK         0.0000 
     10 C10         5.3365   54.2196   27.3554 C.ar      1 UNK         0.0000 
     11 C11         1.7214   53.4082   28.4234 C.2       1 UNK         0.0000 
     12 O12         1.3715   54.4131   29.0464 O.2       1 UNK         0.0000 
     13 N13         0.8136   52.5713   27.8531 N.am      1 UNK         0.0000 
     14 C14        -0.6229   52.7003   28.0780 C.3       1 UNK         0.0000 
     15 C15        -1.1559   51.3503   27.5760 C.3       1 UNK         0.0000 
     16 H16        -1.0130   50.6209   28.3758 H         1 UNK         0.0000 
     17 C17        -0.2469   50.9897   26.3761 C.3       1 UNK         0.0000 
     18 C18         1.1156   51.4514   26.9555 C.3       1 UNK         0.0000 
     19 C19        -0.5914   51.7556   25.0580 C.3       1 UNK         0.0000 
     20 C20         0.4229   51.4712   23.9275 C.3       1 UNK         0.0000 
     21 N21         0.4359   49.9488   23.6559 N.4       1 UNK         0.0000 
     22 C22         0.6562   49.0728   24.9100 C.3       1 UNK         0.0000 
     23 C23        -0.3381   49.4886   26.0041 C.3       1 UNK         0.0000 
     24 C24        -2.6713   51.4468   27.2818 C.2       1 UNK         0.0000 
     25 O25        -3.1458   52.3905   26.6467 O.2       1 UNK         0.0000 
     26 N26        -3.4259   50.4964   27.8535 N.am      1 UNK         0.0000 
     27 C27        -4.8879   50.4250   27.8323 C.3       1 UNK         0.0000 
     28 C28        -5.5583   50.8747   29.1297 C.ar      1 UNK         0.0000 
     29 C29        -5.0554   50.4681   30.3714 C.ar      1 UNK         0.0000 
     30 C30        -5.6956   50.8579   31.5460 C.ar      1 UNK         0.0000 
     31 C31        -6.8371   51.6595   31.4824 C.ar      1 UNK         0.0000 
     32 C32        -7.3316   52.0823   30.2475 C.ar      1 UNK         0.0000 
     33 C33        -6.6912   51.6923   29.0743 C.ar      1 UNK         0.0000 
     34 C34        -7.5127   52.0588   32.7085 C.1       1 UNK         0.0000 
     35 N35        -8.0499   52.3801   33.6809 N.1       1 UNK         0.0000 
     36 H36         3.8579   52.4969   31.8097 H         1 UNK         0.0000 
     37 H37         2.2646   52.6116   31.0717 H         1 UNK         0.0000 
     38 H38         3.3581   51.2978   30.6317 H         1 UNK         0.0000 
     39 H39         4.9528   52.8293   29.6663 H         1 UNK         0.0000 
     40 H40         3.9824   54.2382   30.0510 H         1 UNK         0.0000 
     41 H41         2.3702   53.7047   25.7699 H         1 UNK         0.0000 
     42 H42         3.6481   54.6094   23.9053 H         1 UNK         0.0000 
     43 H43         5.9992   55.2977   24.2159 H         1 UNK         0.0000 
     44 H44         7.0798   55.0530   26.4249 H         1 UNK         0.0000 
     45 H45         5.8650   54.1189   28.2889 H         1 UNK         0.0000 
     46 H46        -0.9773   53.5160   27.4489 H         1 UNK         0.0000 
     47 H47        -0.8911   52.8732   29.1220 H         1 UNK         0.0000 
     48 H48         1.5081   50.6381   27.5683 H         1 UNK         0.0000 
     49 H49         1.8480   51.6972   26.1945 H         1 UNK         0.0000 
     50 H50        -1.6023   51.5290   24.7147 H         1 UNK         0.0000 
     51 H51        -0.5874   52.8309   25.2411 H         1 UNK         0.0000 
     52 H52         0.1342   51.9435   22.9863 H         1 UNK         0.0000 
     53 H53         1.4495   51.7594   24.1574 H         1 UNK         0.0000 
     54 H54        -0.4512   49.6929   23.2432 H         1 UNK         0.0000 
     55 H55         0.5212   48.0340   24.6024 H         1 UNK         0.0000 
     56 H56         1.6861   49.2072   25.2123 H         1 UNK         0.0000 
     57 H57        -0.0955   48.8897   26.8816 H         1 UNK         0.0000 
     58 H58        -1.3587   49.2015   25.7481 H         1 UNK         0.0000 
     59 H59        -2.9418   49.7443   28.3365 H         1 UNK         0.0000 
     60 H60        -5.1714   49.3869   27.6515 H         1 UNK         0.0000 
     61 H61        -5.2905   50.9971   26.9929 H         1 UNK         0.0000 
     62 H62        -4.1725   49.8450   30.4313 H         1 UNK         0.0000 
     63 H63        -5.2903   50.5350   32.4963 H         1 UNK         0.0000 
     64 H64        -8.2145   52.7030   30.1871 H         1 UNK         0.0000 
     65 H65        -7.0898   52.0145   28.1234 H         1 UNK         0.0000 
     66 H66         1.1452   49.7307   22.9687 H         1 UNK         0.0000 
@<TRIPOS>BOND
     1    1    2 1    
     2    1   36 1    
     3    1   37 1    
     4    1   38 1    
     5    2    3 1    
     6    2   39 1    
     7    2   40 1    
     8    3    4 1    
     9    3    5 1    
    10    3   11 1    
    11    5   10 ar   
    12    5    6 ar   
    13    6    7 ar   
    14    6   41 1    
    15    7    8 ar   
    16    7   42 1    
    17    8    9 ar   
    18    8   43 1    
    19    9   10 ar   
    20    9   44 1    
    21   10   45 1    
    22   11   12 2    
    23   11   13 am   BACKBONE|DICT|INTERRES
    24   13   18 1    
    25   13   14 1    
    26   14   15 1    
    27   14   46 1    
    28   14   47 1    
    29   15   16 1    
    30   15   17 1    
    31   15   24 1    
    32   17   23 1    
    33   17   18 1    
    34   17   19 1    
    35   18   48 1    
    36   18   49 1    
    37   19   20 1    
    38   19   50 1    
    39   19   51 1    
    40   20   21 1    
    41   20   52 1    
    42   20   53 1    
    43   21   22 1    
    44   21   54 1    
    45   21   66 1    
    46   22   23 1    
    47   22   55 1    
    48   22   56 1    
    49   23   57 1    
    50   23   58 1    
    51   24   25 2    
    52   24   26 am   BACKBONE|DICT|INTERRES
    53   26   27 1    
    54   26   59 1    
    55   27   28 1    
    56   27   60 1    
    57   27   61 1    
    58   28   33 ar   
    59   28   29 ar   
    60   29   30 ar   
    61   29   62 1    
    62   30   31 ar   
    63   30   63 1    
    64   31   32 ar   
    65   31   34 1    
    66   32   33 ar   
    67   32   64 1    
    68   33   65 1    
    69   34   35 3    
@<TRIPOS>SUBSTRUCTURE
     1 UNK         1 GROUP             0       ****    0 ROOT    
