@<TRIPOS>MOLECULE
ZINC39733495_3329
62   66    1
SMALL
USER_CHARGES


@<TRIPOS>ATOM
      1 C1          0.8896   52.6239   32.0636 C.3       1 UNK         0.0000 
      2 C2          0.4003   53.4076   30.8387 C.3       1 UNK         0.0000 
      3 O3          1.0011   52.9419   29.6339 O.3       1 UNK         0.0000 
      4 C4          2.2071   53.4108   29.2274 C.2       1 UNK         0.0000 
      5 O5          2.8958   54.2207   29.8543 O.2       1 UNK         0.0000 
      6 C6          2.6311   52.8365   27.8499 C.3       1 UNK         0.0000 
      7 H7          2.7051   51.7585   27.9897 H         1 UNK         0.0000 
      8 C8          1.5677   53.1457   26.7708 C.3       1 UNK         0.0000 
      9 H9          1.0993   54.1006   27.0077 H         1 UNK         0.0000 
     10 S10         2.4317   53.5570   25.2334 S.3       1 UNK         0.0000 
     11 C11         3.9918   53.7137   26.0429 C.2       1 UNK         0.0000 
     12 C12         3.9943   53.2989   27.3261 C.2       1 UNK         0.0000 
     13 C13         5.2488   53.1884   28.1781 C.3       1 UNK         0.0000 
     14 C14         6.0516   54.4844   28.2983 C.3       1 UNK         0.0000 
     15 C15         6.8423   54.8712   27.0341 C.3       1 UNK         0.0000 
     16 C16         6.0105   55.2747   25.8045 C.3       1 UNK         0.0000 
     17 C17         5.1802   54.1444   25.1961 C.3       1 UNK         0.0000 
     18 N18         0.5517   52.0803   26.7255 N.am      1 UNK         0.0000 
     19 C19        -0.3557   51.8562   25.7560 C.2       1 UNK         0.0000 
     20 O20        -0.3549   52.4904   24.7022 O.2       1 UNK         0.0000 
     21 C21        -1.4181   50.7571   26.0284 C.3       1 UNK         0.0000 
     22 H22        -0.8533   49.8311   26.1437 H         1 UNK         0.0000 
     23 C23        -2.1485   50.9788   27.3760 C.3       1 UNK         0.0000 
     24 S24        -2.5607   50.4261   24.6176 S.3       1 UNK         0.0000 
     25 C25        -3.3975   51.9796   24.5386 C.ar      1 UNK         0.0000 
     26 N26        -3.0220   52.9774   23.7689 N.2       1 UNK         0.0000 
     27 N27        -3.7989   54.0936   24.0828 N.2       1 UNK         0.0000 
     28 C28        -4.6377   53.7070   25.0111 C.ar      1 UNK         0.0000 
     29 N29        -4.4963   52.3542   25.2778 N.pl3     1 UNK         0.0000 
     30 C30        -5.3583   51.7159   26.1942 C.ar      1 UNK         0.0000 
     31 C31        -6.2583   52.4939   26.8459 C.ar      1 UNK         0.0000 
     32 C32        -6.3458   53.9393   26.6080 C.ar      1 UNK         0.0000 
     33 O33        -7.1685   54.5549   27.2821 O.2       1 UNK         0.0000 
     34 N34        -5.5409   54.4693   25.6940 N.2       1 UNK         0.0000 
     35 C35        -7.1150   51.6338   27.7559 C.3       1 UNK         0.0000 
     36 C36        -6.4024   50.2750   27.7288 C.3       1 UNK         0.0000 
     37 C37        -5.5308   50.2422   26.4747 C.3       1 UNK         0.0000 
     38 H38         0.5776   53.1196   32.9825 H         1 UNK         0.0000 
     39 H39         0.4512   51.6301   32.0808 H         1 UNK         0.0000 
     40 H40         1.9741   52.5109   32.0828 H         1 UNK         0.0000 
     41 H41         0.5734   54.4775   30.9717 H         1 UNK         0.0000 
     42 H42        -0.6775   53.2842   30.7490 H         1 UNK         0.0000 
     43 H43         5.8911   52.4124   27.7732 H         1 UNK         0.0000 
     44 H44         4.9706   52.8446   29.1726 H         1 UNK         0.0000 
     45 H45         5.3927   55.2957   28.6039 H         1 UNK         0.0000 
     46 H46         6.7526   54.3524   29.1184 H         1 UNK         0.0000 
     47 H47         7.5036   55.6881   27.2814 H         1 UNK         0.0000 
     48 H48         7.4961   54.0420   26.7640 H         1 UNK         0.0000 
     49 H49         5.3318   56.0851   26.0595 H         1 UNK         0.0000 
     50 H50         6.6814   55.6705   25.0400 H         1 UNK         0.0000 
     51 H51         4.7945   54.4910   24.2353 H         1 UNK         0.0000 
     52 H52         5.8218   53.2961   24.9714 H         1 UNK         0.0000 
     53 H53         0.4531   51.5354   27.5680 H         1 UNK         0.0000 
     54 H54        -1.4573   51.0779   28.2135 H         1 UNK         0.0000 
     55 H55        -2.7670   51.8760   27.3611 H         1 UNK         0.0000 
     56 H56        -2.7905   50.1340   27.6218 H         1 UNK         0.0000 
     57 H57        -7.1956   52.0232   28.7723 H         1 UNK         0.0000 
     58 H58        -8.1284   51.5690   27.3578 H         1 UNK         0.0000 
     59 H59        -7.1090   49.4434   27.7586 H         1 UNK         0.0000 
     60 H60        -5.7700   50.1817   28.6119 H         1 UNK         0.0000 
     61 H61        -6.0594   49.7745   25.6434 H         1 UNK         0.0000 
     62 H62        -4.6126   49.6780   26.6242 H         1 UNK         0.0000 
@<TRIPOS>BOND
     1    1    2 1    
     2    1   38 1    
     3    1   39 1    
     4    1   40 1    
     5    2    3 1    
     6    2   41 1    
     7    2   42 1    
     8    3    4 1    
     9    4    5 2    
    10    4    6 1    
    11    6    7 1    
    12    6   12 1    
    13    6    8 1    
    14    8    9 1    
    15    8   10 1    
    16    8   18 1    
    17   10   11 1    
    18   11   17 1    
    19   11   12 2    
    20   12   13 1    
    21   13   14 1    
    22   13   43 1    
    23   13   44 1    
    24   14   15 1    
    25   14   45 1    
    26   14   46 1    
    27   15   16 1    
    28   15   47 1    
    29   15   48 1    
    30   16   17 1    
    31   16   49 1    
    32   16   50 1    
    33   17   51 1    
    34   17   52 1    
    35   18   19 am   BACKBONE|DICT|INTERRES
    36   18   53 1    
    37   19   20 2    
    38   19   21 1    
    39   21   22 1    
    40   21   23 1    
    41   21   24 1    
    42   23   54 1    
    43   23   55 1    
    44   23   56 1    
    45   24   25 1    
    46   25   29 ar   
    47   25   26 ar   
    48   26   27 ar   
    49   27   28 ar   
    50   28   34 ar   
    51   28   29 ar   
    52   29   30 ar   
    53   30   37 1    
    54   30   31 ar   
    55   31   32 ar   
    56   31   35 1    
    57   32   33 2    
    58   32   34 ar   
    59   35   36 1    
    60   35   57 1    
    61   35   58 1    
    62   36   37 1    
    63   36   59 1    
    64   36   60 1    
    65   37   61 1    
    66   37   62 1    
@<TRIPOS>SUBSTRUCTURE
     1 UNK         1 GROUP             0       ****    0 ROOT    
