@<TRIPOS>MOLECULE
ZINC39779853_2683
48   51    1
SMALL
USER_CHARGES


@<TRIPOS>ATOM
      1 C1          2.4762   55.5260   29.0616 C.3       1 UNK         0.0000 
      2 C2          3.1778   54.1961   28.7003 C.3       1 UNK         0.0000 
      3 C3          4.5154   54.4968   27.9702 C.3       1 UNK         0.0000 
      4 C4          3.5651   53.4555   30.0091 C.3       1 UNK         0.0000 
      5 C5          2.2139   53.3676   27.8129 C.ar      1 UNK         0.0000 
      6 C6          1.3561   52.4057   28.3701 C.ar      1 UNK         0.0000 
      7 C7          0.4677   51.6954   27.5701 C.ar      1 UNK         0.0000 
      8 C8          0.4113   51.9396   26.1979 C.ar      1 UNK         0.0000 
      9 C9          1.2486   52.8969   25.6297 C.ar      1 UNK         0.0000 
     10 C10         2.1422   53.6022   26.4305 C.ar      1 UNK         0.0000 
     11 C11        -0.5262   51.1674   25.3364 C.ar      1 UNK         0.0000 
     12 N12        -1.3712   51.6965   24.4844 N.2       1 UNK         0.0000 
     13 N13        -2.0726   50.6451   23.9010 N.2       1 UNK         0.0000 
     14 C14        -1.5584   49.5226   24.3486 C.ar      1 UNK         0.0000 
     15 N15        -0.6167   49.7949   25.3133 N.pl3     1 UNK         0.0000 
     16 N16         0.0937   48.8968   26.0817 N.3       1 UNK         0.0000 
     17 S17        -2.0207   47.8880   23.8373 S.3       1 UNK         0.0000 
     18 C18        -2.5903   48.1214   22.1077 C.3       1 UNK         0.0000 
     19 C19        -1.6949   49.0036   21.2364 C.2       1 UNK         0.0000 
     20 N20        -2.2753   50.0598   20.7815 N.am      1 UNK         0.0000 
     21 C21        -1.5669   50.9728   19.9947 C.2       1 UNK         0.0000 
     22 O22        -1.9411   52.0969   19.6651 O.2       1 UNK         0.0000 
     23 C23        -0.2136   50.4213   19.4484 C.3       1 UNK         0.0000 
     24 H24        -0.4552   50.0568   18.4505 H         1 UNK         0.0000 
     25 C25         0.3624   49.2903   20.2939 C.2       1 UNK         0.0000 
     26 N26        -0.3759   48.5794   21.0630 N.2       1 UNK         0.0000 
     27 C27         1.7641   49.1618   20.0913 C.2       1 UNK         0.0000 
     28 C28         2.3044   50.2573   19.5198 C.2       1 UNK         0.0000 
     29 S29         1.1450   51.5864   19.2616 S.3       1 UNK         0.0000 
     30 H30         3.1050   56.1710   29.6723 H         1 UNK         0.0000 
     31 H31         1.5545   55.3530   29.6192 H         1 UNK         0.0000 
     32 H32         2.2092   56.0955   28.1703 H         1 UNK         0.0000 
     33 H33         4.9794   53.5822   27.5971 H         1 UNK         0.0000 
     34 H34         4.3900   55.1718   27.1243 H         1 UNK         0.0000 
     35 H35         5.2388   54.9763   28.6320 H         1 UNK         0.0000 
     36 H36         4.0049   52.4793   29.7976 H         1 UNK         0.0000 
     37 H37         4.3024   54.0201   30.5815 H         1 UNK         0.0000 
     38 H38         2.7136   53.2968   30.6701 H         1 UNK         0.0000 
     39 H39         1.3485   52.1949   29.4272 H         1 UNK         0.0000 
     40 H40        -0.1826   50.9568   28.0192 H         1 UNK         0.0000 
     41 H41         1.2102   53.0920   24.5676 H         1 UNK         0.0000 
     42 H42         2.7644   54.3445   25.9565 H         1 UNK         0.0000 
     43 H43        -0.4777   48.4836   26.8187 H         1 UNK         0.0000 
     44 H44         0.6188   48.2202   25.5468 H         1 UNK         0.0000 
     45 H45        -2.6579   47.1361   21.6488 H         1 UNK         0.0000 
     46 H46        -3.6115   48.5047   22.1496 H         1 UNK         0.0000 
     47 H47         2.3549   48.3211   20.4235 H         1 UNK         0.0000 
     48 H48         3.3518   50.4031   19.2848 H         1 UNK         0.0000 
@<TRIPOS>BOND
     1    1    2 1    
     2    1   30 1    
     3    1   31 1    
     4    1   32 1    
     5    2    3 1    
     6    2    4 1    
     7    2    5 1    
     8    3   33 1    
     9    3   34 1    
    10    3   35 1    
    11    4   36 1    
    12    4   37 1    
    13    4   38 1    
    14    5   10 ar   
    15    5    6 ar   
    16    6    7 ar   
    17    6   39 1    
    18    7    8 ar   
    19    7   40 1    
    20    8    9 ar   
    21    8   11 1    
    22    9   10 ar   
    23    9   41 1    
    24   10   42 1    
    25   11   15 ar   
    26   11   12 ar   
    27   12   13 ar   
    28   13   14 ar   
    29   14   15 ar   
    30   14   17 1    
    31   15   16 1    
    32   16   43 1    
    33   16   44 1    
    34   17   18 1    
    35   18   19 1    
    36   18   45 1    
    37   18   46 1    
    38   19   26 1    
    39   19   20 2    
    40   20   21 am   BACKBONE|DICT|INTERRES
    41   21   22 2    
    42   21   23 1    
    43   23   24 1    
    44   23   29 1    
    45   23   25 1    
    46   25   26 2    
    47   25   27 1    
    48   27   28 2    
    49   27   47 1    
    50   28   29 1    
    51   28   48 1    
@<TRIPOS>SUBSTRUCTURE
     1 UNK         1 GROUP             0       ****    0 ROOT    
