ZINC52710237_1813
                    3D
 Schrodinger Suite 2024-2.
 48 50  0  0  1  0            999 V2000
    1.0527   52.7982   31.7161 C   0  0  0  0  0  0
    0.3395   53.6104   30.8426 C   0  0  0  0  0  0
    0.7272   53.6918   29.5117 C   0  0  0  0  0  0
    1.8205   52.9436   29.0549 C   0  0  0  0  0  0
    2.5443   52.1505   29.9513 C   0  0  0  0  0  0
    2.1706   52.0967   31.2882 C   0  0  0  0  0  0
    2.3130   53.0736   27.5998 C   0  0  1  0  0  0
    3.0693   52.3064   27.4409 H   0  0  0  0  0  0
    1.1870   52.7180   26.5571 C   0  0  0  0  0  0
    1.3233   53.0170   25.3678 O   0  0  0  0  0  0
    0.1333   51.9870   27.0057 N   0  0  0  0  0  0
   -1.0327   51.7492   26.3727 C   0  0  0  0  0  0
   -1.4167   52.2583   25.3211 O   0  0  0  0  0  0
   -1.8064   50.8967   27.0362 N   0  0  0  0  0  0
    2.9358   54.4302   27.4324 N   0  0  0  0  0  0
    4.0417   54.6503   28.3917 C   0  0  0  0  0  0
    5.2809   53.7523   28.1414 C   0  0  0  0  0  0
    5.8069   53.8118   26.6884 C   0  0  2  0  0  0
    6.3532   52.8965   26.4799 H   0  0  0  0  0  0
    6.7890   54.9810   26.4814 C   0  0  0  0  0  0
    7.2311   55.1229   25.0141 C   0  0  0  0  0  0
    6.0201   55.3041   24.1093 C   0  0  0  0  0  0
    5.0849   54.0970   24.2028 C   0  0  0  0  0  0
    4.6324   53.8781   25.6596 C   0  0  2  0  0  0
    4.1959   52.8967   25.6835 H   0  0  0  0  0  0
    3.5041   54.8135   26.1201 C   0  0  0  0  0  0
    0.7411   52.7322   32.7499 H   0  0  0  0  0  0
   -0.4950   54.1854   31.2058 H   0  0  0  0  0  0
    0.1916   54.3427   28.8362 H   0  0  0  0  0  0
    3.4119   51.6004   29.6188 H   0  0  0  0  0  0
    2.7319   51.5069   31.9990 H   0  0  0  0  0  0
    0.2025   51.6251   27.9428 H   0  0  0  0  0  0
   -1.4352   50.2178   27.6947 H   0  0  0  0  0  0
   -2.7382   50.7393   26.6877 H   0  0  0  0  0  0
    4.3217   55.6967   28.3434 H   0  0  0  0  0  0
    3.7080   54.5241   29.4205 H   0  0  0  0  0  0
    6.0792   53.9909   28.8463 H   0  0  0  0  0  0
    5.0425   52.7222   28.4009 H   0  0  0  0  0  0
    6.3049   55.9042   26.7847 H   0  0  0  0  0  0
    7.6310   54.8754   27.1648 H   0  0  0  0  0  0
    7.7661   54.2315   24.6927 H   0  0  0  0  0  0
    7.9034   55.9714   24.8820 H   0  0  0  0  0  0
    6.3228   55.4886   23.0774 H   0  0  0  0  0  0
    5.5045   56.1853   24.4819 H   0  0  0  0  0  0
    5.6180   53.2181   23.8412 H   0  0  0  0  0  0
    4.2244   54.2070   23.5410 H   0  0  0  0  0  0
    2.7305   54.8117   25.3579 H   0  0  0  0  0  0
    3.8374   55.8466   26.0817 H   0  0  0  0  0  0
  1  6  2  0  0  0
  1  2  1  0  0  0
  1 27  1  0  0  0
  2  3  2  0  0  0
  2 28  1  0  0  0
  3  4  1  0  0  0
  3 29  1  0  0  0
  4  5  2  0  0  0
  4  7  1  0  0  0
  5  6  1  0  0  0
  5 30  1  0  0  0
  6 31  1  0  0  0
  7  8  1  0  0  0
  7  9  1  0  0  0
  7 15  1  0  0  0
  9 10  2  0  0  0
  9 11  1  0  0  0
 11 12  1  0  0  0
 11 32  1  0  0  0
 12 13  2  0  0  0
 12 14  1  0  0  0
 14 33  1  0  0  0
 14 34  1  0  0  0
 15 26  1  0  0  0
 15 16  1  0  0  0
 16 17  1  0  0  0
 16 35  1  0  0  0
 16 36  1  0  0  0
 17 18  1  0  0  0
 17 37  1  0  0  0
 17 38  1  0  0  0
 18 19  1  0  0  0
 18 24  1  0  0  0
 18 20  1  0  0  0
 20 21  1  0  0  0
 20 39  1  0  0  0
 20 40  1  0  0  0
 21 22  1  0  0  0
 21 41  1  0  0  0
 21 42  1  0  0  0
 22 23  1  0  0  0
 22 43  1  0  0  0
 22 44  1  0  0  0
 23 24  1  0  0  0
 23 45  1  0  0  0
 23 46  1  0  0  0
 24 25  1  0  0  0
 24 26  1  0  0  0
 26 47  1  0  0  0
 26 48  1  0  0  0
M  END
> <i_i_glide_confnum>
4

> <i_i_glide_lignum>
1814

> <i_i_glide_posenum>
46

> <i_i_glide_rotatable_bonds>
5

> <i_m_Source_File_Index>
2935

> <b_m_subgroup_collapsed>
0

> <r_i_docking_score>
-5.53898

> <r_i_glide_ecoul>
-3.14742

> <r_i_glide_eff_state_penalty>
0

> <r_i_glide_einternal>
8.86389

> <r_i_glide_emodel>
-37.158

> <r_i_glide_energy>
-30.8394

> <r_i_glide_erotb>
0.747952

> <r_i_glide_esite>
-0.124173

> <r_i_glide_evdw>
-27.692

> <r_i_glide_gscore>
-5.53898

> <r_i_glide_hbond>
-0.155596

> <r_i_glide_ligand_efficiency>
-0.240825

> <r_i_glide_ligand_efficiency_ln>
-1.33937

> <r_i_glide_ligand_efficiency_sa>
-0.684874

> <r_i_glide_lipo>
-2.62153

> <r_i_glide_metal>
0

> <r_i_glide_rewards>
-1.52892

> <s_i_glide_gridfile>
wee1_glide-grid

> <s_m_Source_File>
wee1_decoys_glide_SP.sdf

> <s_m_Source_Path>
/Users/zhangxujun/Desktop

> <s_m_entry_id>
3210

> <s_m_entry_name>
wee1_decoys_glide_SP.2935

> <s_m_subgroup_title>
wee1_decoys_glide_SP

> <s_m_subgroupid>
wee1_decoys_glide_SP


$$$$
