ZINC44866120_1852
                    3D
 Schrodinger Suite 2024-2.
 28 28  0  0  1  0            999 V2000
   -1.2926   52.5622   23.9134 C   0  0  0  0  0  0
   -0.3350   51.5318   24.5694 C   0  0  2  0  0  0
   -0.2893   50.6954   23.8689 H   0  0  0  0  0  0
   -0.8422   50.9930   25.9305 C   0  0  0  0  0  0
   -1.3743   51.8349   26.7316 N   0  0  0  0  0  0
   -1.8439   51.2967   27.9527 O   0  0  0  0  0  0
   -0.6266   49.6343   26.0817 N   0  0  0  0  0  0
    1.1043   52.0970   24.6449 C   0  0  0  0  0  0
    1.8971   51.7873   23.7549 O   0  0  0  0  0  0
    1.4311   52.8969   25.6879 N   0  0  0  0  0  0
    2.7029   53.4387   25.9633 C   0  0  0  0  0  0
    3.4582   54.1282   24.9944 C   0  0  0  0  0  0
    4.7311   54.6048   25.3086 C   0  0  0  0  0  0
    5.2518   54.4330   26.5877 C   0  0  0  0  0  0
    4.4947   53.7904   27.5642 C   0  0  0  0  0  0
    3.2235   53.2968   27.2615 C   0  0  0  0  0  0
    2.2540   52.3829   28.6306 Br  0  0  0  0  0  0
    6.4881   54.8969   26.8808 F   0  0  0  0  0  0
    2.9669   54.3673   23.7557 F   0  0  0  0  0  0
   -1.3550   53.4899   24.4817 H   0  0  0  0  0  0
   -0.9627   52.8227   22.9065 H   0  0  0  0  0  0
   -2.3044   52.1637   23.8231 H   0  0  0  0  0  0
   -1.6956   50.3449   27.8720 H   0  0  0  0  0  0
   -0.8956   49.1343   26.9341 H   0  0  0  0  0  0
   -0.0728   49.1252   25.4097 H   0  0  0  0  0  0
    0.7432   52.9749   26.4249 H   0  0  0  0  0  0
    5.3153   55.1156   24.5585 H   0  0  0  0  0  0
    4.9053   53.6620   28.5546 H   0  0  0  0  0  0
  1  2  1  0  0  0
  1 20  1  0  0  0
  1 21  1  0  0  0
  1 22  1  0  0  0
  2  3  1  0  0  0
  2  4  1  0  0  0
  2  8  1  0  0  0
  4  5  2  0  0  0
  4  7  1  0  0  0
  5  6  1  0  0  0
  6 23  1  0  0  0
  7 24  1  0  0  0
  7 25  1  0  0  0
  8  9  2  0  0  0
  8 10  1  0  0  0
 10 11  1  0  0  0
 10 26  1  0  0  0
 11 16  2  0  0  0
 11 12  1  0  0  0
 12 13  2  0  0  0
 12 19  1  0  0  0
 13 14  1  0  0  0
 13 27  1  0  0  0
 14 15  2  0  0  0
 14 18  1  0  0  0
 15 16  1  0  0  0
 15 28  1  0  0  0
 16 17  1  0  0  0
M  END
> <i_i_glide_confnum>
13

> <i_i_glide_lignum>
1853

> <i_i_glide_posenum>
341

> <i_i_glide_rotatable_bonds>
5

> <i_m_Source_File_Index>
5599

> <b_m_subgroup_collapsed>
0

> <r_i_docking_score>
-5.88819

> <r_i_glide_ecoul>
-7.13027

> <r_i_glide_eff_state_penalty>
0

> <r_i_glide_einternal>
2.16724

> <r_i_glide_emodel>
-45.3325

> <r_i_glide_energy>
-31.9209

> <r_i_glide_erotb>
0.720785

> <r_i_glide_esite>
-0.270597

> <r_i_glide_evdw>
-24.7906

> <r_i_glide_gscore>
-5.88819

> <r_i_glide_hbond>
-0.297301

> <r_i_glide_ligand_efficiency>
-0.327122

> <r_i_glide_ligand_efficiency_ln>
-1.51353

> <r_i_glide_ligand_efficiency_sa>
-0.857302

> <r_i_glide_lipo>
-1.61045

> <r_i_glide_metal>
0

> <r_i_glide_rewards>
-2.12156

> <s_i_glide_gridfile>
wee1_glide-grid

> <s_m_Source_File>
wee1_decoys_glide_SP.sdf

> <s_m_Source_Path>
/Users/zhangxujun/Desktop

> <s_m_entry_id>
5874

> <s_m_entry_name>
wee1_decoys_glide_SP.5599

> <s_m_subgroup_title>
wee1_decoys_glide_SP

> <s_m_subgroupid>
wee1_decoys_glide_SP


$$$$
