@<TRIPOS>MOLECULE
ZINC34997623_4845
72   76    1
SMALL
USER_CHARGES


@<TRIPOS>ATOM
      1 C1         -2.2513   47.9664   25.6391 C.3       1 UNK         0.0000 
      2 C2         -1.8038   49.1466   24.7309 C.3       1 UNK         0.0000 
      3 C3         -0.7651   48.7551   23.6251 C.3       1 UNK         0.0000 
      4 H4         -0.8480   47.7578   23.1878 H         1 UNK         0.0000 
      5 C5         -0.5906   49.8481   22.5071 C.3       1 UNK         0.0000 
      6 C6         -0.4117   51.2188   23.1718 C.2       1 UNK         0.0000 
      7 C7         -0.4368   51.3214   24.5209 C.2       1 UNK         0.0000 
      8 C8         -0.6451   50.0180   25.3280 C.3       1 UNK         0.0000 
      9 H9         -0.6186   50.1602   26.4114 H         1 UNK         0.0000 
     10 C10         0.3181   48.9634   24.7180 C.3       1 UNK         0.0000 
     11 C11        -0.2391   52.6328   25.2594 C.3       1 UNK         0.0000 
     12 N12         1.0645   52.7333   25.9573 N.am      1 UNK         0.0000 
     13 C13         2.2266   52.6661   25.0477 C.3       1 UNK         0.0000 
     14 C14         2.3098   53.8178   24.0330 C.3       1 UNK         0.0000 
     15 N15         3.5220   53.5768   23.1009 N.4       1 UNK         0.0000 
     16 C16         3.2602   54.1708   21.7067 C.3       1 UNK         0.0000 
     17 C17         4.4471   53.8323   20.7936 C.3       1 UNK         0.0000 
     18 N18         5.6323   54.4954   21.3778 N.am      1 UNK         0.0000 
     19 C19         6.0178   53.9921   22.7181 C.3       1 UNK         0.0000 
     20 C20         4.8311   54.1456   23.7041 C.3       1 UNK         0.0000 
     21 C21         6.3245   55.5117   20.7870 C.2       1 UNK         0.0000 
     22 O22         7.2500   56.0956   21.3555 O.2       1 UNK         0.0000 
     23 N23         5.9246   55.8330   19.5337 N.am      1 UNK         0.0000 
     24 C24         6.4762   56.7812   18.6526 C.ar      1 UNK         0.0000 
     25 C25         7.8323   57.1456   18.6631 C.ar      1 UNK         0.0000 
     26 C26         8.3037   58.1180   17.7812 C.ar      1 UNK         0.0000 
     27 C27         7.4309   58.7305   16.8853 C.ar      1 UNK         0.0000 
     28 C28         6.0874   58.3583   16.8536 C.ar      1 UNK         0.0000 
     29 C29         5.6117   57.3792   17.7263 C.ar      1 UNK         0.0000 
     30 F30         4.3040   57.0275   17.6802 F         1 UNK         0.0000 
     31 C31         1.1129   52.8452   27.3189 C.2       1 UNK         0.0000 
     32 O32         0.1004   52.7761   28.0204 O.2       1 UNK         0.0000 
     33 C33         2.3881   53.0584   27.9741 C.2       1 UNK         0.0000 
     34 C34         3.4930   53.8635   27.6785 C.2       1 UNK         0.0000 
     35 C35         4.3860   53.7453   28.7431 C.2       1 UNK         0.0000 
     36 C36         3.7647   52.9405   29.6796 C.2       1 UNK         0.0000 
     37 O37         2.5399   52.5598   29.2305 O.3       1 UNK         0.0000 
     38 C38        -3.0945   49.8766   24.2635 C.3       1 UNK         0.0000 
     39 H39        -1.4187   47.4152   26.0790 H         1 UNK         0.0000 
     40 H40        -2.8439   47.2418   25.0785 H         1 UNK         0.0000 
     41 H41        -2.8594   48.3197   26.4765 H         1 UNK         0.0000 
     42 H42         0.2792   49.6183   21.8884 H         1 UNK         0.0000 
     43 H43        -1.4540   49.8582   21.8391 H         1 UNK         0.0000 
     44 H44        -0.2631   52.1009   22.5638 H         1 UNK         0.0000 
     45 H45         1.2953   49.2979   24.3669 H         1 UNK         0.0000 
     46 H46         0.5263   48.0907   25.3369 H         1 UNK         0.0000 
     47 H47        -0.3360   53.4610   24.5540 H         1 UNK         0.0000 
     48 H48        -1.0803   52.7446   25.9454 H         1 UNK         0.0000 
     49 H49         3.1643   52.5699   25.5845 H         1 UNK         0.0000 
     50 H50         2.1511   51.7309   24.4894 H         1 UNK         0.0000 
     51 H51         1.4319   53.8275   23.3885 H         1 UNK         0.0000 
     52 H52         2.4142   54.8076   24.4820 H         1 UNK         0.0000 
     53 H53         2.3588   53.6913   21.3211 H         1 UNK         0.0000 
     54 H54         3.0977   55.2419   21.8224 H         1 UNK         0.0000 
     55 H55         4.6164   52.7545   20.7564 H         1 UNK         0.0000 
     56 H56         4.2317   54.1140   19.7607 H         1 UNK         0.0000 
     57 H57         6.8874   54.5208   23.1156 H         1 UNK         0.0000 
     58 H58         6.3029   52.9411   22.6492 H         1 UNK         0.0000 
     59 H59         4.6693   55.1792   24.0158 H         1 UNK         0.0000 
     60 H60         5.0315   53.5523   24.5998 H         1 UNK         0.0000 
     61 H61         5.0940   55.3803   19.1856 H         1 UNK         0.0000 
     62 H62         8.5333   56.6800   19.3391 H         1 UNK         0.0000 
     63 H63         9.3483   58.3954   17.7982 H         1 UNK         0.0000 
     64 H64         7.7864   59.5001   16.2167 H         1 UNK         0.0000 
     65 H65         5.4099   58.8426   16.1669 H         1 UNK         0.0000 
     66 H66         3.6372   54.4643   26.7915 H         1 UNK         0.0000 
     67 H67         5.3604   54.2111   28.8295 H         1 UNK         0.0000 
     68 H68         4.0498   52.5798   30.6567 H         1 UNK         0.0000 
     69 H69        -2.9243   50.7454   23.6339 H         1 UNK         0.0000 
     70 H70        -3.7324   49.2007   23.6922 H         1 UNK         0.0000 
     71 H71        -3.6706   50.2278   25.1203 H         1 UNK         0.0000 
     72 H72         3.6324   52.5807   22.9545 H         1 UNK         0.0000 
@<TRIPOS>BOND
     1    1    2 1    
     2    1   39 1    
     3    1   40 1    
     4    1   41 1    
     5    2    8 1    
     6    2    3 1    
     7    2   38 1    
     8    3    4 1    
     9    3   10 1    
    10    3    5 1    
    11    5    6 1    
    12    5   42 1    
    13    5   43 1    
    14    6    7 2    
    15    6   44 1    
    16    7    8 1    
    17    7   11 1    
    18    8    9 1    
    19    8   10 1    
    20   10   45 1    
    21   10   46 1    
    22   11   12 1    
    23   11   47 1    
    24   11   48 1    
    25   12   13 1    
    26   12   31 am   BACKBONE|DICT|INTERRES
    27   13   14 1    
    28   13   49 1    
    29   13   50 1    
    30   14   15 1    
    31   14   51 1    
    32   14   52 1    
    33   15   20 1    
    34   15   16 1    
    35   15   72 1    
    36   16   17 1    
    37   16   53 1    
    38   16   54 1    
    39   17   18 1    
    40   17   55 1    
    41   17   56 1    
    42   18   19 1    
    43   18   21 am   BACKBONE|DICT|INTERRES
    44   19   20 1    
    45   19   57 1    
    46   19   58 1    
    47   20   59 1    
    48   20   60 1    
    49   21   22 2    
    50   21   23 am   BACKBONE|DICT|INTERRES
    51   23   24 1    
    52   23   61 1    
    53   24   29 ar   
    54   24   25 ar   
    55   25   26 ar   
    56   25   62 1    
    57   26   27 ar   
    58   26   63 1    
    59   27   28 ar   
    60   27   64 1    
    61   28   29 ar   
    62   28   65 1    
    63   29   30 1    
    64   31   32 2    
    65   31   33 1    
    66   33   37 1    
    67   33   34 2    
    68   34   35 1    
    69   34   66 1    
    70   35   36 2    
    71   35   67 1    
    72   36   37 1    
    73   36   68 1    
    74   38   69 1    
    75   38   70 1    
    76   38   71 1    
@<TRIPOS>SUBSTRUCTURE
     1 UNK         1 GROUP             0       ****    0 ROOT    
