@<TRIPOS>MOLECULE
ZINC39633784_175
75   78    1
SMALL
USER_CHARGES


@<TRIPOS>ATOM
      1 C1          4.9514   54.8996   29.2618 C.3       1 UNK         0.0000 
      2 C2          4.9675   53.5953   28.4490 C.3       1 UNK         0.0000 
      3 C3          4.0065   52.5908   29.1067 C.3       1 UNK         0.0000 
      4 C4          4.7736   53.8165   26.9073 C.3       1 UNK         0.0000 
      5 H5          5.0750   52.8837   26.4425 H         1 UNK         0.0000 
      6 C6          3.3237   54.1362   26.4036 C.2       1 UNK         0.0000 
      7 O7          2.4822   54.4967   27.2290 O.2       1 UNK         0.0000 
      8 N8          3.0036   54.0308   25.0780 N.am      1 UNK         0.0000 
      9 C9          1.7435   54.4967   24.5097 C.3       1 UNK         0.0000 
     10 C10         1.4155   53.5556   23.3307 C.3       1 UNK         0.0000 
     11 H11         0.9998   54.1463   22.5224 H         1 UNK         0.0000 
     12 C12         2.7704   52.9464   22.8776 C.3       1 UNK         0.0000 
     13 C13         3.5044   52.9695   24.2303 C.3       1 UNK         0.0000 
     14 C14         2.7041   51.4926   22.2716 C.3       1 UNK         0.0000 
     15 C15         3.7499   51.0544   21.2338 C.3       1 UNK         0.0000 
     16 N16         3.9261   52.1505   20.1784 N.4       1 UNK         0.0000 
     17 C17         4.4943   53.4084   20.8533 C.3       1 UNK         0.0000 
     18 C18         3.5214   53.9419   21.9293 C.3       1 UNK         0.0000 
     19 C19         0.3299   52.5053   23.6769 C.2       1 UNK         0.0000 
     20 O20        -0.5251   52.2001   22.8479 O.2       1 UNK         0.0000 
     21 N21         0.4544   51.8985   24.8646 N.am      1 UNK         0.0000 
     22 C22        -0.3242   50.7774   25.3847 C.3       1 UNK         0.0000 
     23 C23         0.5170   49.9873   26.4135 C.3       1 UNK         0.0000 
     24 C24         1.2718   50.8292   27.4783 C.3       1 UNK         0.0000 
     25 C25         0.4038   51.5408   28.5167 C.3       1 UNK         0.0000 
     26 C26        -0.6126   52.5155   27.9213 C.3       1 UNK         0.0000 
     27 C27        -1.8478   51.8101   27.3129 C.3       1 UNK         0.0000 
     28 C28        -1.7172   51.2219   25.8906 C.3       1 UNK         0.0000 
     29 O29         5.6692   54.8962   26.5497 O.3       1 UNK         0.0000 
     30 C30         6.3451   54.8131   25.3570 C.ar      1 UNK         0.0000 
     31 C31         6.3041   55.8757   24.4818 C.ar      1 UNK         0.0000 
     32 C32         6.7044   55.6969   23.1593 C.ar      1 UNK         0.0000 
     33 C33         7.2394   54.5188   22.7357 C.ar      1 UNK         0.0000 
     34 C34         7.5042   53.5292   23.6704 C.ar      1 UNK         0.0000 
     35 C35         7.0682   53.6966   24.9822 C.ar      1 UNK         0.0000 
     36 H36         4.0051   55.4313   29.1566 H         1 UNK         0.0000 
     37 H37         5.1005   54.7278   30.3217 H         1 UNK         0.0000 
     38 H38         5.7547   55.5598   28.9387 H         1 UNK         0.0000 
     39 H39         5.9672   53.1714   28.5606 H         1 UNK         0.0000 
     40 H40         3.0331   53.0386   29.2952 H         1 UNK         0.0000 
     41 H41         3.8511   51.7230   28.4820 H         1 UNK         0.0000 
     42 H42         4.3953   52.2428   30.0648 H         1 UNK         0.0000 
     43 H43         0.9185   54.4758   25.2031 H         1 UNK         0.0000 
     44 H44         1.8918   55.4834   24.0815 H         1 UNK         0.0000 
     45 H45         4.5890   52.8968   24.1824 H         1 UNK         0.0000 
     46 H46         3.1044   52.0968   24.7569 H         1 UNK         0.0000 
     47 H47         2.4849   50.7225   23.0133 H         1 UNK         0.0000 
     48 H48         1.8075   51.4866   21.6497 H         1 UNK         0.0000 
     49 H49         4.7341   50.8973   21.6751 H         1 UNK         0.0000 
     50 H50         3.4510   50.1509   20.6969 H         1 UNK         0.0000 
     51 H51         4.5481   51.8121   19.4454 H         1 UNK         0.0000 
     52 H52         5.4545   53.1101   21.2727 H         1 UNK         0.0000 
     53 H53         4.6729   54.1352   20.0588 H         1 UNK         0.0000 
     54 H54         2.7320   54.3080   21.2819 H         1 UNK         0.0000 
     55 H55         3.8607   54.8516   22.4271 H         1 UNK         0.0000 
     56 H56         1.2040   52.2083   25.4635 H         1 UNK         0.0000 
     57 H57        -0.5111   50.0990   24.5477 H         1 UNK         0.0000 
     58 H58        -0.0977   49.2240   26.8816 H         1 UNK         0.0000 
     59 H59         1.2377   49.3852   25.8600 H         1 UNK         0.0000 
     60 H60         1.9676   50.1795   28.0033 H         1 UNK         0.0000 
     61 H61         1.9023   51.5822   27.0050 H         1 UNK         0.0000 
     62 H62        -0.1134   50.8177   29.1457 H         1 UNK         0.0000 
     63 H63         1.0509   52.0865   29.2009 H         1 UNK         0.0000 
     64 H64        -0.8955   53.1742   28.7384 H         1 UNK         0.0000 
     65 H65        -0.1347   53.1686   27.1951 H         1 UNK         0.0000 
     66 H66        -2.1645   51.0174   27.9945 H         1 UNK         0.0000 
     67 H67        -2.6919   52.4964   27.2818 H         1 UNK         0.0000 
     68 H68        -2.1475   51.9234   25.1729 H         1 UNK         0.0000 
     69 H69        -2.3782   50.3544   25.8474 H         1 UNK         0.0000 
     70 H70         5.8610   56.8047   24.7995 H         1 UNK         0.0000 
     71 H71         6.6167   56.4966   22.4406 H         1 UNK         0.0000 
     72 H72         7.5953   54.4966   21.7179 H         1 UNK         0.0000 
     73 H73         8.0533   52.6470   23.3786 H         1 UNK         0.0000 
     74 H74         7.2141   52.9018   25.6974 H         1 UNK         0.0000 
     75 H75         3.0433   52.3561   19.7290 H         1 UNK         0.0000 
@<TRIPOS>BOND
     1    1    2 1    
     2    1   36 1    
     3    1   37 1    
     4    1   38 1    
     5    2    3 1    
     6    2    4 1    
     7    2   39 1    
     8    3   40 1    
     9    3   41 1    
    10    3   42 1    
    11    4    5 1    
    12    4    6 1    
    13    4   29 1    
    14    6    7 2    
    15    6    8 am   BACKBONE|DICT|INTERRES
    16    8   13 1    
    17    8    9 1    
    18    9   10 1    
    19    9   43 1    
    20    9   44 1    
    21   10   11 1    
    22   10   12 1    
    23   10   19 1    
    24   12   18 1    
    25   12   13 1    
    26   12   14 1    
    27   13   45 1    
    28   13   46 1    
    29   14   15 1    
    30   14   47 1    
    31   14   48 1    
    32   15   16 1    
    33   15   49 1    
    34   15   50 1    
    35   16   17 1    
    36   16   51 1    
    37   16   75 1    
    38   17   18 1    
    39   17   52 1    
    40   17   53 1    
    41   18   54 1    
    42   18   55 1    
    43   19   20 2    
    44   19   21 am   BACKBONE|DICT|INTERRES
    45   21   22 1    
    46   21   56 1    
    47   22   28 1    
    48   22   23 1    
    49   22   57 1    
    50   23   24 1    
    51   23   58 1    
    52   23   59 1    
    53   24   25 1    
    54   24   60 1    
    55   24   61 1    
    56   25   26 1    
    57   25   62 1    
    58   25   63 1    
    59   26   27 1    
    60   26   64 1    
    61   26   65 1    
    62   27   28 1    
    63   27   66 1    
    64   27   67 1    
    65   28   68 1    
    66   28   69 1    
    67   29   30 1    
    68   30   35 ar   
    69   30   31 ar   
    70   31   32 ar   
    71   31   70 1    
    72   32   33 ar   
    73   32   71 1    
    74   33   34 ar   
    75   33   72 1    
    76   34   35 ar   
    77   34   73 1    
    78   35   74 1    
@<TRIPOS>SUBSTRUCTURE
     1 UNK         1 GROUP             0       ****    0 ROOT    
