@<TRIPOS>MOLECULE
ZINC14742864_3716
56   59    1
SMALL
USER_CHARGES


@<TRIPOS>ATOM
      1 C1          0.3226   50.9813   18.3502 C.3       1 UNK         0.0000 
      2 N2         -0.7971   50.3142   19.0446 N.pl3     1 UNK         0.0000 
      3 S3         -1.7739   51.1767   20.2288 S.o2      1 UNK         0.0000 
      4 O4         -2.8452   50.2665   20.6464 O.2       1 UNK         0.0000 
      5 O5         -2.0952   52.4964   19.6761 O.2       1 UNK         0.0000 
      6 C6         -0.7028   51.4353   21.6486 C.ar      1 UNK         0.0000 
      7 C7          0.4969   52.1491   21.5203 C.ar      1 UNK         0.0000 
      8 C8          1.3458   52.3012   22.6265 C.ar      1 UNK         0.0000 
      9 C9          0.9955   51.6859   23.8307 C.ar      1 UNK         0.0000 
     10 C10        -0.2396   51.0645   24.0091 C.ar      1 UNK         0.0000 
     11 C11        -1.0788   50.9321   22.9011 C.ar      1 UNK         0.0000 
     12 N12        -0.6805   50.5728   25.2519 N.pl3     1 UNK         0.0000 
     13 C13         0.1906   50.4036   26.4188 C.3       1 UNK         0.0000 
     14 C14         0.4454   51.6186   27.3096 C.2       1 UNK         0.0000 
     15 C15        -0.0331   51.8269   28.5944 C.2       1 UNK         0.0000 
     16 C16         0.4193   53.0199   29.2179 C.ar      1 UNK         0.0000 
     17 C17         0.1593   53.5205   30.5021 C.ar      1 UNK         0.0000 
     18 C18         0.7040   54.7463   30.8817 C.ar      1 UNK         0.0000 
     19 C19         1.5045   55.4845   30.0187 C.ar      1 UNK         0.0000 
     20 C20         1.8067   55.0080   28.7479 C.ar      1 UNK         0.0000 
     21 C21         1.2617   53.7751   28.3619 C.ar      1 UNK         0.0000 
     22 S22         1.5023   52.9476   26.8467 S.3       1 UNK         0.0000 
     23 C23         2.5727   53.1780   22.6057 C.2       1 UNK         0.0000 
     24 O24         2.8244   53.8691   23.5967 O.2       1 UNK         0.0000 
     25 N25         3.3417   53.1383   21.4962 N.am      1 UNK         0.0000 
     26 C26         4.5434   53.8445   21.2915 C.ar      1 UNK         0.0000 
     27 C27         5.4322   54.1628   22.3303 C.ar      1 UNK         0.0000 
     28 C28         6.5826   54.8974   22.0633 C.ar      1 UNK         0.0000 
     29 C29         6.8800   55.2968   20.7610 C.ar      1 UNK         0.0000 
     30 C30         6.0086   54.9464   19.7177 C.ar      1 UNK         0.0000 
     31 C31         4.8495   54.2198   19.9830 C.ar      1 UNK         0.0000 
     32 O32         8.0525   56.0046   20.5937 O.3       1 UNK         0.0000 
     33 C33         8.5256   56.2680   19.2771 C.3       1 UNK         0.0000 
     34 H34         0.1096   52.0415   18.2065 H         1 UNK         0.0000 
     35 H35         1.2334   50.8767   18.9407 H         1 UNK         0.0000 
     36 H36         0.4953   50.5017   17.3858 H         1 UNK         0.0000 
     37 H37        -0.7205   49.3025   19.1785 H         1 UNK         0.0000 
     38 H38         0.7421   52.6164   20.5763 H         1 UNK         0.0000 
     39 H39         1.6962   51.7240   24.6419 H         1 UNK         0.0000 
     40 H40        -2.0263   50.4254   23.0143 H         1 UNK         0.0000 
     41 H41        -1.4521   49.9214   25.2165 H         1 UNK         0.0000 
     42 H42        -0.3432   49.6965   27.0473 H         1 UNK         0.0000 
     43 H43         1.1043   49.8896   26.1297 H         1 UNK         0.0000 
     44 H44        -0.6866   51.1224   29.0903 H         1 UNK         0.0000 
     45 H45        -0.4579   52.9603   31.1933 H         1 UNK         0.0000 
     46 H46         0.5067   55.1283   31.8723 H         1 UNK         0.0000 
     47 H47         1.9034   56.4354   30.3451 H         1 UNK         0.0000 
     48 H48         2.4415   55.5727   28.0803 H         1 UNK         0.0000 
     49 H49         2.9979   52.6124   20.7081 H         1 UNK         0.0000 
     50 H50         5.2455   53.8548   23.3481 H         1 UNK         0.0000 
     51 H51         7.2593   55.1480   22.8677 H         1 UNK         0.0000 
     52 H52         6.2126   55.2311   18.6972 H         1 UNK         0.0000 
     53 H53         4.1847   53.9689   19.1685 H         1 UNK         0.0000 
     54 H54         9.4937   56.7661   19.3359 H         1 UNK         0.0000 
     55 H55         7.8478   56.9268   18.7323 H         1 UNK         0.0000 
     56 H56         8.6650   55.3461   18.7098 H         1 UNK         0.0000 
@<TRIPOS>BOND
     1    1    2 1    
     2    1   34 1    
     3    1   35 1    
     4    1   36 1    
     5    2    3 1    
     6    2   37 1    
     7    3    4 2    
     8    3    5 2    
     9    3    6 1    
    10    6   11 ar   
    11    6    7 ar   
    12    7    8 ar   
    13    7   38 1    
    14    8    9 ar   
    15    8   23 1    
    16    9   10 ar   
    17    9   39 1    
    18   10   11 ar   
    19   10   12 1    
    20   11   40 1    
    21   12   13 1    
    22   12   41 1    
    23   13   14 1    
    24   13   42 1    
    25   13   43 1    
    26   14   22 1    
    27   14   15 2    
    28   15   16 1    
    29   15   44 1    
    30   16   21 ar   
    31   16   17 ar   
    32   17   18 ar   
    33   17   45 1    
    34   18   19 ar   
    35   18   46 1    
    36   19   20 ar   
    37   19   47 1    
    38   20   21 ar   
    39   20   48 1    
    40   21   22 1    
    41   23   24 2    
    42   23   25 am   BACKBONE|DICT|INTERRES
    43   25   26 1    
    44   25   49 1    
    45   26   31 ar   
    46   26   27 ar   
    47   27   28 ar   
    48   27   50 1    
    49   28   29 ar   
    50   28   51 1    
    51   29   30 ar   
    52   29   32 1    
    53   30   31 ar   
    54   30   52 1    
    55   31   53 1    
    56   32   33 1    
    57   33   54 1    
    58   33   55 1    
    59   33   56 1    
@<TRIPOS>SUBSTRUCTURE
     1 UNK         1 GROUP             0       ****    0 ROOT    
