@<TRIPOS>MOLECULE
ZINC40378798_4685
36   38    1
SMALL
USER_CHARGES


@<TRIPOS>ATOM
      1 C1          5.8864   54.4944   22.4894 C.ar      1 UNK         0.0000 
      2 C2          6.4932   54.9677   23.6482 C.ar      1 UNK         0.0000 
      3 C3          5.8721   54.8165   24.8877 C.ar      1 UNK         0.0000 
      4 C4          4.6075   54.2090   24.9766 C.ar      1 UNK         0.0000 
      5 C5          4.0002   53.7378   23.7966 C.ar      1 UNK         0.0000 
      6 C6          4.6491   53.8567   22.5637 C.ar      1 UNK         0.0000 
      7 S7          3.9013   53.2080   21.0742 S.o2      1 UNK         0.0000 
      8 O8          2.4997   52.8974   21.3673 O.2       1 UNK         0.0000 
      9 O9          4.2966   54.0989   19.9790 O.2       1 UNK         0.0000 
     10 N10         4.6913   51.6861   20.8012 N.pl3     1 UNK         0.0000 
     11 N11         4.0238   54.1206   26.2612 N.am      1 UNK         0.0000 
     12 C12         2.7984   53.6983   26.6408 C.2       1 UNK         0.0000 
     13 O13         1.9363   53.2944   25.8619 O.2       1 UNK         0.0000 
     14 C14         2.4769   53.9033   28.1446 C.3       1 UNK         0.0000 
     15 H15         3.0243   54.7926   28.4651 H         1 UNK         0.0000 
     16 C16         2.8262   52.6826   29.0465 C.3       1 UNK         0.0000 
     17 C17         1.5231   52.4970   29.8745 C.3       1 UNK         0.0000 
     18 H18         1.6321   51.9830   30.8309 H         1 UNK         0.0000 
     19 C19         0.9737   53.9133   29.9871 C.3       1 UNK         0.0000 
     20 C20         0.9687   54.1409   28.4823 C.3       1 UNK         0.0000 
     21 H21         0.5762   55.1116   28.1775 H         1 UNK         0.0000 
     22 C22         0.1160   52.9277   28.1026 C.2       1 UNK         0.0000 
     23 C23         0.4587   51.9333   28.9413 C.2       1 UNK         0.0000 
     24 Cl24        6.7039   55.3992   26.2912 Cl        1 UNK         0.0000 
     25 H25         6.3707   54.6441   21.5337 H         1 UNK         0.0000 
     26 H26         7.4389   55.4784   23.5745 H         1 UNK         0.0000 
     27 H27         3.0347   53.2584   23.8108 H         1 UNK         0.0000 
     28 H28         4.0991   50.9002   21.0743 H         1 UNK         0.0000 
     29 H29         4.9993   51.5789   19.8245 H         1 UNK         0.0000 
     30 H30         4.6209   54.4565   27.0032 H         1 UNK         0.0000 
     31 H31         3.6704   52.9132   29.6974 H         1 UNK         0.0000 
     32 H32         3.0660   51.7723   28.4901 H         1 UNK         0.0000 
     33 H33         1.6364   54.5972   30.5199 H         1 UNK         0.0000 
     34 H34        -0.0137   53.9712   30.4584 H         1 UNK         0.0000 
     35 H35        -0.5846   52.8955   27.2808 H         1 UNK         0.0000 
     36 H36         0.0886   50.9205   28.9551 H         1 UNK         0.0000 
@<TRIPOS>BOND
     1    1    6 ar   
     2    1    2 ar   
     3    1   25 1    
     4    2    3 ar   
     5    2   26 1    
     6    3    4 ar   
     7    3   24 1    
     8    4    5 ar   
     9    4   11 1    
    10    5    6 ar   
    11    5   27 1    
    12    6    7 1    
    13    7    8 2    
    14    7    9 2    
    15    7   10 1    
    16   10   28 1    
    17   10   29 1    
    18   11   12 am   BACKBONE|DICT|INTERRES
    19   11   30 1    
    20   12   13 2    
    21   12   14 1    
    22   14   15 1    
    23   14   20 1    
    24   14   16 1    
    25   16   17 1    
    26   16   31 1    
    27   16   32 1    
    28   17   18 1    
    29   17   23 1    
    30   17   19 1    
    31   19   20 1    
    32   19   33 1    
    33   19   34 1    
    34   20   21 1    
    35   20   22 1    
    36   22   23 2    
    37   22   35 1    
    38   23   36 1    
@<TRIPOS>SUBSTRUCTURE
     1 UNK         1 GROUP             0       ****    0 ROOT    
