@<TRIPOS>MOLECULE
ZINC08896813_5279
68   71    1
SMALL
USER_CHARGES


@<TRIPOS>ATOM
      1 C1         -7.4663   45.8661   31.5917 C.3       1 UNK         0.0000 
      2 C2         -7.4558   47.1438   30.7203 C.3       1 UNK         0.0000 
      3 C3         -8.8780   47.3899   30.1612 C.3       1 UNK         0.0000 
      4 C4         -7.1158   48.3324   31.6590 C.3       1 UNK         0.0000 
      5 C5         -6.4541   46.9852   29.5430 C.ar      1 UNK         0.0000 
      6 C6         -5.3542   47.8401   29.3841 C.ar      1 UNK         0.0000 
      7 C7         -4.4959   47.7066   28.2981 C.ar      1 UNK         0.0000 
      8 C8         -4.6829   46.6940   27.3439 C.ar      1 UNK         0.0000 
      9 C9         -5.7725   45.8271   27.5119 C.ar      1 UNK         0.0000 
     10 C10        -6.6487   45.9782   28.5869 C.ar      1 UNK         0.0000 
     11 C11        -3.7707   46.5510   26.1332 C.2       1 UNK         0.0000 
     12 O12        -4.0125   45.6945   25.2774 O.2       1 UNK         0.0000 
     13 N13        -2.6987   47.3859   26.0833 N.am      1 UNK         0.0000 
     14 C14        -1.9993   47.9549   25.0519 C.2       1 UNK         0.0000 
     15 S15        -2.2748   47.6915   23.4079 S.2       1 UNK         0.0000 
     16 N16        -1.0664   48.8296   25.5501 N.pl3     1 UNK         0.0000 
     17 C17        -0.1976   49.7241   24.8932 C.ar      1 UNK         0.0000 
     18 C18         0.6788   49.2911   23.8970 C.ar      1 UNK         0.0000 
     19 C19         1.5006   50.1971   23.2419 C.ar      1 UNK         0.0000 
     20 C20         1.4830   51.5508   23.5902 C.ar      1 UNK         0.0000 
     21 C21         0.6409   51.9749   24.6266 C.ar      1 UNK         0.0000 
     22 C22        -0.1965   51.0665   25.2782 C.ar      1 UNK         0.0000 
     23 N23         2.3043   52.4377   22.9067 N.pl3     1 UNK         0.0000 
     24 C24         2.3957   52.4594   21.4434 C.3       1 UNK         0.0000 
     25 C25         3.8107   52.6669   20.8592 C.3       1 UNK         0.0000 
     26 N26         4.5499   53.7185   21.5860 N.am      1 UNK         0.0000 
     27 C27         4.4624   53.7357   23.0612 C.3       1 UNK         0.0000 
     28 C28         2.9977   53.5658   23.5277 C.3       1 UNK         0.0000 
     29 C29         5.4734   54.5297   20.9877 C.2       1 UNK         0.0000 
     30 O30         6.1948   55.2992   21.6285 O.2       1 UNK         0.0000 
     31 C31         5.6343   54.5368   19.4841 C.ar      1 UNK         0.0000 
     32 C32         5.5873   55.7554   18.7951 C.ar      1 UNK         0.0000 
     33 C33         5.7657   55.7921   17.4155 C.ar      1 UNK         0.0000 
     34 C34         6.0039   54.6112   16.7181 C.ar      1 UNK         0.0000 
     35 C35         6.0769   53.3954   17.3920 C.ar      1 UNK         0.0000 
     36 C36         5.9019   53.3601   18.7720 C.ar      1 UNK         0.0000 
     37 H37        -8.1989   45.9387   32.3970 H         1 UNK         0.0000 
     38 H38        -6.4961   45.6964   32.0597 H         1 UNK         0.0000 
     39 H39        -7.7239   44.9773   31.0150 H         1 UNK         0.0000 
     40 H40        -8.9088   48.2815   29.5341 H         1 UNK         0.0000 
     41 H41        -9.2361   46.5550   29.5590 H         1 UNK         0.0000 
     42 H42        -9.6045   47.5326   30.9619 H         1 UNK         0.0000 
     43 H43        -7.1240   49.2836   31.1256 H         1 UNK         0.0000 
     44 H44        -7.8384   48.4216   32.4718 H         1 UNK         0.0000 
     45 H45        -6.1352   48.2166   32.1233 H         1 UNK         0.0000 
     46 H46        -5.1465   48.6353   30.0821 H         1 UNK         0.0000 
     47 H47        -3.6956   48.4252   28.2171 H         1 UNK         0.0000 
     48 H48        -5.9622   45.0361   26.7982 H         1 UNK         0.0000 
     49 H49        -7.4891   45.3047   28.6670 H         1 UNK         0.0000 
     50 H50        -2.4832   47.8038   26.9855 H         1 UNK         0.0000 
     51 H51        -1.0476   48.9063   26.5617 H         1 UNK         0.0000 
     52 H52         0.7168   48.2450   23.6295 H         1 UNK         0.0000 
     53 H53         2.1662   49.8368   22.4711 H         1 UNK         0.0000 
     54 H54         0.6188   53.0145   24.9183 H         1 UNK         0.0000 
     55 H55        -0.8542   51.4094   26.0648 H         1 UNK         0.0000 
     56 H56         1.9362   51.5730   21.0043 H         1 UNK         0.0000 
     57 H57         1.7669   53.2967   21.1428 H         1 UNK         0.0000 
     58 H58         4.3442   51.7233   20.9882 H         1 UNK         0.0000 
     59 H59         3.6706   52.8818   19.7997 H         1 UNK         0.0000 
     60 H60         4.8403   54.6612   23.4988 H         1 UNK         0.0000 
     61 H61         5.0421   52.8986   23.4504 H         1 UNK         0.0000 
     62 H62         2.4253   54.4580   23.2635 H         1 UNK         0.0000 
     63 H63         2.9661   53.4797   24.6137 H         1 UNK         0.0000 
     64 H64         5.4099   56.6834   19.3225 H         1 UNK         0.0000 
     65 H65         5.7171   56.7337   16.8880 H         1 UNK         0.0000 
     66 H66         6.1395   54.6391   15.6475 H         1 UNK         0.0000 
     67 H67         6.2613   52.4794   16.8491 H         1 UNK         0.0000 
     68 H68         5.9786   52.4085   19.2777 H         1 UNK         0.0000 
@<TRIPOS>BOND
     1    1    2 1    
     2    1   37 1    
     3    1   38 1    
     4    1   39 1    
     5    2    3 1    
     6    2    4 1    
     7    2    5 1    
     8    3   40 1    
     9    3   41 1    
    10    3   42 1    
    11    4   43 1    
    12    4   44 1    
    13    4   45 1    
    14    5   10 ar   
    15    5    6 ar   
    16    6    7 ar   
    17    6   46 1    
    18    7    8 ar   
    19    7   47 1    
    20    8    9 ar   
    21    8   11 1    
    22    9   10 ar   
    23    9   48 1    
    24   10   49 1    
    25   11   12 2    
    26   11   13 am   BACKBONE|DICT|INTERRES
    27   13   14 am   BACKBONE|DICT|INTERRES
    28   13   50 1    
    29   14   15 2    
    30   14   16 1    
    31   16   17 1    
    32   16   51 1    
    33   17   22 ar   
    34   17   18 ar   
    35   18   19 ar   
    36   18   52 1    
    37   19   20 ar   
    38   19   53 1    
    39   20   21 ar   
    40   20   23 1    
    41   21   22 ar   
    42   21   54 1    
    43   22   55 1    
    44   23   28 1    
    45   23   24 1    
    46   24   25 1    
    47   24   56 1    
    48   24   57 1    
    49   25   26 1    
    50   25   58 1    
    51   25   59 1    
    52   26   27 1    
    53   26   29 am   BACKBONE|DICT|INTERRES
    54   27   28 1    
    55   27   60 1    
    56   27   61 1    
    57   28   62 1    
    58   28   63 1    
    59   29   30 2    
    60   29   31 1    
    61   31   36 ar   
    62   31   32 ar   
    63   32   33 ar   
    64   32   64 1    
    65   33   34 ar   
    66   33   65 1    
    67   34   35 ar   
    68   34   66 1    
    69   35   36 ar   
    70   35   67 1    
    71   36   68 1    
@<TRIPOS>SUBSTRUCTURE
     1 UNK         1 GROUP             0       ****    0 ROOT    
