@<TRIPOS>MOLECULE
ZINC13352918_2090
67   70    1
SMALL
USER_CHARGES


@<TRIPOS>ATOM
      1 C1          9.5513   53.3223   17.2327 C.ar      1 UNK         0.0000 
      2 C2          8.2429   52.9167   16.9774 C.ar      1 UNK         0.0000 
      3 C3          7.1829   53.7036   17.4165 C.ar      1 UNK         0.0000 
      4 C4          7.4384   54.8926   18.1054 C.ar      1 UNK         0.0000 
      5 C5          8.7502   55.2982   18.3593 C.ar      1 UNK         0.0000 
      6 C6          9.8088   54.5109   17.9139 C.ar      1 UNK         0.0000 
      7 S7          6.0558   55.8854   18.6495 S.o2      1 UNK         0.0000 
      8 O8          5.1631   56.0288   17.4960 O.2       1 UNK         0.0000 
      9 O9          6.5570   57.0651   19.3671 O.2       1 UNK         0.0000 
     10 N10         5.1859   54.8483   19.7927 N.pl3     1 UNK         0.0000 
     11 C11         5.4678   54.7101   21.1584 C.ar      1 UNK         0.0000 
     12 C12         4.5590   53.9782   21.9195 C.ar      1 UNK         0.0000 
     13 C13         4.7205   53.8728   23.2969 C.ar      1 UNK         0.0000 
     14 C14         5.7702   54.5343   23.9510 C.ar      1 UNK         0.0000 
     15 C15         6.7045   55.2174   23.1674 C.ar      1 UNK         0.0000 
     16 C16         6.5746   55.2899   21.7837 C.ar      1 UNK         0.0000 
     17 C17         5.9525   54.5014   25.4616 C.2       1 UNK         0.0000 
     18 O18         7.1029   54.5272   25.9075 O.2       1 UNK         0.0000 
     19 N19         4.8713   54.4722   26.2930 N.am      1 UNK         0.0000 
     20 C20         5.0468   54.3500   27.7593 C.3       1 UNK         0.0000 
     21 C21         4.0597   53.2731   28.2654 C.3       1 UNK         0.0000 
     22 C22         2.5961   53.5321   27.8046 C.3       1 UNK         0.0000 
     23 C23         2.5631   53.7015   26.2617 C.3       1 UNK         0.0000 
     24 C24         3.5082   54.8455   25.8779 C.3       1 UNK         0.0000 
     25 C25         1.6423   52.3968   28.2520 C.2       1 UNK         0.0000 
     26 O26         1.9192   51.6945   29.2246 O.2       1 UNK         0.0000 
     27 N27         0.4878   52.2825   27.5710 N.am      1 UNK         0.0000 
     28 C28        -0.5459   51.2577   27.7225 C.3       1 UNK         0.0000 
     29 C29        -0.9120   50.5978   26.3652 C.3       1 UNK         0.0000 
     30 C30        -1.4443   51.6164   25.3245 C.3       1 UNK         0.0000 
     31 C31        -1.9007   50.9098   24.0304 C.3       1 UNK         0.0000 
     32 C32        -0.7706   50.0462   23.4263 C.3       1 UNK         0.0000 
     33 C33        -0.1503   49.0794   24.4589 C.3       1 UNK         0.0000 
     34 C34         0.2738   49.8218   25.7412 C.3       1 UNK         0.0000 
     35 H35        10.3737   52.7049   16.9028 H         1 UNK         0.0000 
     36 H36         8.0488   51.9916   16.4532 H         1 UNK         0.0000 
     37 H37         6.1676   53.3851   17.2247 H         1 UNK         0.0000 
     38 H38         8.9547   56.2164   18.8911 H         1 UNK         0.0000 
     39 H39        10.8271   54.8201   18.1019 H         1 UNK         0.0000 
     40 H40         4.4138   54.3214   19.4135 H         1 UNK         0.0000 
     41 H41         3.7104   53.5025   21.4493 H         1 UNK         0.0000 
     42 H42         4.0005   53.2885   23.8449 H         1 UNK         0.0000 
     43 H43         7.5227   55.7341   23.6388 H         1 UNK         0.0000 
     44 H44         7.3267   55.8268   21.2303 H         1 UNK         0.0000 
     45 H45         4.8107   55.2969   28.2336 H         1 UNK         0.0000 
     46 H46         6.0610   54.0576   28.0419 H         1 UNK         0.0000 
     47 H47         4.1436   53.2629   29.3530 H         1 UNK         0.0000 
     48 H48         4.4491   52.3575   27.8387 H         1 UNK         0.0000 
     49 H49         2.1946   54.4233   28.2906 H         1 UNK         0.0000 
     50 H50         2.8994   52.8064   25.7369 H         1 UNK         0.0000 
     51 H51         1.5810   54.0169   25.9065 H         1 UNK         0.0000 
     52 H52         3.2363   55.6956   26.4870 H         1 UNK         0.0000 
     53 H53         3.4005   55.2110   24.8579 H         1 UNK         0.0000 
     54 H54         0.3070   52.9663   26.8542 H         1 UNK         0.0000 
     55 H55        -1.4183   51.7506   28.1518 H         1 UNK         0.0000 
     56 H56        -0.2060   50.4966   28.4251 H         1 UNK         0.0000 
     57 H57        -1.7084   49.8725   26.5410 H         1 UNK         0.0000 
     58 H58        -0.6894   52.3724   25.1028 H         1 UNK         0.0000 
     59 H59        -2.2770   52.1754   25.7539 H         1 UNK         0.0000 
     60 H60        -2.2387   51.6473   23.3015 H         1 UNK         0.0000 
     61 H61        -2.7644   50.2778   24.2464 H         1 UNK         0.0000 
     62 H62         0.0128   50.7002   23.0368 H         1 UNK         0.0000 
     63 H63        -1.1473   49.4836   22.5710 H         1 UNK         0.0000 
     64 H64         0.7098   48.5697   24.0237 H         1 UNK         0.0000 
     65 H65        -0.8692   48.2986   24.7132 H         1 UNK         0.0000 
     66 H66         0.6653   49.1034   26.4641 H         1 UNK         0.0000 
     67 H67         1.1041   50.4978   25.5363 H         1 UNK         0.0000 
@<TRIPOS>BOND
     1    1    6 ar   
     2    1    2 ar   
     3    1   35 1    
     4    2    3 ar   
     5    2   36 1    
     6    3    4 ar   
     7    3   37 1    
     8    4    5 ar   
     9    4    7 1    
    10    5    6 ar   
    11    5   38 1    
    12    6   39 1    
    13    7    8 2    
    14    7    9 2    
    15    7   10 1    
    16   10   11 1    
    17   10   40 1    
    18   11   16 ar   
    19   11   12 ar   
    20   12   13 ar   
    21   12   41 1    
    22   13   14 ar   
    23   13   42 1    
    24   14   15 ar   
    25   14   17 1    
    26   15   16 ar   
    27   15   43 1    
    28   16   44 1    
    29   17   18 2    
    30   17   19 am   BACKBONE|DICT|INTERRES
    31   19   24 1    
    32   19   20 1    
    33   20   21 1    
    34   20   45 1    
    35   20   46 1    
    36   21   22 1    
    37   21   47 1    
    38   21   48 1    
    39   22   23 1    
    40   22   25 1    
    41   22   49 1    
    42   23   24 1    
    43   23   50 1    
    44   23   51 1    
    45   24   52 1    
    46   24   53 1    
    47   25   26 2    
    48   25   27 am   BACKBONE|DICT|INTERRES
    49   27   28 1    
    50   27   54 1    
    51   28   29 1    
    52   28   55 1    
    53   28   56 1    
    54   29   34 1    
    55   29   30 1    
    56   29   57 1    
    57   30   31 1    
    58   30   58 1    
    59   30   59 1    
    60   31   32 1    
    61   31   60 1    
    62   31   61 1    
    63   32   33 1    
    64   32   62 1    
    65   32   63 1    
    66   33   34 1    
    67   33   64 1    
    68   33   65 1    
    69   34   66 1    
    70   34   67 1    
@<TRIPOS>SUBSTRUCTURE
     1 UNK         1 GROUP             0       ****    0 ROOT    
