@<TRIPOS>MOLECULE
ZINC20549106_4772
41   42    1
SMALL
USER_CHARGES


@<TRIPOS>ATOM
      1 C1          3.2436   53.1100   19.0070 C.3       1 UNK         0.0000 
      2 C2          2.8089   52.0947   20.0474 C.ar      1 UNK         0.0000 
      3 C3          2.7004   50.7479   19.7006 C.ar      1 UNK         0.0000 
      4 C4          2.3099   49.8054   20.6529 C.ar      1 UNK         0.0000 
      5 C5          2.0645   50.2137   21.9666 C.ar      1 UNK         0.0000 
      6 C6          2.1753   51.5595   22.3334 C.ar      1 UNK         0.0000 
      7 C7          2.5386   52.4967   21.3578 C.ar      1 UNK         0.0000 
      8 N8          1.9040   51.8761   23.6751 N.pl3     1 UNK         0.0000 
      9 S9          1.9193   53.4820   24.4404 S.o2      1 UNK         0.0000 
     10 O10         1.1055   53.2967   25.6425 O.2       1 UNK         0.0000 
     11 O11         1.5136   54.4796   23.4448 O.2       1 UNK         0.0000 
     12 C12         3.6372   53.8447   24.9312 C.ar      1 UNK         0.0000 
     13 C13         4.5102   54.1920   23.8922 C.ar      1 UNK         0.0000 
     14 C14         5.8450   54.4966   24.1391 C.ar      1 UNK         0.0000 
     15 C15         6.3255   54.4721   25.4399 C.ar      1 UNK         0.0000 
     16 C16         5.4882   54.1326   26.5037 C.ar      1 UNK         0.0000 
     17 C17         4.1332   53.8074   26.2618 C.ar      1 UNK         0.0000 
     18 C18         3.2399   53.4026   27.4348 C.3       1 UNK         0.0000 
     19 C19         6.0963   54.1291   27.9030 C.3       1 UNK         0.0000 
     20 N20         6.7044   54.8260   23.0924 N.pl3     1 UNK         0.0000 
     21 C21         2.2064   48.3404   20.2730 C.3       1 UNK         0.0000 
     22 H22         3.9783   52.6716   18.3297 H         1 UNK         0.0000 
     23 H23         2.3884   53.4457   18.4204 H         1 UNK         0.0000 
     24 H24         3.7168   53.9767   19.4696 H         1 UNK         0.0000 
     25 H25         2.9285   50.4354   18.6893 H         1 UNK         0.0000 
     26 H26         1.7879   49.4738   22.7049 H         1 UNK         0.0000 
     27 H27         2.6119   53.5461   21.5835 H         1 UNK         0.0000 
     28 H28         1.6643   51.1098   24.2846 H         1 UNK         0.0000 
     29 H29         4.1507   54.2377   22.8775 H         1 UNK         0.0000 
     30 H30         7.3628   54.7059   25.6206 H         1 UNK         0.0000 
     31 H31         2.4637   54.1508   27.5957 H         1 UNK         0.0000 
     32 H32         3.7646   53.2588   28.3757 H         1 UNK         0.0000 
     33 H33         2.7571   52.4490   27.2274 H         1 UNK         0.0000 
     34 H34         7.1235   54.4948   27.9149 H         1 UNK         0.0000 
     35 H35         5.5212   54.7709   28.5712 H         1 UNK         0.0000 
     36 H36         6.0919   53.1203   28.3174 H         1 UNK         0.0000 
     37 H37         6.3700   54.7627   22.1422 H         1 UNK         0.0000 
     38 H38         7.6962   54.9289   23.2819 H         1 UNK         0.0000 
     39 H39         2.6911   48.1362   19.3173 H         1 UNK         0.0000 
     40 H40         2.7043   47.7218   21.0195 H         1 UNK         0.0000 
     41 H41         1.1624   48.0328   20.2181 H         1 UNK         0.0000 
@<TRIPOS>BOND
     1    1    2 1    
     2    1   22 1    
     3    1   23 1    
     4    1   24 1    
     5    2    7 ar   
     6    2    3 ar   
     7    3    4 ar   
     8    3   25 1    
     9    4    5 ar   
    10    4   21 1    
    11    5    6 ar   
    12    5   26 1    
    13    6    7 ar   
    14    6    8 1    
    15    7   27 1    
    16    8    9 1    
    17    8   28 1    
    18    9   10 2    
    19    9   11 2    
    20    9   12 1    
    21   12   17 ar   
    22   12   13 ar   
    23   13   14 ar   
    24   13   29 1    
    25   14   15 ar   
    26   14   20 1    
    27   15   16 ar   
    28   15   30 1    
    29   16   17 ar   
    30   16   19 1    
    31   17   18 1    
    32   18   31 1    
    33   18   32 1    
    34   18   33 1    
    35   19   34 1    
    36   19   35 1    
    37   19   36 1    
    38   20   37 1    
    39   20   38 1    
    40   21   39 1    
    41   21   40 1    
    42   21   41 1    
@<TRIPOS>SUBSTRUCTURE
     1 UNK         1 GROUP             0       ****    0 ROOT    
