@<TRIPOS>MOLECULE
ZINC13002436_4672
31   32    1
SMALL
USER_CHARGES


@<TRIPOS>ATOM
      1 C1          1.4397   50.4952   16.7568 C.3       1 UNK         0.0000 
      2 C2          1.4800   51.2512   18.0808 C.2       1 UNK         0.0000 
      3 O3          0.4283   51.6830   18.5604 O.2       1 UNK         0.0000 
      4 N4          2.7040   51.4036   18.6221 N.am      1 UNK         0.0000 
      5 C5          3.0284   52.0612   19.8173 C.ar      1 UNK         0.0000 
      6 C6          4.2883   52.6526   19.8868 C.ar      1 UNK         0.0000 
      7 C7          4.6993   53.2907   21.0529 C.ar      1 UNK         0.0000 
      8 C8          3.8566   53.3144   22.1759 C.ar      1 UNK         0.0000 
      9 C9          2.5861   52.7394   22.0975 C.ar      1 UNK         0.0000 
     10 C10         2.1743   52.1070   20.9285 C.ar      1 UNK         0.0000 
     11 N11         4.2145   53.8520   23.4251 N.am      1 UNK         0.0000 
     12 C12         5.4515   54.0980   23.9058 C.2       1 UNK         0.0000 
     13 O13         6.4928   54.1119   23.2471 O.2       1 UNK         0.0000 
     14 C14         5.4954   54.2844   25.3311 C.ar      1 UNK         0.0000 
     15 C15         4.4824   54.3911   26.2924 C.ar      1 UNK         0.0000 
     16 C16         5.0666   54.4957   27.5618 C.ar      1 UNK         0.0000 
     17 C17         6.4388   54.4882   27.3649 C.ar      1 UNK         0.0000 
     18 N18         6.6793   54.3672   26.0227 N.pl3     1 UNK         0.0000 
     19 H19         7.5869   54.2907   25.5854 H         1 UNK         0.0000 
     20 Br20        4.1682   54.6316   29.2347 Br        1 UNK         0.0000 
     21 H21         1.9877   51.0499   15.9947 H         1 UNK         0.0000 
     22 H22         0.4113   50.3583   16.4198 H         1 UNK         0.0000 
     23 H23         1.9039   49.5138   16.8707 H         1 UNK         0.0000 
     24 H24         3.4902   51.0449   18.0880 H         1 UNK         0.0000 
     25 H25         4.9584   52.6165   19.0397 H         1 UNK         0.0000 
     26 H26         5.6771   53.7469   21.0604 H         1 UNK         0.0000 
     27 H27         1.9220   52.7496   22.9506 H         1 UNK         0.0000 
     28 H28         1.1996   51.6475   20.9032 H         1 UNK         0.0000 
     29 H29         3.4696   53.8893   24.1021 H         1 UNK         0.0000 
     30 H30         3.4172   54.3698   26.1091 H         1 UNK         0.0000 
     31 H31         7.2527   54.5399   28.0740 H         1 UNK         0.0000 
@<TRIPOS>BOND
     1    1    2 1    
     2    1   21 1    
     3    1   22 1    
     4    1   23 1    
     5    2    3 2    
     6    2    4 am   BACKBONE|DICT|INTERRES
     7    4    5 1    
     8    4   24 1    
     9    5   10 ar   
    10    5    6 ar   
    11    6    7 ar   
    12    6   25 1    
    13    7    8 ar   
    14    7   26 1    
    15    8    9 ar   
    16    8   11 1    
    17    9   10 ar   
    18    9   27 1    
    19   10   28 1    
    20   11   12 am   BACKBONE|DICT|INTERRES
    21   11   29 1    
    22   12   13 2    
    23   12   14 1    
    24   14   18 ar   
    25   14   15 ar   
    26   15   16 ar   
    27   15   30 1    
    28   16   17 ar   
    29   16   20 1    
    30   17   18 ar   
    31   17   31 1    
    32   18   19 1    
@<TRIPOS>SUBSTRUCTURE
     1 UNK         1 GROUP             0       ****    0 ROOT    
