ZINC05800172_1468
                    3D
 Schrodinger Suite 2024-2.
 45 48  0  0  1  0            999 V2000
    2.0855   54.4955   16.4362 C   0  0  0  0  0  0
    2.6083   55.6831   16.9452 C   0  0  0  0  0  0
    3.8412   55.6745   17.5927 C   0  0  0  0  0  0
    4.5695   54.4818   17.7119 C   0  0  0  0  0  0
    4.0286   53.2961   17.1977 C   0  0  0  0  0  0
    2.7901   53.3015   16.5637 C   0  0  0  0  0  0
    5.9438   54.4213   18.4043 C   0  0  1  0  0  0
    5.9607   53.4630   18.9331 H   0  0  0  0  0  0
    7.0540   54.3203   17.4445 N   0  0  0  0  0  0
    7.4376   55.5523   16.8816 C   0  0  0  0  0  0
    7.9366   55.6027   15.5798 C   0  0  0  0  0  0
    8.2430   56.8326   14.9978 C   0  0  0  0  0  0
    8.0332   58.0163   15.7085 C   0  0  0  0  0  0
    7.5139   57.9762   17.0035 C   0  0  0  0  0  0
    7.1919   56.7438   17.5887 C   0  0  0  0  0  0
    6.6752   56.7238   19.0100 C   0  0  0  0  0  0
    6.7044   57.6967   19.7693 O   0  0  0  0  0  0
    6.2785   55.4719   19.4068 N   0  0  0  0  0  0
    5.7329   55.2931   20.6862 N   0  0  0  0  0  0
    6.5640   55.0896   21.7354 C   0  0  0  0  0  0
    7.7779   55.2968   21.6816 O   0  0  0  0  0  0
    5.9053   54.7176   23.0469 C   0  0  0  0  0  0
    6.5344   55.0596   24.2506 C   0  0  0  0  0  0
    5.9010   54.8390   25.4692 C   0  0  0  0  0  0
    4.6174   54.2813   25.5126 C   0  0  0  0  0  0
    3.9974   53.9115   24.3109 C   0  0  0  0  0  0
    4.6451   54.0992   23.0917 C   0  0  0  0  0  0
    3.9263   54.0837   26.8114 N   0  3  0  0  0  0
    2.7588   53.7020   26.8002 O   0  0  0  0  0  0
    4.5409   54.3199   27.8479 O   0  5  0  0  0  0
    1.1283   54.5025   15.9352 H   0  0  0  0  0  0
    2.0594   56.6069   16.8404 H   0  0  0  0  0  0
    4.2181   56.6083   17.9785 H   0  0  0  0  0  0
    4.5694   52.3653   17.2834 H   0  0  0  0  0  0
    2.3808   52.3812   16.1717 H   0  0  0  0  0  0
    6.9794   53.5296   16.8215 H   0  0  0  0  0  0
    8.0912   54.6923   15.0188 H   0  0  0  0  0  0
    8.6369   56.8705   13.9929 H   0  0  0  0  0  0
    8.2669   58.9669   15.2525 H   0  0  0  0  0  0
    7.3485   58.9073   17.5324 H   0  0  0  0  0  0
    4.7885   54.9410   20.6559 H   0  0  0  0  0  0
    7.5040   55.5361   24.2440 H   0  0  0  0  0  0
    6.4041   55.1314   26.3788 H   0  0  0  0  0  0
    3.0120   53.4646   24.3180 H   0  0  0  0  0  0
    4.1298   53.8054   22.1880 H   0  0  0  0  0  0
  1  6  2  0  0  0
  1  2  1  0  0  0
  1 31  1  0  0  0
  2  3  2  0  0  0
  2 32  1  0  0  0
  3  4  1  0  0  0
  3 33  1  0  0  0
  4  5  2  0  0  0
  4  7  1  0  0  0
  5  6  1  0  0  0
  5 34  1  0  0  0
  6 35  1  0  0  0
  7  8  1  0  0  0
  7 18  1  0  0  0
  7  9  1  0  0  0
  9 10  1  0  0  0
  9 36  1  0  0  0
 10 15  2  0  0  0
 10 11  1  0  0  0
 11 12  2  0  0  0
 11 37  1  0  0  0
 12 13  1  0  0  0
 12 38  1  0  0  0
 13 14  2  0  0  0
 13 39  1  0  0  0
 14 15  1  0  0  0
 14 40  1  0  0  0
 15 16  1  0  0  0
 16 17  2  0  0  0
 16 18  1  0  0  0
 18 19  1  0  0  0
 19 20  1  0  0  0
 19 41  1  0  0  0
 20 21  2  0  0  0
 20 22  1  0  0  0
 22 27  2  0  0  0
 22 23  1  0  0  0
 23 24  2  0  0  0
 23 42  1  0  0  0
 24 25  1  0  0  0
 24 43  1  0  0  0
 25 26  2  0  0  0
 25 28  1  0  0  0
 26 27  1  0  0  0
 26 44  1  0  0  0
 27 45  1  0  0  0
 28 29  2  0  0  0
 28 30  1  0  0  0
M  CHG  2  28   1  30  -1
M  END
> <i_i_glide_confnum>
2

> <i_i_glide_lignum>
1469

> <i_i_glide_posenum>
86

> <i_i_glide_rotatable_bonds>
5

> <i_m_Source_File_Index>
4311

> <b_m_subgroup_collapsed>
0

> <r_i_docking_score>
-5.34785

> <r_i_glide_ecoul>
-4.25624

> <r_i_glide_eff_state_penalty>
0

> <r_i_glide_einternal>
2.78548

> <r_i_glide_emodel>
-49.4967

> <r_i_glide_energy>
-36.3733

> <r_i_glide_erotb>
0.516677

> <r_i_glide_esite>
-0.00873631

> <r_i_glide_evdw>
-32.1171

> <r_i_glide_gscore>
-5.34785

> <r_i_glide_hbond>
-0.32

> <r_i_glide_ligand_efficiency>
-0.184408

> <r_i_glide_ligand_efficiency_ln>
-1.22452

> <r_i_glide_ligand_efficiency_sa>
-0.566561

> <r_i_glide_lipo>
-1.74022

> <r_i_glide_metal>
0

> <r_i_glide_rewards>
-1.55127

> <s_i_glide_gridfile>
wee1_glide-grid

> <s_m_Source_File>
wee1_decoys_glide_SP.sdf

> <s_m_Source_Path>
/Users/zhangxujun/Desktop

> <s_m_entry_id>
4586

> <s_m_entry_name>
wee1_decoys_glide_SP.4311

> <s_m_subgroup_title>
wee1_decoys_glide_SP

> <s_m_subgroupid>
wee1_decoys_glide_SP


$$$$
