@<TRIPOS>MOLECULE
ZINC13981838_3519
55   58    1
SMALL
USER_CHARGES


@<TRIPOS>ATOM
      1 C1         -1.1912   51.7351   25.9590 C.ar      1 UNK         0.0000 
      2 C2         -0.6397   50.4978   26.2725 C.ar      1 UNK         0.0000 
      3 C3         -0.3752   49.5798   25.2590 C.ar      1 UNK         0.0000 
      4 C4         -0.6622   49.8977   23.9283 C.ar      1 UNK         0.0000 
      5 C5         -1.1923   51.1576   23.6218 C.ar      1 UNK         0.0000 
      6 C6         -1.4577   52.0757   24.6360 C.ar      1 UNK         0.0000 
      7 N7         -0.4018   48.9178   22.9563 N.pl3     1 UNK         0.0000 
      8 S8         -1.0232   48.9149   21.2897 S.o2      1 UNK         0.0000 
      9 O9         -2.3245   49.5951   21.2786 O.2       1 UNK         0.0000 
     10 O10        -0.8952   47.5298   20.8221 O.2       1 UNK         0.0000 
     11 C11         0.1377   49.8988   20.3413 C.ar      1 UNK         0.0000 
     12 C12         1.2902   49.2953   19.8323 C.ar      1 UNK         0.0000 
     13 C13         2.2135   50.0564   19.1221 C.ar      1 UNK         0.0000 
     14 C14         1.9930   51.4224   18.9464 C.ar      1 UNK         0.0000 
     15 C15         0.8283   52.0242   19.4279 C.ar      1 UNK         0.0000 
     16 C16        -0.1050   51.2575   20.1207 C.ar      1 UNK         0.0000 
     17 N17         2.9691   52.1987   18.3036 N.pl3     1 UNK         0.0000 
     18 C18         3.7706   53.1450   18.8745 C.2       1 UNK         0.0000 
     19 S19         4.7704   54.0236   17.8632 S.2       1 UNK         0.0000 
     20 N20         3.6618   53.2393   20.2414 N.am      1 UNK         0.0000 
     21 C21         4.3276   53.9418   21.1835 C.2       1 UNK         0.0000 
     22 O22         5.2874   54.6930   20.9912 O.2       1 UNK         0.0000 
     23 C23         3.7799   53.6895   22.4957 C.2       1 UNK         0.0000 
     24 C24         4.2937   54.2372   23.6154 C.2       1 UNK         0.0000 
     25 C25         3.7742   54.0401   24.9892 C.ar      1 UNK         0.0000 
     26 C26         2.4225   53.7329   25.1837 C.ar      1 UNK         0.0000 
     27 C27         1.9045   53.5141   26.4517 C.ar      1 UNK         0.0000 
     28 C28         2.7171   53.5750   27.5715 C.ar      1 UNK         0.0000 
     29 C29         4.0939   53.8488   27.4334 C.ar      1 UNK         0.0000 
     30 C30         4.6412   54.0952   26.1307 C.ar      1 UNK         0.0000 
     31 C31         6.0417   54.3437   26.0341 C.ar      1 UNK         0.0000 
     32 C32         6.8424   54.3307   27.1692 C.ar      1 UNK         0.0000 
     33 C33         6.3017   54.0965   28.4209 C.ar      1 UNK         0.0000 
     34 C34         4.9410   53.8653   28.5671 C.ar      1 UNK         0.0000 
     35 H35        -1.4075   52.4383   26.7507 H         1 UNK         0.0000 
     36 H36        -0.4399   50.2314   27.3010 H         1 UNK         0.0000 
     37 H37         0.0320   48.6125   25.5249 H         1 UNK         0.0000 
     38 H38        -1.4184   51.4395   22.6097 H         1 UNK         0.0000 
     39 H39        -1.8787   53.0421   24.3994 H         1 UNK         0.0000 
     40 H40         0.1096   48.0996   23.2472 H         1 UNK         0.0000 
     41 H41         1.4791   48.2419   19.9892 H         1 UNK         0.0000 
     42 H42         3.1043   49.5892   18.7279 H         1 UNK         0.0000 
     43 H43         0.6587   53.0820   19.2793 H         1 UNK         0.0000 
     44 H44        -1.0046   51.7241   20.4861 H         1 UNK         0.0000 
     45 H45         3.1251   52.0012   17.3240 H         1 UNK         0.0000 
     46 H46         2.9180   52.6754   20.6172 H         1 UNK         0.0000 
     47 H47         2.9291   53.0244   22.5542 H         1 UNK         0.0000 
     48 H48         5.1397   54.8983   23.5196 H         1 UNK         0.0000 
     49 H49         1.7424   53.6791   24.3454 H         1 UNK         0.0000 
     50 H50         0.8549   53.2968   26.5719 H         1 UNK         0.0000 
     51 H51         2.3031   53.3913   28.5516 H         1 UNK         0.0000 
     52 H52         6.5100   54.5136   25.0782 H         1 UNK         0.0000 
     53 H53         7.9025   54.4967   27.0845 H         1 UNK         0.0000 
     54 H54         6.9528   54.0963   29.2813 H         1 UNK         0.0000 
     55 H55         4.5299   53.6758   29.5473 H         1 UNK         0.0000 
@<TRIPOS>BOND
     1    1    6 ar   
     2    1    2 ar   
     3    1   35 1    
     4    2    3 ar   
     5    2   36 1    
     6    3    4 ar   
     7    3   37 1    
     8    4    5 ar   
     9    4    7 1    
    10    5    6 ar   
    11    5   38 1    
    12    6   39 1    
    13    7    8 1    
    14    7   40 1    
    15    8    9 2    
    16    8   10 2    
    17    8   11 1    
    18   11   16 ar   
    19   11   12 ar   
    20   12   13 ar   
    21   12   41 1    
    22   13   14 ar   
    23   13   42 1    
    24   14   15 ar   
    25   14   17 1    
    26   15   16 ar   
    27   15   43 1    
    28   16   44 1    
    29   17   18 1    
    30   17   45 1    
    31   18   19 2    
    32   18   20 am   BACKBONE|DICT|INTERRES
    33   20   21 am   BACKBONE|DICT|INTERRES
    34   20   46 1    
    35   21   22 2    
    36   21   23 1    
    37   23   24 2    
    38   23   47 1    
    39   24   25 1    
    40   24   48 1    
    41   25   30 ar   
    42   25   26 ar   
    43   26   27 ar   
    44   26   49 1    
    45   27   28 ar   
    46   27   50 1    
    47   28   29 ar   
    48   28   51 1    
    49   29   34 ar   
    50   29   30 ar   
    51   30   31 ar   
    52   31   32 ar   
    53   31   52 1    
    54   32   33 ar   
    55   32   53 1    
    56   33   34 ar   
    57   33   54 1    
    58   34   55 1    
@<TRIPOS>SUBSTRUCTURE
     1 UNK         1 GROUP             0       ****    0 ROOT    
