@<TRIPOS>MOLECULE
ZINC35674443_4846
73   76    1
SMALL
USER_CHARGES


@<TRIPOS>ATOM
      1 C1          1.5067   54.7791   23.1275 C.3       1 UNK         0.0000 
      2 C2          0.6729   53.8477   23.9601 C.3       1 UNK         0.0000 
      3 C3          1.3416   52.5040   23.9192 C.3       1 UNK         0.0000 
      4 H4          1.4754   52.2292   22.8719 H         1 UNK         0.0000 
      5 C5          2.7509   52.6814   24.5951 C.3       1 UNK         0.0000 
      6 H6          2.9363   51.6966   24.8804 H         1 UNK         0.0000 
      7 C7          3.9078   53.2968   23.7107 C.ar      1 UNK         0.0000 
      8 C8          3.9926   53.0351   22.3279 C.ar      1 UNK         0.0000 
      9 C9          4.9618   53.6242   21.5008 C.ar      1 UNK         0.0000 
     10 C10         5.9003   54.4809   22.0805 C.ar      1 UNK         0.0000 
     11 C11         5.9068   54.6632   23.4546 C.ar      1 UNK         0.0000 
     12 C12         4.9222   54.1121   24.2739 C.ar      1 UNK         0.0000 
     13 C13         4.9473   54.4668   25.7513 C.3       1 UNK         0.0000 
     14 C14         4.1500   53.4869   26.6023 C.3       1 UNK         0.0000 
     15 N15         2.7288   53.3998   25.9937 N.4       1 UNK         0.0000 
     16 C16         1.7817   52.7663   27.0539 C.3       1 UNK         0.0000 
     17 C17         1.4479   53.6258   28.2797 C.ar      1 UNK         0.0000 
     18 C18         1.8737   54.9608   28.3641 C.ar      1 UNK         0.0000 
     19 C19         1.5979   55.7349   29.4826 C.ar      1 UNK         0.0000 
     20 C20         0.8778   55.1840   30.5309 C.ar      1 UNK         0.0000 
     21 C21         0.4220   53.8686   30.4652 C.ar      1 UNK         0.0000 
     22 C22         0.6939   53.0850   29.3390 C.ar      1 UNK         0.0000 
     23 C23         0.1575   51.6600   29.2880 C.3       1 UNK         0.0000 
     24 O24         6.8673   55.1153   21.3383 O.3       1 UNK         0.0000 
     25 C25         6.3905   56.1655   20.5040 C.3       1 UNK         0.0000 
     26 O26         5.0595   53.3931   20.1394 O.3       1 UNK         0.0000 
     27 C27         4.0978   52.5658   19.4912 C.3       1 UNK         0.0000 
     28 N28         0.5331   51.3652   24.4054 N.am      1 UNK         0.0000 
     29 C29        -0.7307   51.0620   24.0421 C.2       1 UNK         0.0000 
     30 O30        -1.4386   51.7685   23.3260 O.2       1 UNK         0.0000 
     31 C31        -1.2661   49.7635   24.5727 C.ar      1 UNK         0.0000 
     32 C32        -2.5349   49.7217   25.1606 C.ar      1 UNK         0.0000 
     33 C33        -3.0465   48.5170   25.6394 C.ar      1 UNK         0.0000 
     34 C34        -2.3085   47.3326   25.5034 C.ar      1 UNK         0.0000 
     35 C35        -1.0655   47.3781   24.8812 C.ar      1 UNK         0.0000 
     36 C36        -0.5295   48.5820   24.4383 C.ar      1 UNK         0.0000 
     37 O37        -2.7238   46.0922   25.9483 O.3       1 UNK         0.0000 
     38 C38        -3.7679   46.0369   26.9126 C.3       1 UNK         0.0000 
     39 H39         1.1034   55.6962   23.2501 H         1 UNK         0.0000 
     40 H40         2.4580   55.0679   23.5472 H         1 UNK         0.0000 
     41 H41         1.5952   54.4981   22.0812 H         1 UNK         0.0000 
     42 H42        -0.3757   53.8720   23.6815 H         1 UNK         0.0000 
     43 H43         0.7030   54.1719   24.9785 H         1 UNK         0.0000 
     44 H44         3.2796   52.3638   21.8780 H         1 UNK         0.0000 
     45 H45         6.6679   55.3018   23.8793 H         1 UNK         0.0000 
     46 H46         4.5533   55.4746   25.8821 H         1 UNK         0.0000 
     47 H47         5.9749   54.4992   26.1164 H         1 UNK         0.0000 
     48 H48         4.1063   53.8581   27.6247 H         1 UNK         0.0000 
     49 H49         4.5989   52.4992   26.6414 H         1 UNK         0.0000 
     50 H50         0.8413   52.5420   26.5619 H         1 UNK         0.0000 
     51 H51         2.2428   51.8212   27.3462 H         1 UNK         0.0000 
     52 H52         2.4424   55.4203   27.5734 H         1 UNK         0.0000 
     53 H53         1.9496   56.7562   29.5429 H         1 UNK         0.0000 
     54 H54         0.7024   55.7804   31.4098 H         1 UNK         0.0000 
     55 H55        -0.1391   53.4582   31.2945 H         1 UNK         0.0000 
     56 H56        -0.4803   51.4274   30.1450 H         1 UNK         0.0000 
     57 H57        -0.4355   51.5023   28.3844 H         1 UNK         0.0000 
     58 H58         0.9772   50.9436   29.2719 H         1 UNK         0.0000 
     59 H59         7.2326   56.6126   19.9753 H         1 UNK         0.0000 
     60 H60         5.6835   55.8118   19.7525 H         1 UNK         0.0000 
     61 H61         5.9096   56.9478   21.0930 H         1 UNK         0.0000 
     62 H62         4.3329   52.5017   18.4278 H         1 UNK         0.0000 
     63 H63         4.1095   51.5496   19.8863 H         1 UNK         0.0000 
     64 H64         3.0922   52.9805   19.5840 H         1 UNK         0.0000 
     65 H65         1.0068   50.6731   24.9636 H         1 UNK         0.0000 
     66 H66        -3.1228   50.6220   25.2689 H         1 UNK         0.0000 
     67 H67        -4.0152   48.5169   26.1094 H         1 UNK         0.0000 
     68 H68        -0.4916   46.4712   24.7967 H         1 UNK         0.0000 
     69 H69         0.4491   48.5791   23.9779 H         1 UNK         0.0000 
     70 H70        -3.8732   45.0114   27.2682 H         1 UNK         0.0000 
     71 H71        -4.7259   46.3459   26.4932 H         1 UNK         0.0000 
     72 H72        -3.5421   46.6589   27.7797 H         1 UNK         0.0000 
     73 H73         2.3879   54.3408   25.8607 H         1 UNK         0.0000 
@<TRIPOS>BOND
     1    1    2 1    
     2    1   39 1    
     3    1   40 1    
     4    1   41 1    
     5    2    3 1    
     6    2   42 1    
     7    2   43 1    
     8    3    4 1    
     9    3    5 1    
    10    3   28 1    
    11    5    6 1    
    12    5   15 1    
    13    5    7 1    
    14    7   12 ar   
    15    7    8 ar   
    16    8    9 ar   
    17    8   44 1    
    18    9   10 ar   
    19    9   26 1    
    20   10   11 ar   
    21   10   24 1    
    22   11   12 ar   
    23   11   45 1    
    24   12   13 1    
    25   13   14 1    
    26   13   46 1    
    27   13   47 1    
    28   14   15 1    
    29   14   48 1    
    30   14   49 1    
    31   15   16 1    
    32   15   73 1    
    33   16   17 1    
    34   16   50 1    
    35   16   51 1    
    36   17   22 ar   
    37   17   18 ar   
    38   18   19 ar   
    39   18   52 1    
    40   19   20 ar   
    41   19   53 1    
    42   20   21 ar   
    43   20   54 1    
    44   21   22 ar   
    45   21   55 1    
    46   22   23 1    
    47   23   56 1    
    48   23   57 1    
    49   23   58 1    
    50   24   25 1    
    51   25   59 1    
    52   25   60 1    
    53   25   61 1    
    54   26   27 1    
    55   27   62 1    
    56   27   63 1    
    57   27   64 1    
    58   28   29 am   BACKBONE|DICT|INTERRES
    59   28   65 1    
    60   29   30 2    
    61   29   31 1    
    62   31   36 ar   
    63   31   32 ar   
    64   32   33 ar   
    65   32   66 1    
    66   33   34 ar   
    67   33   67 1    
    68   34   35 ar   
    69   34   37 1    
    70   35   36 ar   
    71   35   68 1    
    72   36   69 1    
    73   37   38 1    
    74   38   70 1    
    75   38   71 1    
    76   38   72 1    
@<TRIPOS>SUBSTRUCTURE
     1 UNK         1 GROUP             0       ****    0 ROOT    
