ZINC30816146_3267
                    3D
 Schrodinger Suite 2024-2.
 55 58  0  0  1  0            999 V2000
    6.2790   47.7021   11.6872 C   0  0  0  0  0  0
    6.2417   49.1943   11.8878 C   0  0  0  0  0  0
    6.7687   50.2113   11.0925 C   0  0  0  0  0  0
    6.5646   51.4981   11.5976 C   0  0  0  0  0  0
    5.8695   51.4892   12.7933 C   0  0  0  0  0  0
    5.4561   49.8825   13.2817 S   0  0  0  0  0  0
    5.4878   52.9417   13.7917 S   0  0  0  0  0  0
    4.5606   52.5133   14.8451 O   0  0  0  0  0  0
    5.1474   54.0076   12.8419 O   0  0  0  0  0  0
    7.1051   53.2261   14.4806 N   0  0  0  0  0  0
    7.8733   54.3604   13.9062 C   0  0  0  0  0  0
    7.3393   55.7167   14.4284 C   0  0  0  0  0  0
    7.2670   55.7523   15.9787 C   0  0  0  0  0  0
    6.5612   54.4819   16.5498 C   0  0  1  0  0  0
    5.4922   54.5111   16.3317 H   0  0  0  0  0  0
    7.2095   53.2007   15.9607 C   0  0  0  0  0  0
    6.7301   54.4566   18.0821 C   0  0  0  0  0  0
    7.8657   54.4969   18.5609 O   0  0  0  0  0  0
    5.6007   54.3815   18.8205 N   0  0  0  0  0  0
    5.5005   54.3722   20.2234 C   0  0  0  0  0  0
    4.4147   53.6974   20.7823 C   0  0  0  0  0  0
    4.2786   53.6197   22.1667 C   0  0  0  0  0  0
    5.2281   54.2099   23.0049 C   0  0  0  0  0  0
    6.3115   54.8974   22.4417 C   0  0  0  0  0  0
    6.4257   55.0083   21.0614 C   0  0  0  0  0  0
    4.9972   54.0973   24.3876 N   0  0  0  0  0  0
    5.7209   54.5626   25.4298 C   0  0  0  0  0  0
    6.7823   55.1853   25.3638 O   0  0  0  0  0  0
    5.1310   54.2792   26.7097 C   0  0  0  0  0  0
    5.6263   54.4889   27.9889 C   0  0  0  0  0  0
    4.6395   54.0742   28.8822 C   0  0  0  0  0  0
    3.5824   53.6191   28.1127 C   0  0  0  0  0  0
    3.8782   53.7449   26.7934 O   0  0  0  0  0  0
    5.2799   47.2971   11.5315 H   0  0  0  0  0  0
    6.8857   47.4115   10.8325 H   0  0  0  0  0  0
    6.6978   47.2028   12.5608 H   0  0  0  0  0  0
    7.2998   50.0263   10.1712 H   0  0  0  0  0  0
    6.9202   52.3991   11.1184 H   0  0  0  0  0  0
    7.9449   54.2535   12.8233 H   0  0  0  0  0  0
    8.8980   54.2710   14.2707 H   0  0  0  0  0  0
    6.3543   55.9207   14.0081 H   0  0  0  0  0  0
    7.9793   56.5243   14.0706 H   0  0  0  0  0  0
    6.7375   56.6646   16.2600 H   0  0  0  0  0  0
    8.3115   55.7931   16.2968 H   0  0  0  0  0  0
    8.2800   53.2396   16.1748 H   0  0  0  0  0  0
    6.8388   52.2413   16.3280 H   0  0  0  0  0  0
    4.7432   54.1981   18.3221 H   0  0  0  0  0  0
    3.6795   53.2190   20.1502 H   0  0  0  0  0  0
    3.4292   53.0935   22.5781 H   0  0  0  0  0  0
    7.0679   55.3782   23.0410 H   0  0  0  0  0  0
    7.2593   55.5634   20.6591 H   0  0  0  0  0  0
    4.1588   53.5971   24.6417 H   0  0  0  0  0  0
    6.5960   54.8963   28.2334 H   0  0  0  0  0  0
    4.6971   54.1015   29.9596 H   0  0  0  0  0  0
    2.6131   53.2028   28.3461 H   0  0  0  0  0  0
  1  2  1  0  0  0
  1 34  1  0  0  0
  1 35  1  0  0  0
  1 36  1  0  0  0
  2  6  1  0  0  0
  2  3  2  0  0  0
  3  4  1  0  0  0
  3 37  1  0  0  0
  4  5  2  0  0  0
  4 38  1  0  0  0
  5  6  1  0  0  0
  5  7  1  0  0  0
  7  8  2  0  0  0
  7  9  2  0  0  0
  7 10  1  0  0  0
 10 16  1  0  0  0
 10 11  1  0  0  0
 11 12  1  0  0  0
 11 39  1  0  0  0
 11 40  1  0  0  0
 12 13  1  0  0  0
 12 41  1  0  0  0
 12 42  1  0  0  0
 13 14  1  0  0  0
 13 43  1  0  0  0
 13 44  1  0  0  0
 14 15  1  0  0  0
 14 16  1  0  0  0
 14 17  1  0  0  0
 16 45  1  0  0  0
 16 46  1  0  0  0
 17 18  2  0  0  0
 17 19  1  0  0  0
 19 20  1  0  0  0
 19 47  1  0  0  0
 20 25  2  0  0  0
 20 21  1  0  0  0
 21 22  2  0  0  0
 21 48  1  0  0  0
 22 23  1  0  0  0
 22 49  1  0  0  0
 23 24  2  0  0  0
 23 26  1  0  0  0
 24 25  1  0  0  0
 24 50  1  0  0  0
 25 51  1  0  0  0
 26 27  1  0  0  0
 26 52  1  0  0  0
 27 28  2  0  0  0
 27 29  1  0  0  0
 29 33  1  0  0  0
 29 30  2  0  0  0
 30 31  1  0  0  0
 30 53  1  0  0  0
 31 32  2  0  0  0
 31 54  1  0  0  0
 32 33  1  0  0  0
 32 55  1  0  0  0
M  END
> <i_i_glide_confnum>
169

> <i_i_glide_lignum>
3268

> <i_i_glide_posenum>
398

> <i_i_glide_rotatable_bonds>
8

> <i_m_Source_File_Index>
1085

> <b_m_subgroup_collapsed>
0

> <r_i_docking_score>
-4.38015

> <r_i_glide_ecoul>
-2.6718

> <r_i_glide_eff_state_penalty>
0

> <r_i_glide_einternal>
6.46656

> <r_i_glide_emodel>
-51.1928

> <r_i_glide_energy>
-42.1091

> <r_i_glide_erotb>
0.72159

> <r_i_glide_esite>
-0.0388685

> <r_i_glide_evdw>
-39.4373

> <r_i_glide_gscore>
-4.38015

> <r_i_glide_hbond>
-0.270292

> <r_i_glide_ligand_efficiency>
-0.13688

> <r_i_glide_ligand_efficiency_ln>
-0.980835

> <r_i_glide_ligand_efficiency_sa>
-0.434566

> <r_i_glide_lipo>
-2.05772

> <r_i_glide_metal>
0

> <r_i_glide_rewards>
-0.362229

> <s_i_glide_gridfile>
wee1_glide-grid

> <s_m_Source_File>
wee1_decoys_glide_SP.sdf

> <s_m_Source_Path>
/Users/zhangxujun/Desktop

> <s_m_entry_id>
1360

> <s_m_entry_name>
wee1_decoys_glide_SP.1085

> <s_m_subgroup_title>
wee1_decoys_glide_SP

> <s_m_subgroupid>
wee1_decoys_glide_SP


$$$$
