@<TRIPOS>MOLECULE
ZINC58941305_708
52   55    1
SMALL
USER_CHARGES


@<TRIPOS>ATOM
      1 C1          3.7636   54.1893   28.7425 C.ar      1 UNK         0.0000 
      2 C2          5.1043   54.4967   28.5229 C.ar      1 UNK         0.0000 
      3 C3          5.6104   54.4967   27.2269 C.ar      1 UNK         0.0000 
      4 C4          4.7690   54.1850   26.1481 C.ar      1 UNK         0.0000 
      5 C5          3.4316   53.8570   26.3808 C.ar      1 UNK         0.0000 
      6 C6          2.9255   53.8676   27.6776 C.ar      1 UNK         0.0000 
      7 N7          5.2268   54.0967   24.8238 N.am      1 UNK         0.0000 
      8 C8          6.2571   54.7531   24.2578 C.2       1 UNK         0.0000 
      9 O9          6.8475   55.6964   24.7826 O.2       1 UNK         0.0000 
     10 C10         6.7045   54.2432   22.8815 C.3       1 UNK         0.0000 
     11 C11         6.2182   55.0951   21.6554 C.3       1 UNK         0.0000 
     12 H12         5.9045   56.0920   21.9538 H         1 UNK         0.0000 
     13 C13         7.3132   55.3364   20.6394 C.2       1 UNK         0.0000 
     14 O14         8.4637   55.6966   20.8870 O.2       1 UNK         0.0000 
     15 N15         6.7378   55.0864   19.4420 N.am      1 UNK         0.0000 
     16 C16         5.4649   54.5595   19.4661 C.2       1 UNK         0.0000 
     17 S17         4.4584   54.1269   18.1924 S.2       1 UNK         0.0000 
     18 N18         5.2172   54.4748   20.8093 N.pl3     1 UNK         0.0000 
     19 N19         3.9976   54.1166   21.3946 N.am      1 UNK         0.0000 
     20 C20         3.7490   52.8229   21.6962 C.2       1 UNK         0.0000 
     21 O21         4.5520   51.9057   21.4984 O.2       1 UNK         0.0000 
     22 C22         2.4303   52.5475   22.3869 C.ar      1 UNK         0.0000 
     23 C23         1.9436   51.2336   22.4563 C.ar      1 UNK         0.0000 
     24 C24         0.7592   50.9526   23.1325 C.ar      1 UNK         0.0000 
     25 C25         0.0488   51.9843   23.7404 C.ar      1 UNK         0.0000 
     26 C26         0.5174   53.2929   23.6817 C.ar      1 UNK         0.0000 
     27 C27         1.7007   53.5755   23.0079 C.ar      1 UNK         0.0000 
     28 Cl28       -1.4227   51.6419   24.5734 Cl        1 UNK         0.0000 
     29 C29         7.4592   55.3647   18.2570 C.ar      1 UNK         0.0000 
     30 C30         7.1171   56.4806   17.4820 C.ar      1 UNK         0.0000 
     31 C31         7.8419   56.7701   16.3294 C.ar      1 UNK         0.0000 
     32 C32         8.9050   55.9508   15.9557 C.ar      1 UNK         0.0000 
     33 C33         9.2542   54.8430   16.7254 C.ar      1 UNK         0.0000 
     34 C34         8.5341   54.5488   17.8797 C.ar      1 UNK         0.0000 
     35 F35         9.6078   56.2366   14.8369 F         1 UNK         0.0000 
     36 H36         3.3706   54.1942   29.7471 H         1 UNK         0.0000 
     37 H37         5.7538   54.7440   29.3499 H         1 UNK         0.0000 
     38 H38         6.6566   54.7195   27.0802 H         1 UNK         0.0000 
     39 H39         2.7802   53.5855   25.5642 H         1 UNK         0.0000 
     40 H40         1.8901   53.6170   27.8565 H         1 UNK         0.0000 
     41 H41         4.7306   53.4371   24.2448 H         1 UNK         0.0000 
     42 H42         7.7932   54.1819   22.9228 H         1 UNK         0.0000 
     43 H43         6.4056   53.2005   22.7749 H         1 UNK         0.0000 
     44 H44         3.2742   54.8095   21.2659 H         1 UNK         0.0000 
     45 H45         2.4860   50.4186   21.9955 H         1 UNK         0.0000 
     46 H46         0.3967   49.9362   23.1867 H         1 UNK         0.0000 
     47 H47        -0.0386   54.0914   24.1490 H         1 UNK         0.0000 
     48 H48         2.0396   54.6011   22.9917 H         1 UNK         0.0000 
     49 H49         6.2941   57.1202   17.7685 H         1 UNK         0.0000 
     50 H50         7.5828   57.6275   15.7257 H         1 UNK         0.0000 
     51 H51        10.0841   54.2188   16.4289 H         1 UNK         0.0000 
     52 H52         8.8173   53.6973   18.4815 H         1 UNK         0.0000 
@<TRIPOS>BOND
     1    1    6 ar   
     2    1    2 ar   
     3    1   36 1    
     4    2    3 ar   
     5    2   37 1    
     6    3    4 ar   
     7    3   38 1    
     8    4    5 ar   
     9    4    7 1    
    10    5    6 ar   
    11    5   39 1    
    12    6   40 1    
    13    7    8 am   BACKBONE|DICT|INTERRES
    14    7   41 1    
    15    8    9 2    
    16    8   10 1    
    17   10   11 1    
    18   10   42 1    
    19   10   43 1    
    20   11   12 1    
    21   11   18 1    
    22   11   13 1    
    23   13   14 2    
    24   13   15 am   BACKBONE|DICT|INTERRES
    25   15   16 am   BACKBONE|DICT|INTERRES
    26   15   29 1    
    27   16   17 2    
    28   16   18 1    
    29   18   19 1    
    30   19   20 am   BACKBONE|DICT|INTERRES
    31   19   44 1    
    32   20   21 2    
    33   20   22 1    
    34   22   27 ar   
    35   22   23 ar   
    36   23   24 ar   
    37   23   45 1    
    38   24   25 ar   
    39   24   46 1    
    40   25   26 ar   
    41   25   28 1    
    42   26   27 ar   
    43   26   47 1    
    44   27   48 1    
    45   29   34 ar   
    46   29   30 ar   
    47   30   31 ar   
    48   30   49 1    
    49   31   32 ar   
    50   31   50 1    
    51   32   33 ar   
    52   32   35 1    
    53   33   34 ar   
    54   33   51 1    
    55   34   52 1    
@<TRIPOS>SUBSTRUCTURE
     1 UNK         1 GROUP             0       ****    0 ROOT    
