ZINC35379185_3275
                    3D
 Schrodinger Suite 2024-2.
 59 62  0  0  1  0            999 V2000
    3.1962   53.5735   22.7229 C   0  0  0  0  0  0
    4.5896   54.1664   22.5517 C   0  0  0  0  0  0
    5.0088   54.4963   21.2578 C   0  0  0  0  0  0
    6.2554   55.0770   21.0424 C   0  0  0  0  0  0
    7.1043   55.3107   22.1188 C   0  0  0  0  0  0
    6.7044   54.9867   23.4132 C   0  0  0  0  0  0
    5.4385   54.4286   23.6511 C   0  0  0  0  0  0
    4.9639   54.0962   24.9369 N   0  0  0  0  0  0
    5.4983   54.2872   26.1638 C   0  0  0  0  0  0
    6.5587   54.8730   26.3909 O   0  0  0  0  0  0
    4.6499   53.7196   27.3284 C   0  0  1  0  0  0
    3.9480   53.0103   26.8850 H   0  0  0  0  0  0
    5.5375   52.9901   28.3585 C   0  0  0  0  0  0
    4.5789   52.3657   29.3942 C   0  0  0  0  0  0
    3.7373   53.4267   30.1234 C   0  0  0  0  0  0
    3.1671   54.4699   29.2317 N   0  0  0  0  0  0
    3.9420   54.8960   28.0315 C   0  0  0  0  0  0
    1.4243   54.7329   29.2915 S   0  0  0  0  0  0
    1.0194   54.6705   30.6969 O   0  0  0  0  0  0
    1.1061   55.9093   28.4833 O   0  0  0  0  0  0
    0.7536   53.3177   28.4036 C   0  0  0  0  0  0
    1.1058   53.2093   27.0471 C   0  0  0  0  0  0
    0.6629   52.1309   26.2872 C   0  0  0  0  0  0
   -0.1479   51.1589   26.8628 C   0  0  0  0  0  0
   -0.5338   51.2827   28.1915 C   0  0  0  0  0  0
   -0.0582   52.3218   28.9884 C   0  0  0  0  0  0
   -0.4183   52.2752   30.4644 C   0  0  0  0  0  0
   -0.5024   50.0448   26.1060 N   0  0  0  0  0  0
   -0.3325   49.9040   24.7779 C   0  0  0  0  0  0
   -0.5812   48.8613   24.1743 O   0  0  0  0  0  0
    0.1738   51.2426   24.1325 C   0  0  1  0  0  0
   -0.7234   51.8559   24.0251 H   0  0  0  0  0  0
    1.0999   51.9705   24.9835 O   0  0  0  0  0  0
    0.7652   50.9873   22.7344 C   0  0  0  0  0  0
    6.6427   55.4083   19.7912 F   0  0  0  0  0  0
    3.2576   52.4979   22.8813 H   0  0  0  0  0  0
    2.6741   54.0231   23.5678 H   0  0  0  0  0  0
    2.5710   53.7596   21.8489 H   0  0  0  0  0  0
    4.3641   54.3160   20.4094 H   0  0  0  0  0  0
    8.0796   55.7438   21.9494 H   0  0  0  0  0  0
    7.4061   55.1818   24.2079 H   0  0  0  0  0  0
    4.0783   53.6128   24.9221 H   0  0  0  0  0  0
    6.0970   52.1686   27.9192 H   0  0  0  0  0  0
    6.2053   53.6753   28.8827 H   0  0  0  0  0  0
    3.8892   51.6947   28.8816 H   0  0  0  0  0  0
    5.1040   51.7460   30.1181 H   0  0  0  0  0  0
    2.9254   52.9368   30.6620 H   0  0  0  0  0  0
    4.3046   53.9443   30.8876 H   0  0  0  0  0  0
    4.6551   55.6251   28.3953 H   0  0  0  0  0  0
    3.2452   55.3752   27.3471 H   0  0  0  0  0  0
    1.7290   53.9519   26.5739 H   0  0  0  0  0  0
   -1.1523   50.5038   28.6181 H   0  0  0  0  0  0
   -1.1021   51.4584   30.7076 H   0  0  0  0  0  0
    0.4796   52.1488   31.0705 H   0  0  0  0  0  0
   -0.8952   53.1977   30.7750 H   0  0  0  0  0  0
   -0.8953   49.2430   26.5913 H   0  0  0  0  0  0
    0.0845   50.4182   22.0987 H   0  0  0  0  0  0
    0.9583   51.9292   22.2233 H   0  0  0  0  0  0
    1.7057   50.4379   22.7950 H   0  0  0  0  0  0
  1  2  1  0  0  0
  1 36  1  0  0  0
  1 37  1  0  0  0
  1 38  1  0  0  0
  2  7  2  0  0  0
  2  3  1  0  0  0
  3  4  2  0  0  0
  3 39  1  0  0  0
  4  5  1  0  0  0
  4 35  1  0  0  0
  5  6  2  0  0  0
  5 40  1  0  0  0
  6  7  1  0  0  0
  6 41  1  0  0  0
  7  8  1  0  0  0
  8  9  1  0  0  0
  8 42  1  0  0  0
  9 10  2  0  0  0
  9 11  1  0  0  0
 11 12  1  0  0  0
 11 17  1  0  0  0
 11 13  1  0  0  0
 13 14  1  0  0  0
 13 43  1  0  0  0
 13 44  1  0  0  0
 14 15  1  0  0  0
 14 45  1  0  0  0
 14 46  1  0  0  0
 15 16  1  0  0  0
 15 47  1  0  0  0
 15 48  1  0  0  0
 16 17  1  0  0  0
 16 18  1  0  0  0
 17 49  1  0  0  0
 17 50  1  0  0  0
 18 19  2  0  0  0
 18 20  2  0  0  0
 18 21  1  0  0  0
 21 26  2  0  0  0
 21 22  1  0  0  0
 22 23  2  0  0  0
 22 51  1  0  0  0
 23 33  1  0  0  0
 23 24  1  0  0  0
 24 25  2  0  0  0
 24 28  1  0  0  0
 25 26  1  0  0  0
 25 52  1  0  0  0
 26 27  1  0  0  0
 27 53  1  0  0  0
 27 54  1  0  0  0
 27 55  1  0  0  0
 28 29  1  0  0  0
 28 56  1  0  0  0
 29 30  2  0  0  0
 29 31  1  0  0  0
 31 32  1  0  0  0
 31 33  1  0  0  0
 31 34  1  0  0  0
 34 57  1  0  0  0
 34 58  1  0  0  0
 34 59  1  0  0  0
M  END
> <i_i_glide_confnum>
29

> <i_i_glide_lignum>
3276

> <i_i_glide_posenum>
64

> <i_i_glide_rotatable_bonds>
5

> <i_m_Source_File_Index>
4195

> <b_m_subgroup_collapsed>
0

> <r_i_docking_score>
-6.08345

> <r_i_glide_ecoul>
-5.67412

> <r_i_glide_eff_state_penalty>
0

> <r_i_glide_einternal>
2.04086

> <r_i_glide_emodel>
-64.6359

> <r_i_glide_energy>
-50.0117

> <r_i_glide_erotb>
0.447593

> <r_i_glide_esite>
-0.10338

> <r_i_glide_evdw>
-44.3375

> <r_i_glide_gscore>
-6.08345

> <r_i_glide_hbond>
-0.272113

> <r_i_glide_ligand_efficiency>
-0.184347

> <r_i_glide_ligand_efficiency_ln>
-1.35293

> <r_i_glide_ligand_efficiency_sa>
-0.5913

> <r_i_glide_lipo>
-2.42204

> <r_i_glide_metal>
0

> <r_i_glide_rewards>
-0.665516

> <s_i_glide_gridfile>
wee1_glide-grid

> <s_m_Source_File>
wee1_decoys_glide_SP.sdf

> <s_m_Source_Path>
/Users/zhangxujun/Desktop

> <s_m_entry_id>
4470

> <s_m_entry_name>
wee1_decoys_glide_SP.4195

> <s_m_subgroup_title>
wee1_decoys_glide_SP

> <s_m_subgroupid>
wee1_decoys_glide_SP


$$$$
