@<TRIPOS>MOLECULE
ZINC64623131_1209
60   65    1
SMALL
USER_CHARGES


@<TRIPOS>ATOM
      1 C1         11.3530   59.4585   18.6026 C.3       1 UNK         0.0000 
      2 O2         10.0022   59.7161   18.2246 O.3       1 UNK         0.0000 
      3 C3          9.1354   58.6480   18.0817 C.ar      1 UNK         0.0000 
      4 C4          9.5010   57.3046   18.2471 C.ar      1 UNK         0.0000 
      5 C5          8.5464   56.3004   18.1286 C.ar      1 UNK         0.0000 
      6 C6          7.2074   56.6191   17.8648 C.ar      1 UNK         0.0000 
      7 C7          6.8491   57.9539   17.6740 C.ar      1 UNK         0.0000 
      8 C8          7.8097   58.9533   17.7799 C.ar      1 UNK         0.0000 
      9 C9          6.1276   55.5322   17.7308 C.3       1 UNK         0.0000 
     10 H10         5.4570   55.9505   16.9771 H         1 UNK         0.0000 
     11 C11         6.6377   54.1708   17.1623 C.3       1 UNK         0.0000 
     12 H12         7.3097   53.6683   17.8607 H         1 UNK         0.0000 
     13 C13         5.4453   53.2965   16.8319 C.2       1 UNK         0.0000 
     14 C14         5.5429   52.8717   15.5643 C.2       1 UNK         0.0000 
     15 C15         4.6829   51.9939   14.7611 C.2       1 UNK         0.0000 
     16 C16         4.9885   51.7054   13.4793 C.2       1 UNK         0.0000 
     17 C17         6.1922   52.3149   12.9245 C.2       1 UNK         0.0000 
     18 C18         6.9977   53.1344   13.6529 C.2       1 UNK         0.0000 
     19 C19         6.6863   53.4272   14.9860 C.2       1 UNK         0.0000 
     20 N20         7.3155   54.1979   15.8482 N.pl3     1 UNK         0.0000 
     21 Cl21        3.9944   50.6038   12.5237 Cl        1 UNK         0.0000 
     22 C22         4.3905   53.1304   17.9158 C.3       1 UNK         0.0000 
     23 C23         4.0351   54.5292   18.4865 C.3       1 UNK         0.0000 
     24 N24         5.2857   55.2059   18.9263 N.am      1 UNK         0.0000 
     25 C25         5.8775   54.8205   20.1023 C.2       1 UNK         0.0000 
     26 O26         7.0898   54.9003   20.2717 O.2       1 UNK         0.0000 
     27 N27         5.0255   54.5066   21.1114 N.am      1 UNK         0.0000 
     28 C28         5.2764   54.3656   22.4952 C.ar      1 UNK         0.0000 
     29 C29         6.5407   54.4987   23.1035 C.ar      1 UNK         0.0000 
     30 C30         6.6773   54.4362   24.4891 C.ar      1 UNK         0.0000 
     31 C31         5.5575   54.2296   25.2876 C.ar      1 UNK         0.0000 
     32 C32         4.2908   54.0967   24.6965 C.ar      1 UNK         0.0000 
     33 C33         4.1577   54.1360   23.3074 C.ar      1 UNK         0.0000 
     34 O34         3.1598   53.8325   25.4444 O.3       1 UNK         0.0000 
     35 C35         3.3064   54.0925   26.8458 C.3       1 UNK         0.0000 
     36 C36         4.6727   53.5915   27.3745 C.3       1 UNK         0.0000 
     37 O37         5.7425   54.2125   26.6545 O.3       1 UNK         0.0000 
     38 H38        11.8950   60.4007   18.6779 H         1 UNK         0.0000 
     39 H39        11.4106   58.9680   19.5767 H         1 UNK         0.0000 
     40 H40        11.8681   58.8419   17.8641 H         1 UNK         0.0000 
     41 H41        10.5158   57.0180   18.4849 H         1 UNK         0.0000 
     42 H42         8.8535   55.2756   18.2838 H         1 UNK         0.0000 
     43 H43         5.8285   58.2304   17.4506 H         1 UNK         0.0000 
     44 H44         7.5047   59.9806   17.6367 H         1 UNK         0.0000 
     45 H45         3.8100   51.5217   15.1937 H         1 UNK         0.0000 
     46 H46         6.4500   52.1082   11.8948 H         1 UNK         0.0000 
     47 H47         7.8760   53.5546   13.1834 H         1 UNK         0.0000 
     48 H48         4.7684   52.4962   18.7168 H         1 UNK         0.0000 
     49 H49         3.4978   52.6349   17.5343 H         1 UNK         0.0000 
     50 H50         3.2735   54.4983   19.2649 H         1 UNK         0.0000 
     51 H51         3.5674   55.1449   17.7158 H         1 UNK         0.0000 
     52 H52         4.0501   54.4553   20.8617 H         1 UNK         0.0000 
     53 H53         7.4421   54.6798   22.5432 H         1 UNK         0.0000 
     54 H54         7.6517   54.5510   24.9354 H         1 UNK         0.0000 
     55 H55         3.1764   54.0214   22.8719 H         1 UNK         0.0000 
     56 H56         3.2322   55.1664   27.0196 H         1 UNK         0.0000 
     57 H57         2.4875   53.6140   27.3839 H         1 UNK         0.0000 
     58 H58         4.7787   53.8220   28.4341 H         1 UNK         0.0000 
     59 H59         4.7358   52.5044   27.2710 H         1 UNK         0.0000 
     60 H60         8.1689   54.7177   15.6638 H         1 UNK         0.0000 
@<TRIPOS>BOND
     1    1    2 1    
     2    1   38 1    
     3    1   39 1    
     4    1   40 1    
     5    2    3 1    
     6    3    8 ar   
     7    3    4 ar   
     8    4    5 ar   
     9    4   41 1    
    10    5    6 ar   
    11    5   42 1    
    12    6    7 ar   
    13    6    9 1    
    14    7    8 ar   
    15    7   43 1    
    16    8   44 1    
    17    9   10 1    
    18    9   24 1    
    19    9   11 1    
    20   11   12 1    
    21   11   20 1    
    22   11   13 1    
    23   13   14 2    
    24   13   22 1    
    25   14   19 1    
    26   14   15 1    
    27   15   16 2    
    28   15   45 1    
    29   16   17 1    
    30   16   21 1    
    31   17   18 2    
    32   17   46 1    
    33   18   19 1    
    34   18   47 1    
    35   19   20 2    
    36   20   60 1    
    37   22   23 1    
    38   22   48 1    
    39   22   49 1    
    40   23   24 1    
    41   23   50 1    
    42   23   51 1    
    43   24   25 am   BACKBONE|DICT|INTERRES
    44   25   26 2    
    45   25   27 am   BACKBONE|DICT|INTERRES
    46   27   28 1    
    47   27   52 1    
    48   28   33 ar   
    49   28   29 ar   
    50   29   30 ar   
    51   29   53 1    
    52   30   31 ar   
    53   30   54 1    
    54   31   37 1    
    55   31   32 ar   
    56   32   33 ar   
    57   32   34 1    
    58   33   55 1    
    59   34   35 1    
    60   35   36 1    
    61   35   56 1    
    62   35   57 1    
    63   36   37 1    
    64   36   58 1    
    65   36   59 1    
@<TRIPOS>SUBSTRUCTURE
     1 UNK         1 GROUP             0       ****    0 ROOT    
