@<TRIPOS>MOLECULE
ZINC02841702_3504
47   49    1
SMALL
USER_CHARGES


@<TRIPOS>ATOM
      1 C1          2.8421   53.9376   22.6863 C.3       1 UNK         0.0000 
      2 C2          3.9154   53.1953   21.8656 C.3       1 UNK         0.0000 
      3 C3          3.2605   52.4685   20.6707 C.3       1 UNK         0.0000 
      4 C4          5.0970   54.1164   21.5103 C.ar      1 UNK         0.0000 
      5 C5          5.2498   54.5877   20.1960 C.ar      1 UNK         0.0000 
      6 C6          6.3145   55.4158   19.8477 C.ar      1 UNK         0.0000 
      7 C7          7.2463   55.7881   20.8054 C.ar      1 UNK         0.0000 
      8 C8          7.1029   55.3502   22.1155 C.ar      1 UNK         0.0000 
      9 C9          6.0399   54.5126   22.4870 C.ar      1 UNK         0.0000 
     10 N10         5.9399   54.0018   23.7992 N.am      1 UNK         0.0000 
     11 C11         6.3076   54.5772   24.9649 C.2       1 UNK         0.0000 
     12 O12         6.7067   55.7336   25.0734 O.2       1 UNK         0.0000 
     13 C13         6.2311   53.6764   26.1997 C.3       1 UNK         0.0000 
     14 S14         5.8785   54.4969   27.7835 S.3       1 UNK         0.0000 
     15 C15         4.4353   53.6004   28.2648 C.ar      1 UNK         0.0000 
     16 N16         4.3045   53.0191   29.4283 N.2       1 UNK         0.0000 
     17 N17         3.0349   52.4616   29.4829 N.2       1 UNK         0.0000 
     18 C18         2.4186   52.7636   28.3630 C.ar      1 UNK         0.0000 
     19 N19         3.2537   53.5190   27.5613 N.pl3     1 UNK         0.0000 
     20 N20         2.9806   54.0961   26.3334 N.3       1 UNK         0.0000 
     21 C21         1.0144   52.3330   28.0558 C.ar      1 UNK         0.0000 
     22 C22         0.5768   52.1378   26.7404 C.ar      1 UNK         0.0000 
     23 C23        -0.7347   51.7444   26.4850 C.ar      1 UNK         0.0000 
     24 C24        -1.6100   51.5319   27.5441 C.ar      1 UNK         0.0000 
     25 C25        -1.1796   51.6962   28.8563 C.ar      1 UNK         0.0000 
     26 C26         0.1259   52.0974   29.1124 C.ar      1 UNK         0.0000 
     27 Cl27       -3.2385   51.0598   27.2283 Cl        1 UNK         0.0000 
     28 Br28        6.4936   56.0392   18.0591 Br        1 UNK         0.0000 
     29 H29         3.2667   54.4510   23.5471 H         1 UNK         0.0000 
     30 H30         2.3342   54.6911   22.0826 H         1 UNK         0.0000 
     31 H31         2.0852   53.2461   23.0559 H         1 UNK         0.0000 
     32 H32         4.3290   52.4040   22.4817 H         1 UNK         0.0000 
     33 H33         4.0022   51.9596   20.0494 H         1 UNK         0.0000 
     34 H34         2.5581   51.7093   21.0171 H         1 UNK         0.0000 
     35 H35         2.7040   53.1555   20.0316 H         1 UNK         0.0000 
     36 H36         4.5432   54.3245   19.4238 H         1 UNK         0.0000 
     37 H37         8.0868   56.4094   20.5310 H         1 UNK         0.0000 
     38 H38         7.8425   55.6627   22.8356 H         1 UNK         0.0000 
     39 H39         5.5041   53.0954   23.8608 H         1 UNK         0.0000 
     40 H40         5.4909   52.8967   26.0430 H         1 UNK         0.0000 
     41 H41         7.1891   53.1723   26.3052 H         1 UNK         0.0000 
     42 H42         3.0755   55.1040   26.3671 H         1 UNK         0.0000 
     43 H43         3.5016   53.6579   25.5862 H         1 UNK         0.0000 
     44 H44         1.2470   52.2768   25.9060 H         1 UNK         0.0000 
     45 H45        -1.0646   51.5945   25.4668 H         1 UNK         0.0000 
     46 H46        -1.8515   51.4906   29.6781 H         1 UNK         0.0000 
     47 H47         0.4435   52.2198   30.1383 H         1 UNK         0.0000 
@<TRIPOS>BOND
     1    1    2 1    
     2    1   29 1    
     3    1   30 1    
     4    1   31 1    
     5    2    3 1    
     6    2    4 1    
     7    2   32 1    
     8    3   33 1    
     9    3   34 1    
    10    3   35 1    
    11    4    9 ar   
    12    4    5 ar   
    13    5    6 ar   
    14    5   36 1    
    15    6    7 ar   
    16    6   28 1    
    17    7    8 ar   
    18    7   37 1    
    19    8    9 ar   
    20    8   38 1    
    21    9   10 1    
    22   10   11 am   BACKBONE|DICT|INTERRES
    23   10   39 1    
    24   11   12 2    
    25   11   13 1    
    26   13   14 1    
    27   13   40 1    
    28   13   41 1    
    29   14   15 1    
    30   15   19 ar   
    31   15   16 ar   
    32   16   17 ar   
    33   17   18 ar   
    34   18   19 ar   
    35   18   21 1    
    36   19   20 1    
    37   20   42 1    
    38   20   43 1    
    39   21   26 ar   
    40   21   22 ar   
    41   22   23 ar   
    42   22   44 1    
    43   23   24 ar   
    44   23   45 1    
    45   24   25 ar   
    46   24   27 1    
    47   25   26 ar   
    48   25   46 1    
    49   26   47 1    
@<TRIPOS>SUBSTRUCTURE
     1 UNK         1 GROUP             0       ****    0 ROOT    
