ZINC40475512_5666
                    3D
 Schrodinger Suite 2024-2.
 50 54  0  0  1  0            999 V2000
    9.1944   54.9182   17.9264 C   0  0  0  0  0  0
    8.5592   55.7749   19.0243 C   0  0  0  0  0  0
    7.3525   55.1567   19.4502 O   0  0  0  0  0  0
    6.7092   55.5785   20.5641 C   0  0  0  0  0  0
    7.1043   56.4964   21.2815 O   0  0  0  0  0  0
    5.5579   54.7069   20.9229 C   0  0  0  0  0  0
    5.2470   54.4966   22.2724 C   0  0  0  0  0  0
    4.1694   53.6966   22.6311 C   0  0  0  0  0  0
    3.4126   53.0733   21.6364 C   0  0  0  0  0  0
    3.7096   53.2968   20.2842 C   0  0  0  0  0  0
    4.7756   54.1104   19.9285 C   0  0  0  0  0  0
    2.4532   52.1019   21.9861 N   0  0  0  0  0  0
    2.5801   50.8253   21.5551 C   0  0  0  0  0  0
    3.5044   50.3864   20.8817 O   0  0  0  0  0  0
    1.4001   49.9982   22.0304 C   0  0  2  0  0  0
    1.8128   49.1781   22.6227 H   0  0  0  0  0  0
    0.5757   49.3600   20.8541 C   0  0  1  0  0  0
    1.1379   48.4824   20.5321 H   0  0  0  0  0  0
   -0.6994   48.8178   21.4645 C   0  0  0  0  0  0
   -1.4505   49.4283   22.4583 C   0  0  0  0  0  0
   -2.4871   48.7595   22.9268 N   0  0  0  0  0  0
   -2.5945   47.5826   22.3558 C   0  0  0  0  0  0
   -3.7775   46.3601   22.7973 S   0  5  0  0  0  0
   -1.4247   47.2793   21.1091 S   0  0  0  0  0  0
   -1.1215   51.0422   23.0763 S   0  0  0  0  0  0
    0.7122   50.9437   23.0135 C   0  0  2  0  0  0
    0.9794   50.6447   24.0292 H   0  0  0  0  0  0
    1.3729   52.3000   22.7844 C   0  0  0  0  0  0
    1.0034   53.3627   23.2870 O   0  0  0  0  0  0
    0.4053   50.2136   19.5751 C   0  0  0  0  0  0
   -0.6121   51.1753   19.4986 C   0  0  0  0  0  0
   -0.7332   52.0014   18.3825 C   0  0  0  0  0  0
    0.1605   51.8766   17.3219 C   0  0  0  0  0  0
    1.1703   50.9187   17.3741 C   0  0  0  0  0  0
    1.2955   50.0858   18.4861 C   0  0  0  0  0  0
    2.3042   49.1543   18.4817 O   0  0  0  0  0  0
   10.1279   55.3627   17.5813 H   0  0  0  0  0  0
    8.5309   54.8215   17.0667 H   0  0  0  0  0  0
    9.4210   53.9164   18.2925 H   0  0  0  0  0  0
    9.2559   55.8707   19.8597 H   0  0  0  0  0  0
    8.3510   56.7790   18.6523 H   0  0  0  0  0  0
    5.8437   54.9456   23.0546 H   0  0  0  0  0  0
    3.9594   53.5197   23.6760 H   0  0  0  0  0  0
    3.1384   52.8079   19.5065 H   0  0  0  0  0  0
    4.9911   54.2550   18.8787 H   0  0  0  0  0  0
   -1.3121   51.2969   20.3091 H   0  0  0  0  0  0
   -1.5177   52.7413   18.3397 H   0  0  0  0  0  0
    0.0708   52.5186   16.4582 H   0  0  0  0  0  0
    1.8594   50.8229   16.5470 H   0  0  0  0  0  0
    2.9749   49.2913   17.7862 H   0  0  0  0  0  0
  1  2  1  0  0  0
  1 37  1  0  0  0
  1 38  1  0  0  0
  1 39  1  0  0  0
  2  3  1  0  0  0
  2 40  1  0  0  0
  2 41  1  0  0  0
  3  4  1  0  0  0
  4  5  2  0  0  0
  4  6  1  0  0  0
  6 11  2  0  0  0
  6  7  1  0  0  0
  7  8  2  0  0  0
  7 42  1  0  0  0
  8  9  1  0  0  0
  8 43  1  0  0  0
  9 10  2  0  0  0
  9 12  1  0  0  0
 10 11  1  0  0  0
 10 44  1  0  0  0
 11 45  1  0  0  0
 12 28  1  0  0  0
 12 13  1  0  0  0
 13 14  2  0  0  0
 13 15  1  0  0  0
 15 16  1  0  0  0
 15 26  1  0  0  0
 15 17  1  0  0  0
 17 18  1  0  0  0
 17 19  1  0  0  0
 17 30  1  0  0  0
 19 24  1  0  0  0
 19 20  2  0  0  0
 20 21  1  0  0  0
 20 25  1  0  0  0
 21 22  2  0  0  0
 22 23  1  0  0  0
 22 24  1  0  0  0
 25 26  1  0  0  0
 26 27  1  0  0  0
 26 28  1  0  0  0
 28 29  2  0  0  0
 30 35  2  0  0  0
 30 31  1  0  0  0
 31 32  2  0  0  0
 31 46  1  0  0  0
 32 33  1  0  0  0
 32 47  1  0  0  0
 33 34  2  0  0  0
 33 48  1  0  0  0
 34 35  1  0  0  0
 34 49  1  0  0  0
 35 36  1  0  0  0
 36 50  1  0  0  0
M  CHG  1  23  -1
M  END
> <i_i_glide_confnum>
15

> <i_i_glide_lignum>
5667

> <i_i_glide_posenum>
388

> <i_i_glide_rotatable_bonds>
6

> <i_m_Source_File_Index>
90

> <b_m_subgroup_collapsed>
0

> <r_i_docking_score>
-4.69972

> <r_i_glide_ecoul>
-9.77624

> <r_i_glide_eff_state_penalty>
0

> <r_i_glide_einternal>
2.50473

> <r_i_glide_emodel>
-54.6587

> <r_i_glide_energy>
-42.2377

> <r_i_glide_erotb>
0.329573

> <r_i_glide_esite>
0

> <r_i_glide_evdw>
-32.4614

> <r_i_glide_gscore>
-4.69972

> <r_i_glide_hbond>
-0.256737

> <r_i_glide_ligand_efficiency>
-0.142416

> <r_i_glide_ligand_efficiency_ln>
-1.04519

> <r_i_glide_ligand_efficiency_sa>
-0.456803

> <r_i_glide_lipo>
-1.01845

> <r_i_glide_metal>
0

> <r_i_glide_rewards>
-0.664593

> <s_i_glide_gridfile>
wee1_glide-grid

> <s_m_Source_File>
wee1_decoys_glide_SP.sdf

> <s_m_Source_Path>
/Users/zhangxujun/Desktop

> <s_m_entry_id>
365

> <s_m_entry_name>
wee1_decoys_glide_SP.90

> <s_m_subgroup_title>
wee1_decoys_glide_SP

> <s_m_subgroupid>
wee1_decoys_glide_SP


$$$$
