@<TRIPOS>MOLECULE
ZINC06553425_885
66   70    1
SMALL
USER_CHARGES


@<TRIPOS>ATOM
      1 C1          1.5714   41.8956   18.3422 C.3       1 UNK         0.0000 
      2 C2          0.6348   42.9011   19.0048 C.2       1 UNK         0.0000 
      3 O3         -0.0957   42.5178   19.9207 O.2       1 UNK         0.0000 
      4 N4          0.7040   44.1589   18.5140 N.am      1 UNK         0.0000 
      5 C5          0.0557   45.3424   18.9197 C.ar      1 UNK         0.0000 
      6 C6          0.4447   46.5108   18.2591 C.ar      1 UNK         0.0000 
      7 C7         -0.1158   47.7398   18.6045 C.ar      1 UNK         0.0000 
      8 C8         -1.0723   47.8096   19.6179 C.ar      1 UNK         0.0000 
      9 C9         -1.4546   46.6512   20.2953 C.ar      1 UNK         0.0000 
     10 C10        -0.9031   45.4206   19.9441 C.ar      1 UNK         0.0000 
     11 S11        -1.8649   49.3825   19.9868 S.o2      1 UNK         0.0000 
     12 O12        -2.0426   50.0528   18.6940 O.2       1 UNK         0.0000 
     13 O13        -3.0208   49.0969   20.8470 O.2       1 UNK         0.0000 
     14 N14        -0.7081   50.3488   20.9269 N.pl3     1 UNK         0.0000 
     15 C15         0.5548   50.7504   20.2908 C.3       1 UNK         0.0000 
     16 C16         1.0095   52.0961   20.8857 C.3       1 UNK         0.0000 
     17 N17         1.0712   52.0626   22.3822 N.pl3     1 UNK         0.0000 
     18 C18        -0.1237   51.4511   23.0492 C.3       1 UNK         0.0000 
     19 C19        -0.5563   50.1244   22.3753 C.3       1 UNK         0.0000 
     20 C20         2.0707   52.8152   23.1044 C.ar      1 UNK         0.0000 
     21 N21         3.1585   53.2824   22.4670 N.pl3     1 UNK         0.0000 
     22 C22         4.1976   53.9030   23.1108 C.ar      1 UNK         0.0000 
     23 C23         5.3545   54.2977   22.4045 C.ar      1 UNK         0.0000 
     24 C24         6.4017   54.8953   23.1033 C.ar      1 UNK         0.0000 
     25 C25         6.3044   55.1119   24.4766 C.ar      1 UNK         0.0000 
     26 C26         5.1702   54.7245   25.1908 C.ar      1 UNK         0.0000 
     27 C27         4.0809   54.0960   24.5197 C.ar      1 UNK         0.0000 
     28 C28         2.8897   53.6116   25.1470 C.ar      1 UNK         0.0000 
     29 N29         1.9095   52.9726   24.4454 N.ar      1 UNK         0.0000 
     30 N30         2.7282   53.7662   26.5369 N.pl3     1 UNK         0.0000 
     31 C31         1.5527   53.3283   27.2871 C.3       1 UNK         0.0000 
     32 C32         1.5048   51.8354   27.6417 C.3       1 UNK         0.0000 
     33 C33         0.7722   51.7455   28.9902 C.3       1 UNK         0.0000 
     34 C34         0.4056   53.1792   29.3951 C.3       1 UNK         0.0000 
     35 C35         1.3470   54.0835   28.6022 C.3       1 UNK         0.0000 
     36 H36         2.5118   42.3650   18.0482 H         1 UNK         0.0000 
     37 H37         1.1068   41.4711   17.4518 H         1 UNK         0.0000 
     38 H38         1.8071   41.0816   19.0306 H         1 UNK         0.0000 
     39 H39         1.3496   44.2957   17.7502 H         1 UNK         0.0000 
     40 H40         1.1897   46.4834   17.4756 H         1 UNK         0.0000 
     41 H41         0.1823   48.6289   18.0667 H         1 UNK         0.0000 
     42 H42        -2.1975   46.6946   21.0795 H         1 UNK         0.0000 
     43 H43        -1.2288   44.5484   20.4876 H         1 UNK         0.0000 
     44 H44         1.3129   49.9944   20.5042 H         1 UNK         0.0000 
     45 H45         0.4174   50.8254   19.2117 H         1 UNK         0.0000 
     46 H46         1.9803   52.3512   20.4635 H         1 UNK         0.0000 
     47 H47         0.3162   52.8935   20.6178 H         1 UNK         0.0000 
     48 H48        -0.9260   52.1918   23.0068 H         1 UNK         0.0000 
     49 H49         0.1045   51.2638   24.0996 H         1 UNK         0.0000 
     50 H50        -1.4973   49.7674   22.7941 H         1 UNK         0.0000 
     51 H51         0.2209   49.3752   22.5416 H         1 UNK         0.0000 
     52 H52         5.4180   54.1405   21.3360 H         1 UNK         0.0000 
     53 H53         7.2908   55.2096   22.5736 H         1 UNK         0.0000 
     54 H54         7.1208   55.5924   24.9910 H         1 UNK         0.0000 
     55 H55         5.1327   54.8956   26.2596 H         1 UNK         0.0000 
     56 H56         3.4553   54.2333   27.0548 H         1 UNK         0.0000 
     57 H57         0.7037   53.5408   26.6434 H         1 UNK         0.0000 
     58 H58         0.9870   51.2567   26.8742 H         1 UNK         0.0000 
     59 H59         2.5085   51.4335   27.7657 H         1 UNK         0.0000 
     60 H60        -0.1132   51.1077   28.9307 H         1 UNK         0.0000 
     61 H61         1.4281   51.2982   29.7360 H         1 UNK         0.0000 
     62 H62        -0.6263   53.3822   29.1113 H         1 UNK         0.0000 
     63 H63         0.4799   53.3399   30.4718 H         1 UNK         0.0000 
     64 H64         2.2931   54.2007   29.1323 H         1 UNK         0.0000 
     65 H65         0.9271   55.0781   28.4470 H         1 UNK         0.0000 
     66 H66         3.2213   53.1377   21.4717 H         1 UNK         0.0000 
@<TRIPOS>BOND
     1    1    2 1    
     2    1   36 1    
     3    1   37 1    
     4    1   38 1    
     5    2    3 2    
     6    2    4 am   BACKBONE|DICT|INTERRES
     7    4    5 1    
     8    4   39 1    
     9    5   10 ar   
    10    5    6 ar   
    11    6    7 ar   
    12    6   40 1    
    13    7    8 ar   
    14    7   41 1    
    15    8    9 ar   
    16    8   11 1    
    17    9   10 ar   
    18    9   42 1    
    19   10   43 1    
    20   11   12 2    
    21   11   13 2    
    22   11   14 1    
    23   14   19 1    
    24   14   15 1    
    25   15   16 1    
    26   15   44 1    
    27   15   45 1    
    28   16   17 1    
    29   16   46 1    
    30   16   47 1    
    31   17   18 1    
    32   17   20 1    
    33   18   19 1    
    34   18   48 1    
    35   18   49 1    
    36   19   50 1    
    37   19   51 1    
    38   20   29 ar   
    39   20   21 ar   
    40   21   22 ar   
    41   21   66 1    
    42   22   27 ar   
    43   22   23 ar   
    44   23   24 ar   
    45   23   52 1    
    46   24   25 ar   
    47   24   53 1    
    48   25   26 ar   
    49   25   54 1    
    50   26   27 ar   
    51   26   55 1    
    52   27   28 ar   
    53   28   29 ar   
    54   28   30 1    
    55   30   31 1    
    56   30   56 1    
    57   31   35 1    
    58   31   32 1    
    59   31   57 1    
    60   32   33 1    
    61   32   58 1    
    62   32   59 1    
    63   33   34 1    
    64   33   60 1    
    65   33   61 1    
    66   34   35 1    
    67   34   62 1    
    68   34   63 1    
    69   35   64 1    
    70   35   65 1    
@<TRIPOS>SUBSTRUCTURE
     1 UNK         1 GROUP             0       ****    0 ROOT    
