@<TRIPOS>MOLECULE
ZINC11293270_97
52   55    1
SMALL
USER_CHARGES


@<TRIPOS>ATOM
      1 C1          3.2998   53.9024   26.4528 C.ar      1 UNK         0.0000 
      2 C2          4.6804   54.0983   26.4095 C.ar      1 UNK         0.0000 
      3 C3          5.3755   54.3500   27.6031 C.ar      1 UNK         0.0000 
      4 C4          4.6619   54.4969   28.7887 C.ar      1 UNK         0.0000 
      5 C5          3.2800   54.3144   28.8456 C.ar      1 UNK         0.0000 
      6 C6          2.5888   53.9937   27.6519 C.ar      1 UNK         0.0000 
      7 O7          1.2450   53.6850   27.6006 O.3       1 UNK         0.0000 
      8 C8          0.7127   52.9078   28.6680 C.3       1 UNK         0.0000 
      9 C9          0.3372   53.7749   29.8739 C.3       1 UNK         0.0000 
     10 C10         1.3168   54.9308   30.1116 C.3       1 UNK         0.0000 
     11 O11         2.6757   54.4998   30.0768 O.3       1 UNK         0.0000 
     12 Cl12        7.1035   54.4164   27.6818 Cl        1 UNK         0.0000 
     13 N13         5.3199   53.8880   25.1805 N.am      1 UNK         0.0000 
     14 C14         6.1719   54.7272   24.5658 C.2       1 UNK         0.0000 
     15 O15         6.4397   55.8550   24.9771 O.2       1 UNK         0.0000 
     16 C16         6.8462   54.1896   23.3014 C.3       1 UNK         0.0000 
     17 S17         6.7042   55.3016   21.8651 S.3       1 UNK         0.0000 
     18 C18         5.5042   54.4541   20.8901 C.2       1 UNK         0.0000 
     19 N19         5.4884   54.5062   19.5802 N.2       1 UNK         0.0000 
     20 N20         4.5169   53.6959   19.0092 N.2       1 UNK         0.0000 
     21 C21         3.7972   53.0693   19.9030 C.2       1 UNK         0.0000 
     22 S22         4.2270   53.4609   21.5457 S.3       1 UNK         0.0000 
     23 N23         2.7990   52.1850   19.5884 N.pl3     1 UNK         0.0000 
     24 C24         1.9505   51.4383   20.5073 C.3       1 UNK         0.0000 
     25 C25         0.6972   50.9523   19.7515 C.3       1 UNK         0.0000 
     26 C26        -0.2426   50.2151   20.7303 C.3       1 UNK         0.0000 
     27 C27         0.4810   49.0454   21.4415 C.3       1 UNK         0.0000 
     28 C28         1.8266   49.4689   22.0790 C.3       1 UNK         0.0000 
     29 C29         2.7158   50.2199   21.0659 C.3       1 UNK         0.0000 
     30 H30         2.7598   53.6476   25.5518 H         1 UNK         0.0000 
     31 H31         5.2011   54.7542   29.6825 H         1 UNK         0.0000 
     32 H32        -0.1741   52.3888   28.3025 H         1 UNK         0.0000 
     33 H33         1.4053   52.1086   28.9452 H         1 UNK         0.0000 
     34 H34        -0.6619   54.1801   29.7314 H         1 UNK         0.0000 
     35 H35         0.2793   53.1459   30.7628 H         1 UNK         0.0000 
     36 H36         1.1585   55.7446   29.3995 H         1 UNK         0.0000 
     37 H37         1.1147   55.3741   31.0872 H         1 UNK         0.0000 
     38 H38         5.0935   53.0215   24.7185 H         1 UNK         0.0000 
     39 H39         7.9037   54.0910   23.5311 H         1 UNK         0.0000 
     40 H40         6.5222   53.1798   23.0557 H         1 UNK         0.0000 
     41 H41         2.7448   51.8460   18.6374 H         1 UNK         0.0000 
     42 H42         1.6445   52.1006   21.3200 H         1 UNK         0.0000 
     43 H43         0.1713   51.7927   19.2945 H         1 UNK         0.0000 
     44 H44         0.9774   50.2712   18.9444 H         1 UNK         0.0000 
     45 H45        -0.6210   50.9176   21.4755 H         1 UNK         0.0000 
     46 H46        -1.1158   49.8385   20.1948 H         1 UNK         0.0000 
     47 H47        -0.1700   48.6106   22.2019 H         1 UNK         0.0000 
     48 H48         0.6686   48.2517   20.7149 H         1 UNK         0.0000 
     49 H49         1.6383   50.1049   22.9462 H         1 UNK         0.0000 
     50 H50         2.3534   48.5937   22.4612 H         1 UNK         0.0000 
     51 H51         2.9957   49.5425   20.2564 H         1 UNK         0.0000 
     52 H52         3.6407   50.5296   21.5520 H         1 UNK         0.0000 
@<TRIPOS>BOND
     1    1    6 ar   
     2    1    2 ar   
     3    1   30 1    
     4    2    3 ar   
     5    2   13 1    
     6    3    4 ar   
     7    3   12 1    
     8    4    5 ar   
     9    4   31 1    
    10    5   11 1    
    11    5    6 ar   
    12    6    7 1    
    13    7    8 1    
    14    8    9 1    
    15    8   32 1    
    16    8   33 1    
    17    9   10 1    
    18    9   34 1    
    19    9   35 1    
    20   10   11 1    
    21   10   36 1    
    22   10   37 1    
    23   13   14 am   BACKBONE|DICT|INTERRES
    24   13   38 1    
    25   14   15 2    
    26   14   16 1    
    27   16   17 1    
    28   16   39 1    
    29   16   40 1    
    30   17   18 1    
    31   18   22 1    
    32   18   19 2    
    33   19   20 1    
    34   20   21 2    
    35   21   22 1    
    36   21   23 1    
    37   23   24 1    
    38   23   41 1    
    39   24   29 1    
    40   24   25 1    
    41   24   42 1    
    42   25   26 1    
    43   25   43 1    
    44   25   44 1    
    45   26   27 1    
    46   26   45 1    
    47   26   46 1    
    48   27   28 1    
    49   27   47 1    
    50   27   48 1    
    51   28   29 1    
    52   28   49 1    
    53   28   50 1    
    54   29   51 1    
    55   29   52 1    
@<TRIPOS>SUBSTRUCTURE
     1 UNK         1 GROUP             0       ****    0 ROOT    
