@<TRIPOS>MOLECULE
ZINC59474803_4005
48   51    1
SMALL
USER_CHARGES


@<TRIPOS>ATOM
      1 C1          3.1067   58.5054   16.0032 C.ar      1 UNK         0.0000 
      2 C2          1.8945   57.9104   15.6816 C.ar      1 UNK         0.0000 
      3 C3          1.6319   56.6087   16.0989 C.ar      1 UNK         0.0000 
      4 C4          2.5687   55.8665   16.8421 C.ar      1 UNK         0.0000 
      5 C5          3.8061   56.4844   17.1693 C.ar      1 UNK         0.0000 
      6 C6          4.0562   57.7987   16.7322 C.ar      1 UNK         0.0000 
      7 N7          4.7653   55.7565   17.9032 N.am      1 UNK         0.0000 
      8 C8          5.8115   56.1954   18.6336 C.2       1 UNK         0.0000 
      9 O9          6.0927   57.3801   18.8170 O.2       1 UNK         0.0000 
     10 C10         6.6810   55.1048   19.2668 C.3       1 UNK         0.0000 
     11 S11         7.5015   55.6401   20.8090 S.3       1 UNK         0.0000 
     12 C12         6.4156   55.0732   22.0866 C.2       1 UNK         0.0000 
     13 N13         6.7081   55.2966   23.3316 N.2       1 UNK         0.0000 
     14 C14         5.7698   54.8438   24.1865 C.ar      1 UNK         0.0000 
     15 C15         5.8486   54.9782   25.5745 C.ar      1 UNK         0.0000 
     16 C16         4.7789   54.5287   26.3394 C.ar      1 UNK         0.0000 
     17 C17         3.6450   53.9563   25.7422 C.ar      1 UNK         0.0000 
     18 C18         3.5606   53.8107   24.3513 C.ar      1 UNK         0.0000 
     19 C19         4.6428   54.2458   23.5782 C.ar      1 UNK         0.0000 
     20 S20         4.8930   54.2233   21.8320 S.3       1 UNK         0.0000 
     21 N21         2.5394   53.4894   26.4605 N.am      1 UNK         0.0000 
     22 C22         2.4079   53.2128   27.7757 C.2       1 UNK         0.0000 
     23 O23         3.2592   53.4349   28.6376 O.2       1 UNK         0.0000 
     24 C24         1.0792   52.6012   28.1510 C.ar      1 UNK         0.0000 
     25 C25         0.6540   52.6368   29.4866 C.ar      1 UNK         0.0000 
     26 C26        -0.5750   52.0963   29.8443 C.ar      1 UNK         0.0000 
     27 C27        -1.3903   51.5253   28.8688 C.ar      1 UNK         0.0000 
     28 C28        -0.9686   51.4536   27.5458 C.ar      1 UNK         0.0000 
     29 C29         0.2646   51.9789   27.1888 C.ar      1 UNK         0.0000 
     30 Cl30       -2.9425   50.8968   29.2820 Cl        1 UNK         0.0000 
     31 N31         2.2086   54.4730   17.2453 N.pl3     1 UNK         0.0000 
     32 O32         3.0726   53.7185   17.6808 O.co2     1 UNK         0.0000 
     33 O33         1.0412   54.1124   17.1097 O.co2     1 UNK         0.0000 
     34 H34         3.3146   59.5198   15.6900 H         1 UNK         0.0000 
     35 H35         1.1572   58.4611   15.1168 H         1 UNK         0.0000 
     36 H36         0.6818   56.1726   15.8261 H         1 UNK         0.0000 
     37 H37         4.9883   58.3054   16.9344 H         1 UNK         0.0000 
     38 H38         4.5619   54.7652   17.9451 H         1 UNK         0.0000 
     39 H39         6.1436   54.1674   19.3992 H         1 UNK         0.0000 
     40 H40         7.4747   54.8938   18.5519 H         1 UNK         0.0000 
     41 H41         6.7037   55.4408   26.0379 H         1 UNK         0.0000 
     42 H42         4.8488   54.6627   27.4074 H         1 UNK         0.0000 
     43 H43         2.6969   53.3646   23.8807 H         1 UNK         0.0000 
     44 H44         1.7386   53.2579   25.8951 H         1 UNK         0.0000 
     45 H45         1.2668   53.0882   30.2553 H         1 UNK         0.0000 
     46 H46        -0.8950   52.1151   30.8777 H         1 UNK         0.0000 
     47 H47        -1.5938   50.9818   26.8037 H         1 UNK         0.0000 
     48 H48         0.5646   51.8895   26.1552 H         1 UNK         0.0000 
@<TRIPOS>BOND
     1    1    6 ar   
     2    1    2 ar   
     3    1   34 1    
     4    2    3 ar   
     5    2   35 1    
     6    3    4 ar   
     7    3   36 1    
     8    4    5 ar   
     9    4   31 1    
    10    5    6 ar   
    11    5    7 1    
    12    6   37 1    
    13    7    8 am   BACKBONE|DICT|INTERRES
    14    7   38 1    
    15    8    9 2    
    16    8   10 1    
    17   10   11 1    
    18   10   39 1    
    19   10   40 1    
    20   11   12 1    
    21   12   20 1    
    22   12   13 2    
    23   13   14 1    
    24   14   19 ar   
    25   14   15 ar   
    26   15   16 ar   
    27   15   41 1    
    28   16   17 ar   
    29   16   42 1    
    30   17   18 ar   
    31   17   21 1    
    32   18   19 ar   
    33   18   43 1    
    34   19   20 1    
    35   21   22 am   BACKBONE|DICT|INTERRES
    36   21   44 1    
    37   22   23 2    
    38   22   24 1    
    39   24   29 ar   
    40   24   25 ar   
    41   25   26 ar   
    42   25   45 1    
    43   26   27 ar   
    44   26   46 1    
    45   27   28 ar   
    46   27   30 1    
    47   28   29 ar   
    48   28   47 1    
    49   29   48 1    
    50   31   32 2    
    51   31   33 1    
@<TRIPOS>SUBSTRUCTURE
     1 UNK         1 GROUP             0       ****    0 ROOT    
