ZINC39672135_1289
                    3D
 Schrodinger Suite 2024-2.
 73 76  0  0  1  0            999 V2000
   -0.3340   54.9882   17.3837 C   0  0  0  0  0  0
   -1.6986   54.2900   17.4755 C   0  0  0  0  0  0
   -1.6808   52.7974   17.0776 C   0  0  0  0  0  0
   -0.6710   51.8699   17.8188 C   0  0  2  0  0  0
    0.3243   52.2165   17.5382 H   0  0  0  0  0  0
   -0.8232   50.4213   17.3006 C   0  0  0  0  0  0
   -0.7793   51.8979   19.3679 C   0  0  0  0  0  0
   -1.8846   52.0966   19.8826 O   0  0  0  0  0  0
    0.3392   51.7407   20.1233 N   0  0  0  0  0  0
    1.6596   51.3711   19.5916 C   0  0  0  0  0  0
    2.4728   50.9608   20.8363 C   0  0  2  0  0  0
    3.0667   50.0802   20.5807 H   0  0  0  0  0  0
    1.4130   50.6245   21.9360 C   0  0  0  0  0  0
    0.2787   51.6225   21.5870 C   0  0  0  0  0  0
    0.9498   49.1526   21.7438 C   0  0  0  0  0  0
   -0.2262   48.7551   22.6732 C   0  0  0  0  0  0
    0.2054   48.9752   24.1427 N   0  3  0  0  0  0
    0.7389   50.3973   24.4083 C   0  0  0  0  0  0
    1.8908   50.6570   23.4178 C   0  0  0  0  0  0
    3.5092   52.0214   21.2817 C   0  0  0  0  0  0
    4.6204   51.6737   21.6775 O   0  0  0  0  0  0
    3.1041   53.2967   21.3254 N   0  0  0  0  0  0
    3.8504   54.3971   21.9233 C   0  0  0  0  0  0
    4.0142   54.3211   23.4400 C   0  0  0  0  0  0
    2.9115   54.1247   24.2692 C   0  0  0  0  0  0
    3.0721   54.0880   25.6516 C   0  0  0  0  0  0
    4.3262   54.2959   26.2434 C   0  0  0  0  0  0
    5.4452   54.5105   25.4020 C   0  0  0  0  0  0
    5.2723   54.4941   24.0145 C   0  0  0  0  0  0
    6.8185   54.7985   25.9857 C   0  0  0  0  0  0
    6.9697   54.0821   27.3295 C   0  0  0  0  0  0
    5.8006   54.4516   28.2502 C   0  0  0  0  0  0
    4.4861   54.2031   27.6361 N   0  0  0  0  0  0
    3.4519   54.4999   28.6292 C   0  0  0  0  0  0
   -0.4190   56.0468   17.6341 H   0  0  0  0  0  0
    0.0837   54.9180   16.3782 H   0  0  0  0  0  0
    0.3810   54.5492   18.0795 H   0  0  0  0  0  0
   -2.0960   54.4000   18.4814 H   0  0  0  0  0  0
   -2.4035   54.8144   16.8291 H   0  0  0  0  0  0
   -2.6912   52.4040   17.2027 H   0  0  0  0  0  0
   -1.4807   52.7400   16.0063 H   0  0  0  0  0  0
   -0.0962   49.7416   17.7467 H   0  0  0  0  0  0
   -1.8147   50.0201   17.5186 H   0  0  0  0  0  0
   -0.6796   50.3725   16.2205 H   0  0  0  0  0  0
    1.5827   50.4784   18.9693 H   0  0  0  0  0  0
    2.1632   52.1441   19.0058 H   0  0  0  0  0  0
    0.5692   52.5787   22.0232 H   0  0  0  0  0  0
   -0.6877   51.3438   22.0044 H   0  0  0  0  0  0
    0.6166   48.9958   20.7163 H   0  0  0  0  0  0
    1.8095   48.4968   21.8675 H   0  0  0  0  0  0
   -1.1299   49.3449   22.5154 H   0  0  0  0  0  0
   -0.4959   47.7012   22.5891 H   0  0  0  0  0  0
   -0.5600   48.7733   24.7747 H   0  0  0  0  0  0
   -0.0993   51.0877   24.3006 H   0  0  0  0  0  0
    1.0699   50.4018   25.4476 H   0  0  0  0  0  0
    2.7045   49.9491   23.5777 H   0  0  0  0  0  0
    2.3039   51.6308   23.6648 H   0  0  0  0  0  0
    2.2194   53.5427   20.9006 H   0  0  0  0  0  0
    4.8117   54.5130   21.4176 H   0  0  0  0  0  0
    3.2792   55.2967   21.7139 H   0  0  0  0  0  0
    1.9272   53.9951   23.8423 H   0  0  0  0  0  0
    2.1980   53.8937   26.2520 H   0  0  0  0  0  0
    6.1280   54.6587   23.3745 H   0  0  0  0  0  0
    7.5962   54.4986   25.2853 H   0  0  0  0  0  0
    6.9141   55.8757   26.1273 H   0  0  0  0  0  0
    7.9044   54.3589   27.8128 H   0  0  0  0  0  0
    7.0094   53.0000   27.1932 H   0  0  0  0  0  0
    5.8623   55.5337   28.3724 H   0  0  0  0  0  0
    5.8822   54.0984   29.2795 H   0  0  0  0  0  0
    3.4818   55.5521   28.9146 H   0  0  0  0  0  0
    2.4471   54.2858   28.2748 H   0  0  0  0  0  0
    3.6000   53.9012   29.5282 H   0  0  0  0  0  0
    0.9436   48.3199   24.3762 H   0  0  0  0  0  0
  1  2  1  0  0  0
  1 35  1  0  0  0
  1 36  1  0  0  0
  1 37  1  0  0  0
  2  3  1  0  0  0
  2 38  1  0  0  0
  2 39  1  0  0  0
  3  4  1  0  0  0
  3 40  1  0  0  0
  3 41  1  0  0  0
  4  5  1  0  0  0
  4  6  1  0  0  0
  4  7  1  0  0  0
  6 42  1  0  0  0
  6 43  1  0  0  0
  6 44  1  0  0  0
  7  8  2  0  0  0
  7  9  1  0  0  0
  9 14  1  0  0  0
  9 10  1  0  0  0
 10 11  1  0  0  0
 10 45  1  0  0  0
 10 46  1  0  0  0
 11 12  1  0  0  0
 11 13  1  0  0  0
 11 20  1  0  0  0
 13 19  1  0  0  0
 13 14  1  0  0  0
 13 15  1  0  0  0
 14 47  1  0  0  0
 14 48  1  0  0  0
 15 16  1  0  0  0
 15 49  1  0  0  0
 15 50  1  0  0  0
 16 17  1  0  0  0
 16 51  1  0  0  0
 16 52  1  0  0  0
 17 18  1  0  0  0
 17 53  1  0  0  0
 17 73  1  0  0  0
 18 19  1  0  0  0
 18 54  1  0  0  0
 18 55  1  0  0  0
 19 56  1  0  0  0
 19 57  1  0  0  0
 20 21  2  0  0  0
 20 22  1  0  0  0
 22 23  1  0  0  0
 22 58  1  0  0  0
 23 24  1  0  0  0
 23 59  1  0  0  0
 23 60  1  0  0  0
 24 29  2  0  0  0
 24 25  1  0  0  0
 25 26  2  0  0  0
 25 61  1  0  0  0
 26 27  1  0  0  0
 26 62  1  0  0  0
 27 33  1  0  0  0
 27 28  2  0  0  0
 28 29  1  0  0  0
 28 30  1  0  0  0
 29 63  1  0  0  0
 30 31  1  0  0  0
 30 64  1  0  0  0
 30 65  1  0  0  0
 31 32  1  0  0  0
 31 66  1  0  0  0
 31 67  1  0  0  0
 32 33  1  0  0  0
 32 68  1  0  0  0
 32 69  1  0  0  0
 33 34  1  0  0  0
 34 70  1  0  0  0
 34 71  1  0  0  0
 34 72  1  0  0  0
M  CHG  1  17   1
M  END
> <i_i_glide_confnum>
393

> <i_i_glide_lignum>
1290

> <i_i_glide_posenum>
15

> <i_i_glide_rotatable_bonds>
8

> <i_m_Source_File_Index>
2286

> <b_m_subgroup_collapsed>
0

> <r_i_docking_score>
-6.04647

> <r_i_glide_ecoul>
-7.32661

> <r_i_glide_eff_state_penalty>
0

> <r_i_glide_einternal>
5.65853

> <r_i_glide_emodel>
-58.0265

> <r_i_glide_energy>
-44.0821

> <r_i_glide_erotb>
0.716975

> <r_i_glide_esite>
-0.0729941

> <r_i_glide_evdw>
-36.7555

> <r_i_glide_gscore>
-6.04647

> <r_i_glide_hbond>
-0.476708

> <r_i_glide_ligand_efficiency>
-0.188952

> <r_i_glide_ligand_efficiency_ln>
-1.35397

> <r_i_glide_ligand_efficiency_sa>
-0.599886

> <r_i_glide_lipo>
-2.4571

> <r_i_glide_metal>
0

> <r_i_glide_rewards>
-0.819874

> <s_i_glide_gridfile>
wee1_glide-grid

> <s_m_Source_File>
wee1_decoys_glide_SP.sdf

> <s_m_Source_Path>
/Users/zhangxujun/Desktop

> <s_m_entry_id>
2561

> <s_m_entry_name>
wee1_decoys_glide_SP.2286

> <s_m_subgroup_title>
wee1_decoys_glide_SP

> <s_m_subgroupid>
wee1_decoys_glide_SP


$$$$
