@<TRIPOS>MOLECULE
ZINC02946107_2908
76   79    1
SMALL
USER_CHARGES


@<TRIPOS>ATOM
      1 C1          0.3966   52.4571   25.4368 C.3       1 UNK         0.0000 
      2 C2          1.4769   53.4730   25.9064 C.3       1 UNK         0.0000 
      3 H3          1.1226   54.4947   25.8084 H         1 UNK         0.0000 
      4 C4          1.9273   53.2088   27.3523 C.ar      1 UNK         0.0000 
      5 C5          0.9676   52.8799   28.3141 C.ar      1 UNK         0.0000 
      6 C6          1.3055   52.5174   29.6184 C.ar      1 UNK         0.0000 
      7 C7          2.6431   52.5523   30.0067 C.ar      1 UNK         0.0000 
      8 C8          3.6059   52.9929   29.0872 C.ar      1 UNK         0.0000 
      9 C9          3.2732   53.2994   27.7638 C.ar      1 UNK         0.0000 
     10 C10         4.3855   53.6412   26.7812 C.3       1 UNK         0.0000 
     11 C11         3.8779   54.2401   25.4634 C.3       1 UNK         0.0000 
     12 N12         2.6814   53.4134   24.9351 N.4       1 UNK         0.0000 
     13 C13         2.2954   53.9542   23.5319 C.3       1 UNK         0.0000 
     14 C14         2.8372   53.1273   22.3824 C.ar      1 UNK         0.0000 
     15 C15         3.7688   53.7173   21.5269 C.ar      1 UNK         0.0000 
     16 C16         4.2161   53.0587   20.3762 C.ar      1 UNK         0.0000 
     17 C17         3.6627   51.8105   20.0811 C.ar      1 UNK         0.0000 
     18 C18         2.7812   51.1851   20.9519 C.ar      1 UNK         0.0000 
     19 C19         2.3802   51.8232   22.1299 C.ar      1 UNK         0.0000 
     20 O20         1.5389   51.2211   23.0424 O.3       1 UNK         0.0000 
     21 C21         1.5051   49.7966   23.1029 C.3       1 UNK         0.0000 
     22 C22         5.2493   53.6338   19.5074 C.2       1 UNK         0.0000 
     23 N23         5.7413   54.7905   19.7033 N.2       1 UNK         0.0000 
     24 N24         6.8016   55.0641   18.9250 N.am      1 UNK         0.0000 
     25 C25         7.4731   56.2319   19.0146 C.2       1 UNK         0.0000 
     26 O26         7.1034   57.2051   19.6821 O.2       1 UNK         0.0000 
     27 C27         8.7243   56.2624   18.2877 C.ar      1 UNK         0.0000 
     28 C28         9.4994   57.4188   18.0857 C.ar      1 UNK         0.0000 
     29 C29        10.6552   57.0421   17.4175 C.ar      1 UNK         0.0000 
     30 N30        10.4853   55.6895   17.2694 N.pl3     1 UNK         0.0000 
     31 N31         9.3477   55.2144   17.7811 N.2       1 UNK         0.0000 
     32 H32        11.1603   55.0816   16.8303 H         1 UNK         0.0000 
     33 C33        11.8941   57.7995   16.9399 C.3       1 UNK         0.0000 
     34 C34        13.0912   57.4403   17.8461 C.3       1 UNK         0.0000 
     35 C35        11.6472   59.3237   17.0129 C.3       1 UNK         0.0000 
     36 C36        12.2241   57.4199   15.4783 C.3       1 UNK         0.0000 
     37 O37         2.9223   52.0956   31.2798 O.3       1 UNK         0.0000 
     38 C38         4.2625   51.9692   31.7176 C.3       1 UNK         0.0000 
     39 O39         0.3720   52.0992   30.5463 O.3       1 UNK         0.0000 
     40 C40        -0.8929   51.6439   30.0752 C.3       1 UNK         0.0000 
     41 H41        -0.5226   52.5330   26.0147 H         1 UNK         0.0000 
     42 H42         0.0653   52.5910   24.4113 H         1 UNK         0.0000 
     43 H43         0.7528   51.4319   25.5397 H         1 UNK         0.0000 
     44 H44        -0.0705   52.8751   28.0305 H         1 UNK         0.0000 
     45 H45         4.6461   53.0568   29.3656 H         1 UNK         0.0000 
     46 H46         4.9628   52.7394   26.5852 H         1 UNK         0.0000 
     47 H47         5.0913   54.3335   27.2419 H         1 UNK         0.0000 
     48 H48         4.6635   54.2010   24.7045 H         1 UNK         0.0000 
     49 H49         3.5474   55.2742   25.5858 H         1 UNK         0.0000 
     50 H50         2.6408   54.9878   23.4813 H         1 UNK         0.0000 
     51 H51         1.2147   54.0261   23.4337 H         1 UNK         0.0000 
     52 H52         4.1362   54.7095   21.7510 H         1 UNK         0.0000 
     53 H53         3.9040   51.2968   19.1665 H         1 UNK         0.0000 
     54 H54         2.4081   50.2061   20.6901 H         1 UNK         0.0000 
     55 H55         1.0382   49.4806   24.0349 H         1 UNK         0.0000 
     56 H56         0.9222   49.3799   22.2828 H         1 UNK         0.0000 
     57 H57         2.5066   49.3655   23.0781 H         1 UNK         0.0000 
     58 H58         5.5757   52.9810   18.6979 H         1 UNK         0.0000 
     59 H59         7.1174   54.3177   18.3223 H         1 UNK         0.0000 
     60 H60         9.2477   58.4173   18.4116 H         1 UNK         0.0000 
     61 H61        14.0004   57.9586   17.5400 H         1 UNK         0.0000 
     62 H62        13.3014   56.3709   17.8291 H         1 UNK         0.0000 
     63 H63        12.8936   57.7035   18.8849 H         1 UNK         0.0000 
     64 H64        10.7918   59.6146   16.4009 H         1 UNK         0.0000 
     65 H65        11.4375   59.6458   18.0329 H         1 UNK         0.0000 
     66 H66        12.5092   59.8903   16.6602 H         1 UNK         0.0000 
     67 H67        11.3799   57.6197   14.8159 H         1 UNK         0.0000 
     68 H68        13.0772   57.9820   15.0991 H         1 UNK         0.0000 
     69 H69        12.4615   56.3604   15.3765 H         1 UNK         0.0000 
     70 H70         4.2939   51.1953   32.4817 H         1 UNK         0.0000 
     71 H71         4.9714   51.6875   30.9403 H         1 UNK         0.0000 
     72 H72         4.5800   52.8969   32.1837 H         1 UNK         0.0000 
     73 H73        -1.4554   51.1779   30.8809 H         1 UNK         0.0000 
     74 H74        -1.4794   52.4686   29.6818 H         1 UNK         0.0000 
     75 H75        -0.7816   50.8962   29.2898 H         1 UNK         0.0000 
     76 H76         2.9559   52.4466   24.8250 H         1 UNK         0.0000 
@<TRIPOS>BOND
     1    1    2 1    
     2    1   41 1    
     3    1   42 1    
     4    1   43 1    
     5    2    3 1    
     6    2   12 1    
     7    2    4 1    
     8    4    9 ar   
     9    4    5 ar   
    10    5    6 ar   
    11    5   44 1    
    12    6    7 ar   
    13    6   39 1    
    14    7    8 ar   
    15    7   37 1    
    16    8    9 ar   
    17    8   45 1    
    18    9   10 1    
    19   10   11 1    
    20   10   46 1    
    21   10   47 1    
    22   11   12 1    
    23   11   48 1    
    24   11   49 1    
    25   12   13 1    
    26   12   76 1    
    27   13   14 1    
    28   13   50 1    
    29   13   51 1    
    30   14   19 ar   
    31   14   15 ar   
    32   15   16 ar   
    33   15   52 1    
    34   16   17 ar   
    35   16   22 1    
    36   17   18 ar   
    37   17   53 1    
    38   18   19 ar   
    39   18   54 1    
    40   19   20 1    
    41   20   21 1    
    42   21   55 1    
    43   21   56 1    
    44   21   57 1    
    45   22   23 2    
    46   22   58 1    
    47   23   24 1    
    48   24   25 am   BACKBONE|DICT|INTERRES
    49   24   59 1    
    50   25   26 2    
    51   25   27 1    
    52   27   28 ar   
    53   27   31 ar   
    54   28   60 1    
    55   28   29 ar   
    56   29   33 1    
    57   29   30 ar   
    58   30   32 1    
    59   30   31 ar   
    60   33   34 1    
    61   33   35 1    
    62   33   36 1    
    63   34   61 1    
    64   34   62 1    
    65   34   63 1    
    66   35   64 1    
    67   35   65 1    
    68   35   66 1    
    69   36   67 1    
    70   36   68 1    
    71   36   69 1    
    72   37   38 1    
    73   38   70 1    
    74   38   71 1    
    75   38   72 1    
    76   39   40 1    
    77   40   73 1    
    78   40   74 1    
    79   40   75 1    
@<TRIPOS>SUBSTRUCTURE
     1 UNK         1 GROUP             0       ****    0 ROOT    
