@<TRIPOS>MOLECULE
ZINC61414646_3905
28   30    1
SMALL
USER_CHARGES


@<TRIPOS>ATOM
      1 C1          2.8325   53.8830   26.7470 C.ar      1 UNK         0.0000 
      2 C2          1.6662   53.5806   27.4406 C.ar      1 UNK         0.0000 
      3 C3          1.7268   53.1172   28.7642 C.ar      1 UNK         0.0000 
      4 C4          3.0016   52.8767   29.3565 C.ar      1 UNK         0.0000 
      5 C5          4.1714   53.1254   28.5989 C.ar      1 UNK         0.0000 
      6 C6          4.0978   53.6432   27.2939 C.ar      1 UNK         0.0000 
      7 C7          5.4283   53.8954   26.5523 C.3       1 UNK         0.0000 
      8 H8          5.9751   52.9616   26.6975 H         1 UNK         0.0000 
      9 C9          5.5338   54.1871   25.0401 C.2       1 UNK         0.0000 
     10 C10         6.7119   54.4984   24.3572 C.2       1 UNK         0.0000 
     11 C11         6.6132   54.6460   22.9745 C.2       1 UNK         0.0000 
     12 C12         5.3331   54.4349   22.5212 C.2       1 UNK         0.0000 
     13 S13         4.2608   54.0966   23.8335 S.3       1 UNK         0.0000 
     14 Br14        4.6954   54.4966   20.7311 Br        1 UNK         0.0000 
     15 N15         6.1876   54.8967   27.2818 N.3       1 UNK         0.0000 
     16 N16         3.0946   52.4167   30.6377 N.ar      1 UNK         0.0000 
     17 C17         1.9309   52.2317   31.3154 C.ar      1 UNK         0.0000 
     18 C18         0.6891   52.4968   30.7413 C.ar      1 UNK         0.0000 
     19 N19         0.5717   52.9211   29.4605 N.ar      1 UNK         0.0000 
     20 H20         2.6992   54.3144   25.7755 H         1 UNK         0.0000 
     21 H21         0.7044   53.6979   26.9753 H         1 UNK         0.0000 
     22 H22         5.1298   52.9141   29.0501 H         1 UNK         0.0000 
     23 H23         7.6538   54.6064   24.8704 H         1 UNK         0.0000 
     24 H24         7.4500   54.8858   22.3347 H         1 UNK         0.0000 
     25 H25         5.9489   54.8449   28.2620 H         1 UNK         0.0000 
     26 H26         7.1623   54.6441   27.2552 H         1 UNK         0.0000 
     27 H27         2.0030   51.8764   32.3344 H         1 UNK         0.0000 
     28 H28        -0.2307   52.3334   31.2871 H         1 UNK         0.0000 
@<TRIPOS>BOND
     1    1    6 ar   
     2    1    2 ar   
     3    1   20 1    
     4    2    3 ar   
     5    2   21 1    
     6    3   19 ar   
     7    3    4 ar   
     8    4    5 ar   
     9    4   16 ar   
    10    5    6 ar   
    11    5   22 1    
    12    6    7 1    
    13    7    8 1    
    14    7    9 1    
    15    7   15 1    
    16    9   13 1    
    17    9   10 2    
    18   10   11 1    
    19   10   23 1    
    20   11   12 2    
    21   11   24 1    
    22   12   13 1    
    23   12   14 1    
    24   15   25 1    
    25   15   26 1    
    26   16   17 ar   
    27   17   18 ar   
    28   17   27 1    
    29   18   19 ar   
    30   18   28 1    
@<TRIPOS>SUBSTRUCTURE
     1 UNK         1 GROUP             0       ****    0 ROOT    
