@<TRIPOS>MOLECULE
ZINC35664445_2920
70   72    1
SMALL
USER_CHARGES


@<TRIPOS>ATOM
      1 C1          3.2400   47.0372   14.4974 C.3       1 UNK         0.0000 
      2 C2          3.0912   46.2341   15.8011 C.3       1 UNK         0.0000 
      3 C3          1.7303   46.4370   16.5038 C.3       1 UNK         0.0000 
      4 N4          1.5413   47.8213   16.9367 N.am      1 UNK         0.0000 
      5 C5          0.3817   48.3709   17.3478 C.2       1 UNK         0.0000 
      6 O6         -0.6499   47.7016   17.4227 O.2       1 UNK         0.0000 
      7 N7          0.4148   49.7136   17.6048 N.am      1 UNK         0.0000 
      8 C8         -0.8076   50.4226   18.0257 C.3       1 UNK         0.0000 
      9 C9         -0.5979   51.5204   19.0979 C.3       1 UNK         0.0000 
     10 C10         0.2208   51.1069   20.3341 C.3       1 UNK         0.0000 
     11 N11         1.7622   51.1789   20.1519 N.4       1 UNK         0.0000 
     12 C12         2.3874   50.3438   19.0080 C.3       1 UNK         0.0000 
     13 C13         1.6513   50.5075   17.6661 C.3       1 UNK         0.0000 
     14 C14         2.5198   50.9318   21.4855 C.3       1 UNK         0.0000 
     15 C15         2.3814   52.1021   22.4853 C.2       1 UNK         0.0000 
     16 C16         3.1766   53.2201   22.4886 C.2       1 UNK         0.0000 
     17 C17         2.9071   54.2971   23.5655 C.3       1 UNK         0.0000 
     18 H18         3.1170   55.2864   23.1568 H         1 UNK         0.0000 
     19 N19         1.4522   54.2787   23.8003 N.am      1 UNK         0.0000 
     20 C20         0.6876   53.1584   23.8246 C.2       1 UNK         0.0000 
     21 O21        -0.5072   53.2932   24.0797 O.2       1 UNK         0.0000 
     22 N22         1.3115   52.0060   23.3877 N.am      1 UNK         0.0000 
     23 C23         0.5915   50.7410   23.7166 C.3       1 UNK         0.0000 
     24 C24         0.0924   50.5318   25.1473 C.2       1 UNK         0.0000 
     25 C25         0.3052   49.4251   25.8754 C.2       1 UNK         0.0000 
     26 C26         3.7475   54.1445   24.8402 C.2       1 UNK         0.0000 
     27 C27         3.2898   53.6964   26.0983 C.2       1 UNK         0.0000 
     28 C28         4.2590   53.6989   27.0925 C.2       1 UNK         0.0000 
     29 S29         5.7789   54.2823   26.5180 S.3       1 UNK         0.0000 
     30 C30         5.0946   54.4974   24.9418 C.2       1 UNK         0.0000 
     31 C31         4.2731   53.5664   21.5340 C.2       1 UNK         0.0000 
     32 O32         5.0421   54.5074   21.7383 O.2       1 UNK         0.0000 
     33 O33         4.3533   52.7993   20.4255 O.3       1 UNK         0.0000 
     34 C34         5.3400   53.0241   19.4194 C.3       1 UNK         0.0000 
     35 C35         4.6629   53.4512   18.1123 C.3       1 UNK         0.0000 
     36 H36         4.2376   46.9020   14.0801 H         1 UNK         0.0000 
     37 H37         2.5117   46.7245   13.7498 H         1 UNK         0.0000 
     38 H38         3.1068   48.1047   14.6680 H         1 UNK         0.0000 
     39 H39         3.9039   46.4983   16.4822 H         1 UNK         0.0000 
     40 H40         3.2211   45.1725   15.5857 H         1 UNK         0.0000 
     41 H41         1.6321   45.7588   17.3525 H         1 UNK         0.0000 
     42 H42         0.9318   46.1862   15.8003 H         1 UNK         0.0000 
     43 H43         2.3738   48.4016   16.8795 H         1 UNK         0.0000 
     44 H44        -1.1987   50.9325   17.1450 H         1 UNK         0.0000 
     45 H45        -1.5619   49.7168   18.3815 H         1 UNK         0.0000 
     46 H46        -1.5809   51.8627   19.4224 H         1 UNK         0.0000 
     47 H47        -0.1433   52.4007   18.6401 H         1 UNK         0.0000 
     48 H48        -0.0125   50.1011   20.6866 H         1 UNK         0.0000 
     49 H49         0.0078   51.8186   21.1297 H         1 UNK         0.0000 
     50 H50         3.4079   50.7118   18.9259 H         1 UNK         0.0000 
     51 H51         2.4457   49.3085   19.3438 H         1 UNK         0.0000 
     52 H52         1.5141   51.5460   17.3616 H         1 UNK         0.0000 
     53 H53         2.3043   50.1347   16.8779 H         1 UNK         0.0000 
     54 H54         3.5706   50.7863   21.2440 H         1 UNK         0.0000 
     55 H55         2.2007   49.9483   21.8276 H         1 UNK         0.0000 
     56 H56         1.0436   55.0816   24.2579 H         1 UNK         0.0000 
     57 H57        -0.2672   50.6576   23.0468 H         1 UNK         0.0000 
     58 H58         1.2252   49.8761   23.5348 H         1 UNK         0.0000 
     59 H59        -0.4832   51.3268   25.5955 H         1 UNK         0.0000 
     60 H60        -0.0879   49.3366   26.8797 H         1 UNK         0.0000 
     61 H61         0.8663   48.5852   25.4913 H         1 UNK         0.0000 
     62 H62         2.2762   53.3713   26.2820 H         1 UNK         0.0000 
     63 H63         4.1540   53.3875   28.1212 H         1 UNK         0.0000 
     64 H64         5.7200   54.8914   24.1563 H         1 UNK         0.0000 
     65 H65         6.0811   53.7719   19.7094 H         1 UNK         0.0000 
     66 H66         5.8955   52.0971   19.2799 H         1 UNK         0.0000 
     67 H67         5.4064   53.6261   17.3361 H         1 UNK         0.0000 
     68 H68         3.9877   52.6807   17.7460 H         1 UNK         0.0000 
     69 H69         4.0940   54.3718   18.2457 H         1 UNK         0.0000 
     70 H70         1.9684   52.1407   19.9033 H         1 UNK         0.0000 
@<TRIPOS>BOND
     1    1    2 1    
     2    1   36 1    
     3    1   37 1    
     4    1   38 1    
     5    2    3 1    
     6    2   39 1    
     7    2   40 1    
     8    3    4 1    
     9    3   41 1    
    10    3   42 1    
    11    4    5 am   BACKBONE|DICT|INTERRES
    12    4   43 1    
    13    5    6 2    
    14    5    7 am   BACKBONE|DICT|INTERRES
    15    7   13 1    
    16    7    8 1    
    17    8    9 1    
    18    8   44 1    
    19    8   45 1    
    20    9   10 1    
    21    9   46 1    
    22    9   47 1    
    23   10   11 1    
    24   10   48 1    
    25   10   49 1    
    26   11   12 1    
    27   11   14 1    
    28   11   70 1    
    29   12   13 1    
    30   12   50 1    
    31   12   51 1    
    32   13   52 1    
    33   13   53 1    
    34   14   15 1    
    35   14   54 1    
    36   14   55 1    
    37   15   22 1    
    38   15   16 2    
    39   16   17 1    
    40   16   31 1    
    41   17   18 1    
    42   17   19 1    
    43   17   26 1    
    44   19   20 am   BACKBONE|DICT|INTERRES
    45   19   56 1    
    46   20   21 2    
    47   20   22 am   BACKBONE|DICT|INTERRES
    48   22   23 1    
    49   23   24 1    
    50   23   57 1    
    51   23   58 1    
    52   24   25 2    
    53   24   59 1    
    54   25   60 1    
    55   25   61 1    
    56   26   30 2    
    57   26   27 1    
    58   27   28 2    
    59   27   62 1    
    60   28   29 1    
    61   28   63 1    
    62   29   30 1    
    63   30   64 1    
    64   31   32 2    
    65   31   33 1    
    66   33   34 1    
    67   34   35 1    
    68   34   65 1    
    69   34   66 1    
    70   35   67 1    
    71   35   68 1    
    72   35   69 1    
@<TRIPOS>SUBSTRUCTURE
     1 UNK         1 GROUP             0       ****    0 ROOT    
