@<TRIPOS>MOLECULE
ZINC09305250_2801
53   57    1
SMALL
USER_CHARGES


@<TRIPOS>ATOM
      1 C1         -0.1065   52.0413   28.3334 C.3       1 UNK         0.0000 
      2 C2          0.9582   52.8975   27.6248 C.3       1 UNK         0.0000 
      3 H3          0.6477   53.9402   27.7329 H         1 UNK         0.0000 
      4 C4          2.3514   52.6864   28.2472 C.3       1 UNK         0.0000 
      5 C5          3.3875   53.6974   27.7112 C.3       1 UNK         0.0000 
      6 C6          3.2994   53.7739   26.1793 C.2       1 UNK         0.0000 
      7 C7          2.1825   53.2872   25.4797 C.2       1 UNK         0.0000 
      8 S8          2.3354   53.4945   23.7701 S.3       1 UNK         0.0000 
      9 C9          3.9309   54.1343   23.9561 C.2       1 UNK         0.0000 
     10 C10         4.3055   54.2617   25.3133 C.2       1 UNK         0.0000 
     11 C11         5.5536   54.8393   25.8095 C.1       1 UNK         0.0000 
     12 N12         6.5427   55.2950   26.2032 N.1       1 UNK         0.0000 
     13 N13         4.5584   54.4832   22.7616 N.am      1 UNK         0.0000 
     14 C14         5.8818   54.4301   22.5066 C.2       1 UNK         0.0000 
     15 O15         6.7429   53.9948   23.2743 O.2       1 UNK         0.0000 
     16 C16         6.2553   54.9378   21.2081 C.ar      1 UNK         0.0000 
     17 C17         7.5070   55.5012   20.9174 C.ar      1 UNK         0.0000 
     18 C18         7.5422   55.6868   19.5554 C.ar      1 UNK         0.0000 
     19 N19         6.2774   55.3433   19.1067 N.pl3     1 UNK         0.0000 
     20 N20         5.5312   54.8481   20.1102 N.2       1 UNK         0.0000 
     21 C21         5.8494   55.2781   17.6948 C.3       1 UNK         0.0000 
     22 H22         5.9560   54.2373   17.3828 H         1 UNK         0.0000 
     23 C23         6.8519   56.1394   16.8767 C.3       1 UNK         0.0000 
     24 C24         8.3267   55.8903   17.2709 C.3       1 UNK         0.0000 
     25 H25         8.9276   56.6396   16.7523 H         1 UNK         0.0000 
     26 N26         8.5118   56.1793   18.6996 N.pl3     1 UNK         0.0000 
     27 C27         8.8616   54.5369   16.8314 C.2       1 UNK         0.0000 
     28 C28         9.7314   54.1410   15.8247 C.2       1 UNK         0.0000 
     29 C29         9.7954   52.7468   15.8543 C.2       1 UNK         0.0000 
     30 C30         8.9586   52.3490   16.8815 C.2       1 UNK         0.0000 
     31 O31         8.4002   53.4314   17.4776 O.3       1 UNK         0.0000 
     32 C32         4.3688   55.6574   17.4369 C.3       1 UNK         0.0000 
     33 F33         4.0789   55.5875   16.1371 F         1 UNK         0.0000 
     34 F34         3.5193   54.8496   18.0740 F         1 UNK         0.0000 
     35 F35         4.1151   56.9078   17.8266 F         1 UNK         0.0000 
     36 C36         0.9954   52.5660   26.1125 C.3       1 UNK         0.0000 
     37 H37         0.1151   50.9750   28.2584 H         1 UNK         0.0000 
     38 H38        -0.1726   52.2878   29.3942 H         1 UNK         0.0000 
     39 H39        -1.0952   52.1998   27.9033 H         1 UNK         0.0000 
     40 H40         2.6777   51.6548   28.1023 H         1 UNK         0.0000 
     41 H41         2.2886   52.8037   29.3311 H         1 UNK         0.0000 
     42 H42         3.2087   54.6856   28.1378 H         1 UNK         0.0000 
     43 H43         4.3870   53.4009   28.0348 H         1 UNK         0.0000 
     44 H44         3.9575   54.6103   21.9590 H         1 UNK         0.0000 
     45 H45         8.3038   55.6949   21.6195 H         1 UNK         0.0000 
     46 H46         6.7109   55.9632   15.8087 H         1 UNK         0.0000 
     47 H47         6.6108   57.1956   17.0102 H         1 UNK         0.0000 
     48 H48         9.4821   56.0923   18.9688 H         1 UNK         0.0000 
     49 H49        10.2480   54.7948   15.1374 H         1 UNK         0.0000 
     50 H50        10.3729   52.1094   15.2011 H         1 UNK         0.0000 
     51 H51         8.6798   51.3860   17.2824 H         1 UNK         0.0000 
     52 H52         1.1043   51.4905   25.9702 H         1 UNK         0.0000 
     53 H53         0.0625   52.8561   25.6331 H         1 UNK         0.0000 
@<TRIPOS>BOND
     1    1    2 1    
     2    1   37 1    
     3    1   38 1    
     4    1   39 1    
     5    2    3 1    
     6    2   36 1    
     7    2    4 1    
     8    4    5 1    
     9    4   40 1    
    10    4   41 1    
    11    5    6 1    
    12    5   42 1    
    13    5   43 1    
    14    6   10 1    
    15    6    7 2    
    16    7    8 1    
    17    7   36 1    
    18    8    9 1    
    19    9   10 2    
    20    9   13 am   BACKBONE|DICT|INTERRES
    21   10   11 1    
    22   11   12 3    
    23   13   14 am   BACKBONE|DICT|INTERRES
    24   13   44 1    
    25   14   15 2    
    26   14   16 1    
    27   16   20 ar   
    28   16   17 ar   
    29   17   18 ar   
    30   17   45 1    
    31   18   26 1    
    32   18   19 ar   
    33   19   20 ar   
    34   19   21 1    
    35   21   22 1    
    36   21   23 1    
    37   21   32 1    
    38   23   24 1    
    39   23   46 1    
    40   23   47 1    
    41   24   25 1    
    42   24   26 1    
    43   24   27 1    
    44   26   48 1    
    45   27   31 1    
    46   27   28 2    
    47   28   29 1    
    48   28   49 1    
    49   29   30 2    
    50   29   50 1    
    51   30   31 1    
    52   30   51 1    
    53   32   33 1    
    54   32   34 1    
    55   32   35 1    
    56   36   52 1    
    57   36   53 1    
@<TRIPOS>SUBSTRUCTURE
     1 UNK         1 GROUP             0       ****    0 ROOT    
