ZINC67330344_1617
                    3D
 Schrodinger Suite 2024-2.
 44 45  0  0  1  0            999 V2000
   -0.3160   52.0946   30.0541 C   0  0  0  0  0  0
    0.7720   53.0500   29.6324 C   0  0  0  0  0  0
    1.9453   52.9248   28.9099 C   0  0  0  0  0  0
    2.5467   54.1898   28.8199 C   0  0  0  0  0  0
    1.6827   55.0349   29.5158 C   0  0  0  0  0  0
    0.6272   54.3407   30.0135 O   0  0  0  0  0  0
    1.6992   56.5132   29.8191 C   0  0  0  0  0  0
    3.8440   54.5707   28.1281 C   0  0  1  0  0  0
    3.8981   55.6565   28.1391 H   0  0  0  0  0  0
    5.0650   54.0412   28.9019 C   0  0  0  0  0  0
    3.8037   54.1643   26.7216 N   0  0  0  0  0  0
    4.6992   54.5030   25.7729 C   0  0  0  0  0  0
    5.7397   55.1171   26.0218 O   0  0  0  0  0  0
    4.3653   54.1051   24.3523 C   0  0  0  0  0  0
    3.0536   53.7923   23.9590 C   0  0  0  0  0  0
    2.7773   53.4464   22.6387 C   0  0  0  0  0  0
    3.7979   53.4069   21.6873 C   0  0  0  0  0  0
    5.1011   53.7307   22.0741 C   0  0  0  0  0  0
    5.3821   54.0857   23.3890 C   0  0  0  0  0  0
    3.4374   52.9917   20.2557 C   0  0  0  0  0  0
    4.5197   52.8256   19.2826 N   0  0  0  0  0  0
    5.2519   53.7945   18.7238 C   0  0  0  0  0  0
    5.1547   54.9937   18.9636 O   0  0  0  0  0  0
    6.1357   53.2968   17.8703 N   0  0  0  0  0  0
   -0.1433   51.0881   29.6741 H   0  0  0  0  0  0
   -1.2917   52.4036   29.6810 H   0  0  0  0  0  0
   -0.3936   52.0232   31.1391 H   0  0  0  0  0  0
    2.3284   52.0104   28.4799 H   0  0  0  0  0  0
    2.0964   57.0935   28.9870 H   0  0  0  0  0  0
    0.7033   56.8962   30.0238 H   0  0  0  0  0  0
    2.3036   56.7450   30.6936 H   0  0  0  0  0  0
    5.0980   54.4960   29.8918 H   0  0  0  0  0  0
    5.0339   52.9571   29.0174 H   0  0  0  0  0  0
    6.0073   54.2948   28.4171 H   0  0  0  0  0  0
    2.9450   53.7336   26.4180 H   0  0  0  0  0  0
    2.2321   53.8190   24.6593 H   0  0  0  0  0  0
    1.7626   53.2104   22.3519 H   0  0  0  0  0  0
    5.9045   53.7214   21.3591 H   0  0  0  0  0  0
    6.4009   54.3357   23.6533 H   0  0  0  0  0  0
    2.9204   52.0328   20.3117 H   0  0  0  0  0  0
    2.7144   53.6963   19.8471 H   0  0  0  0  0  0
    4.7052   51.8771   18.9693 H   0  0  0  0  0  0
    6.1375   52.3005   17.6818 H   0  0  0  0  0  0
    6.7530   53.9175   17.3733 H   0  0  0  0  0  0
  1  2  1  0  0  0
  1 25  1  0  0  0
  1 26  1  0  0  0
  1 27  1  0  0  0
  2  6  1  0  0  0
  2  3  2  0  0  0
  3  4  1  0  0  0
  3 28  1  0  0  0
  4  5  2  0  0  0
  4  8  1  0  0  0
  5  6  1  0  0  0
  5  7  1  0  0  0
  7 29  1  0  0  0
  7 30  1  0  0  0
  7 31  1  0  0  0
  8  9  1  0  0  0
  8 10  1  0  0  0
  8 11  1  0  0  0
 10 32  1  0  0  0
 10 33  1  0  0  0
 10 34  1  0  0  0
 11 12  1  0  0  0
 11 35  1  0  0  0
 12 13  2  0  0  0
 12 14  1  0  0  0
 14 19  2  0  0  0
 14 15  1  0  0  0
 15 16  2  0  0  0
 15 36  1  0  0  0
 16 17  1  0  0  0
 16 37  1  0  0  0
 17 18  2  0  0  0
 17 20  1  0  0  0
 18 19  1  0  0  0
 18 38  1  0  0  0
 19 39  1  0  0  0
 20 21  1  0  0  0
 20 40  1  0  0  0
 20 41  1  0  0  0
 21 22  1  0  0  0
 21 42  1  0  0  0
 22 23  2  0  0  0
 22 24  1  0  0  0
 24 43  1  0  0  0
 24 44  1  0  0  0
M  END
> <i_i_glide_confnum>
19

> <i_i_glide_lignum>
1618

> <i_i_glide_posenum>
356

> <i_i_glide_rotatable_bonds>
7

> <i_m_Source_File_Index>
44

> <b_m_subgroup_collapsed>
0

> <r_i_docking_score>
-6.43066

> <r_i_glide_ecoul>
-5.70408

> <r_i_glide_eff_state_penalty>
0

> <r_i_glide_einternal>
4.55454

> <r_i_glide_emodel>
-59.4175

> <r_i_glide_energy>
-42.5112

> <r_i_glide_erotb>
1.1222

> <r_i_glide_esite>
-0.179628

> <r_i_glide_evdw>
-36.8071

> <r_i_glide_gscore>
-6.43066

> <r_i_glide_hbond>
-0.283744

> <r_i_glide_ligand_efficiency>
-0.279594

> <r_i_glide_ligand_efficiency_ln>
-1.55499

> <r_i_glide_ligand_efficiency_sa>
-0.795128

> <r_i_glide_lipo>
-2.77581

> <r_i_glide_metal>
0

> <r_i_glide_rewards>
-1.61771

> <s_i_glide_gridfile>
wee1_glide-grid

> <s_m_Source_File>
wee1_decoys_glide_SP.sdf

> <s_m_Source_Path>
/Users/zhangxujun/Desktop

> <s_m_entry_id>
319

> <s_m_entry_name>
wee1_decoys_glide_SP.44

> <s_m_subgroup_title>
wee1_decoys_glide_SP

> <s_m_subgroupid>
wee1_decoys_glide_SP


$$$$
