@<TRIPOS>MOLECULE
ZINC23065123_3263
54   57    1
SMALL
USER_CHARGES


@<TRIPOS>ATOM
      1 C1          6.6427   54.8963   22.5976 C.ar      1 UNK         0.0000 
      2 C2          6.7044   54.9382   23.9856 C.ar      1 UNK         0.0000 
      3 C3          5.6322   54.5162   24.7706 C.ar      1 UNK         0.0000 
      4 C4          4.4540   54.1048   24.1299 C.ar      1 UNK         0.0000 
      5 C5          4.3772   54.0932   22.7350 C.ar      1 UNK         0.0000 
      6 C6          5.4815   54.4639   21.9509 C.ar      1 UNK         0.0000 
      7 C7          5.4873   54.3847   20.4113 C.3       1 UNK         0.0000 
      8 S8          5.9038   55.9863   19.6468 S.3       1 UNK         0.0000 
      9 C9          6.2971   55.3651   17.9825 C.3       1 UNK         0.0000 
     10 C10         5.1330   54.6105   17.3118 C.3       1 UNK         0.0000 
     11 C11         4.7412   53.2964   18.0130 C.3       1 UNK         0.0000 
     12 S12         4.0402   53.5613   19.6688 S.3       1 UNK         0.0000 
     13 C13         5.8135   54.5173   26.2600 C.2       1 UNK         0.0000 
     14 O14         6.8509   54.8957   26.8122 O.2       1 UNK         0.0000 
     15 O15         4.7405   54.0553   26.9407 O.3       1 UNK         0.0000 
     16 C16         4.7588   53.9669   28.3720 C.3       1 UNK         0.0000 
     17 C17         3.3361   53.7689   28.9151 C.2       1 UNK         0.0000 
     18 O18         3.1052   54.0965   30.0817 O.2       1 UNK         0.0000 
     19 N19         2.4516   53.1785   28.0790 N.am      1 UNK         0.0000 
     20 C20         1.1281   52.9989   28.2569 C.2       1 UNK         0.0000 
     21 O21         0.4876   53.3245   29.2599 O.2       1 UNK         0.0000 
     22 N22         0.5950   52.4323   27.1558 N.am      1 UNK         0.0000 
     23 C23        -0.7422   52.0658   26.9439 C.ar      1 UNK         0.0000 
     24 C24        -1.2121   52.0956   25.6251 C.ar      1 UNK         0.0000 
     25 C25        -2.5291   51.7355   25.3327 C.ar      1 UNK         0.0000 
     26 C26        -3.3811   51.3385   26.3609 C.ar      1 UNK         0.0000 
     27 C27        -2.9089   51.2831   27.6816 C.ar      1 UNK         0.0000 
     28 C28        -1.5959   51.6432   27.9745 C.ar      1 UNK         0.0000 
     29 O29        -3.7266   50.9312   28.7358 O.3       1 UNK         0.0000 
     30 C30        -4.8520   50.1429   28.3423 C.3       1 UNK         0.0000 
     31 C31        -5.5526   50.7983   27.1259 C.3       1 UNK         0.0000 
     32 O32        -4.6545   50.9297   26.0162 O.3       1 UNK         0.0000 
     33 H33         7.5091   55.1977   22.0259 H         1 UNK         0.0000 
     34 H34         7.6077   55.2856   24.4625 H         1 UNK         0.0000 
     35 H35         3.5930   53.7840   24.6981 H         1 UNK         0.0000 
     36 H36         3.4552   53.7680   22.2775 H         1 UNK         0.0000 
     37 H37         6.3044   53.7221   20.1529 H         1 UNK         0.0000 
     38 H38         6.5862   56.2285   17.3822 H         1 UNK         0.0000 
     39 H39         7.1766   54.7254   18.0678 H         1 UNK         0.0000 
     40 H40         5.4075   54.3871   16.2804 H         1 UNK         0.0000 
     41 H41         4.2619   55.2645   17.2503 H         1 UNK         0.0000 
     42 H42         5.6028   52.6346   18.1159 H         1 UNK         0.0000 
     43 H43         3.9964   52.7510   17.4319 H         1 UNK         0.0000 
     44 H44         5.2464   54.8153   28.8600 H         1 UNK         0.0000 
     45 H45         5.3228   53.0701   28.6358 H         1 UNK         0.0000 
     46 H46         2.8321   52.8934   27.1907 H         1 UNK         0.0000 
     47 H47         1.1890   52.3322   26.3484 H         1 UNK         0.0000 
     48 H48        -0.5617   52.4007   24.8183 H         1 UNK         0.0000 
     49 H49        -2.8852   51.7522   24.3136 H         1 UNK         0.0000 
     50 H50        -1.2579   51.5754   28.9984 H         1 UNK         0.0000 
     51 H51        -4.5130   49.1407   28.0713 H         1 UNK         0.0000 
     52 H52        -5.5390   50.0457   29.1830 H         1 UNK         0.0000 
     53 H53        -6.4173   50.2089   26.8206 H         1 UNK         0.0000 
     54 H54        -5.9105   51.7889   27.4114 H         1 UNK         0.0000 
@<TRIPOS>BOND
     1    1    6 ar   
     2    1    2 ar   
     3    1   33 1    
     4    2    3 ar   
     5    2   34 1    
     6    3    4 ar   
     7    3   13 1    
     8    4    5 ar   
     9    4   35 1    
    10    5    6 ar   
    11    5   36 1    
    12    6    7 1    
    13    7   12 1    
    14    7    8 1    
    15    7   37 1    
    16    8    9 1    
    17    9   10 1    
    18    9   38 1    
    19    9   39 1    
    20   10   11 1    
    21   10   40 1    
    22   10   41 1    
    23   11   12 1    
    24   11   42 1    
    25   11   43 1    
    26   13   14 2    
    27   13   15 1    
    28   15   16 1    
    29   16   17 1    
    30   16   44 1    
    31   16   45 1    
    32   17   18 2    
    33   17   19 am   BACKBONE|DICT|INTERRES
    34   19   20 am   BACKBONE|DICT|INTERRES
    35   19   46 1    
    36   20   21 2    
    37   20   22 am   BACKBONE|DICT|INTERRES
    38   22   23 1    
    39   22   47 1    
    40   23   28 ar   
    41   23   24 ar   
    42   24   25 ar   
    43   24   48 1    
    44   25   26 ar   
    45   25   49 1    
    46   26   32 1    
    47   26   27 ar   
    48   27   28 ar   
    49   27   29 1    
    50   28   50 1    
    51   29   30 1    
    52   30   31 1    
    53   30   51 1    
    54   30   52 1    
    55   31   32 1    
    56   31   53 1    
    57   31   54 1    
@<TRIPOS>SUBSTRUCTURE
     1 UNK         1 GROUP             0       ****    0 ROOT    
