@<TRIPOS>MOLECULE
ZINC22131234_79
54   57    1
SMALL
USER_CHARGES


@<TRIPOS>ATOM
      1 C1          2.4423   55.7326   29.3442 C.3       1 UNK         0.0000 
      2 C2          3.1720   54.3703   29.3550 C.3       1 UNK         0.0000 
      3 H3          3.4333   54.1618   30.3910 H         1 UNK         0.0000 
      4 C4          2.2908   53.1821   28.8917 C.3       1 UNK         0.0000 
      5 C5          1.7952   53.3594   27.4352 C.3       1 UNK         0.0000 
      6 C6          2.9832   53.7601   26.5626 C.2       1 UNK         0.0000 
      7 C7          4.1949   54.2311   27.0915 C.2       1 UNK         0.0000 
      8 S8          5.3075   54.5232   25.7916 S.3       1 UNK         0.0000 
      9 C9          4.0448   54.0527   24.6765 C.2       1 UNK         0.0000 
     10 N10         2.9207   53.6999   25.2459 N.2       1 UNK         0.0000 
     11 N11         4.1752   54.0003   23.2980 N.am      1 UNK         0.0000 
     12 C12         5.3058   54.1253   22.5687 C.2       1 UNK         0.0000 
     13 O13         6.4329   54.3254   23.0292 O.2       1 UNK         0.0000 
     14 C14         5.1112   54.0481   21.0770 C.ar      1 UNK         0.0000 
     15 C15         5.8544   54.8948   20.2440 C.ar      1 UNK         0.0000 
     16 C16         5.7252   54.8080   18.8613 C.ar      1 UNK         0.0000 
     17 C17         4.8468   53.8764   18.3073 C.ar      1 UNK         0.0000 
     18 C18         4.1021   53.0270   19.1248 C.ar      1 UNK         0.0000 
     19 C19         4.2325   53.1124   20.5075 C.ar      1 UNK         0.0000 
     20 S20         4.7045   53.7738   16.5263 S.o2      1 UNK         0.0000 
     21 O21         6.0692   53.8139   15.9874 O.2       1 UNK         0.0000 
     22 O22         3.7838   52.6893   16.1718 O.2       1 UNK         0.0000 
     23 N23         3.9551   55.3061   16.0492 N.pl3     1 UNK         0.0000 
     24 C24         2.6151   55.6820   16.2539 C.ar      1 UNK         0.0000 
     25 C25         1.6372   54.8025   16.7410 C.ar      1 UNK         0.0000 
     26 C26         0.3161   55.2216   16.8838 C.ar      1 UNK         0.0000 
     27 C27        -0.0427   56.5266   16.5555 C.ar      1 UNK         0.0000 
     28 C28         0.9243   57.4146   16.0889 C.ar      1 UNK         0.0000 
     29 C29         2.2621   57.0072   15.9462 C.ar      1 UNK         0.0000 
     30 O30         3.2713   57.8540   15.5201 O.3       1 UNK         0.0000 
     31 C31         3.0412   59.2570   15.4752 C.3       1 UNK         0.0000 
     32 C32         4.5110   54.3800   28.5720 C.3       1 UNK         0.0000 
     33 H33         2.1043   56.0078   28.3459 H         1 UNK         0.0000 
     34 H34         1.5676   55.7211   29.9963 H         1 UNK         0.0000 
     35 H35         3.0905   56.5378   29.6815 H         1 UNK         0.0000 
     36 H36         1.4154   53.0931   29.5371 H         1 UNK         0.0000 
     37 H37         2.8454   52.2470   28.9787 H         1 UNK         0.0000 
     38 H38         1.3298   52.4369   27.0849 H         1 UNK         0.0000 
     39 H39         1.0272   54.1287   27.4033 H         1 UNK         0.0000 
     40 H40         3.3340   53.7842   22.7843 H         1 UNK         0.0000 
     41 H41         6.5491   55.6115   20.6604 H         1 UNK         0.0000 
     42 H42         6.3107   55.4527   18.2253 H         1 UNK         0.0000 
     43 H43         3.4468   52.2840   18.6920 H         1 UNK         0.0000 
     44 H44         3.6670   52.4258   21.1218 H         1 UNK         0.0000 
     45 H45         4.5845   56.0475   15.7856 H         1 UNK         0.0000 
     46 H46         1.8730   53.7866   17.0150 H         1 UNK         0.0000 
     47 H47        -0.4278   54.5342   17.2578 H         1 UNK         0.0000 
     48 H48        -1.0667   56.8526   16.6659 H         1 UNK         0.0000 
     49 H49         0.6218   58.4258   15.8570 H         1 UNK         0.0000 
     50 H50         3.9824   59.7424   15.2268 H         1 UNK         0.0000 
     51 H51         2.3183   59.5231   14.7043 H         1 UNK         0.0000 
     52 H52         2.7034   59.6518   16.4367 H         1 UNK         0.0000 
     53 H53         5.0729   55.2954   28.7719 H         1 UNK         0.0000 
     54 H54         5.1444   53.5588   28.9081 H         1 UNK         0.0000 
@<TRIPOS>BOND
     1    1    2 1    
     2    1   33 1    
     3    1   34 1    
     4    1   35 1    
     5    2    3 1    
     6    2   32 1    
     7    2    4 1    
     8    4    5 1    
     9    4   36 1    
    10    4   37 1    
    11    5    6 1    
    12    5   38 1    
    13    5   39 1    
    14    6   10 1    
    15    6    7 2    
    16    7    8 1    
    17    7   32 1    
    18    8    9 1    
    19    9   10 2    
    20    9   11 am   BACKBONE|DICT|INTERRES
    21   11   12 am   BACKBONE|DICT|INTERRES
    22   11   40 1    
    23   12   13 2    
    24   12   14 1    
    25   14   19 ar   
    26   14   15 ar   
    27   15   16 ar   
    28   15   41 1    
    29   16   17 ar   
    30   16   42 1    
    31   17   18 ar   
    32   17   20 1    
    33   18   19 ar   
    34   18   43 1    
    35   19   44 1    
    36   20   21 2    
    37   20   22 2    
    38   20   23 1    
    39   23   24 1    
    40   23   45 1    
    41   24   29 ar   
    42   24   25 ar   
    43   25   26 ar   
    44   25   46 1    
    45   26   27 ar   
    46   26   47 1    
    47   27   28 ar   
    48   27   48 1    
    49   28   29 ar   
    50   28   49 1    
    51   29   30 1    
    52   30   31 1    
    53   31   50 1    
    54   31   51 1    
    55   31   52 1    
    56   32   53 1    
    57   32   54 1    
@<TRIPOS>SUBSTRUCTURE
     1 UNK         1 GROUP             0       ****    0 ROOT    
