@<TRIPOS>MOLECULE
ZINC63280103_753
57   60    1
SMALL
USER_CHARGES


@<TRIPOS>ATOM
      1 C1          4.2723   53.1985   18.6357 C.3       1 UNK         0.0000 
      2 C2          4.4325   52.4792   19.9878 C.3       1 UNK         0.0000 
      3 H3          5.4430   52.0857   20.0854 H         1 UNK         0.0000 
      4 C4          4.0293   53.3033   21.2001 C.2       1 UNK         0.0000 
      5 C5          2.9804   52.6858   21.7723 C.2       1 UNK         0.0000 
      6 C6          2.1566   53.0758   22.9260 C.2       1 UNK         0.0000 
      7 C7          1.1573   52.2869   23.3654 C.2       1 UNK         0.0000 
      8 C8          0.9363   51.0290   22.6605 C.2       1 UNK         0.0000 
      9 C9          1.6745   50.6577   21.5787 C.2       1 UNK         0.0000 
     10 C10         2.6986   51.4880   21.1086 C.2       1 UNK         0.0000 
     11 N11         3.5059   51.3352   20.0835 N.pl3     1 UNK         0.0000 
     12 F12         0.3797   52.6633   24.4024 F         1 UNK         0.0000 
     13 C13         4.7012   54.6203   21.5464 C.3       1 UNK         0.0000 
     14 C14         5.8251   54.5438   22.5976 C.3       1 UNK         0.0000 
     15 N15         5.3080   54.4411   23.9602 N.am      1 UNK         0.0000 
     16 C16         5.9605   54.8504   25.0608 C.2       1 UNK         0.0000 
     17 O17         7.1039   55.2994   25.0322 O.2       1 UNK         0.0000 
     18 C18         5.2571   54.7146   26.4216 C.3       1 UNK         0.0000 
     19 C19         3.7307   54.4898   26.3580 C.3       1 UNK         0.0000 
     20 C20         3.1624   54.5247   27.7933 C.3       1 UNK         0.0000 
     21 N21         3.8742   53.4940   28.5813 N.am      1 UNK         0.0000 
     22 C22         5.3343   53.6954   28.7323 C.3       1 UNK         0.0000 
     23 C23         5.9719   53.7018   27.3274 C.3       1 UNK         0.0000 
     24 C24         3.2471   52.4965   29.2664 C.2       1 UNK         0.0000 
     25 O25         3.8374   51.7581   30.0598 O.2       1 UNK         0.0000 
     26 C26         1.7751   52.2453   29.0218 C.ar      1 UNK         0.0000 
     27 C27         1.3143   51.9952   27.7197 C.ar      1 UNK         0.0000 
     28 C28        -0.0293   51.7174   27.4762 C.ar      1 UNK         0.0000 
     29 C29        -0.9344   51.6955   28.5320 C.ar      1 UNK         0.0000 
     30 C30        -0.4960   51.9486   29.8270 C.ar      1 UNK         0.0000 
     31 C31         0.8472   52.2212   30.0806 C.ar      1 UNK         0.0000 
     32 Br32        1.3432   52.4964   31.9010 Br        1 UNK         0.0000 
     33 H33         4.9855   54.0137   18.5215 H         1 UNK         0.0000 
     34 H34         4.4466   52.5010   17.8134 H         1 UNK         0.0000 
     35 H35         3.2706   53.6121   18.5098 H         1 UNK         0.0000 
     36 H36         2.3057   54.0172   23.4344 H         1 UNK         0.0000 
     37 H37         0.1547   50.3709   23.0143 H         1 UNK         0.0000 
     38 H38         1.4604   49.7128   21.0974 H         1 UNK         0.0000 
     39 H39         3.9236   55.2967   21.8951 H         1 UNK         0.0000 
     40 H40         5.0982   55.0415   20.6233 H         1 UNK         0.0000 
     41 H41         6.4443   55.4409   22.5100 H         1 UNK         0.0000 
     42 H42         6.4846   53.6972   22.4167 H         1 UNK         0.0000 
     43 H43         4.4224   53.9730   24.0790 H         1 UNK         0.0000 
     44 H44         5.4411   55.6958   26.8495 H         1 UNK         0.0000 
     45 H45         3.4752   53.5179   25.9307 H         1 UNK         0.0000 
     46 H46         3.2427   55.2954   25.8094 H         1 UNK         0.0000 
     47 H47         2.0745   54.4464   27.8198 H         1 UNK         0.0000 
     48 H48         3.3940   55.4840   28.2556 H         1 UNK         0.0000 
     49 H49         5.5140   54.6455   29.2393 H         1 UNK         0.0000 
     50 H50         5.8166   52.8949   29.2816 H         1 UNK         0.0000 
     51 H51         7.0248   53.9535   27.4749 H         1 UNK         0.0000 
     52 H52         5.8697   52.6894   26.9381 H         1 UNK         0.0000 
     53 H53         1.9992   51.9957   26.8850 H         1 UNK         0.0000 
     54 H54        -0.3688   51.4945   26.4759 H         1 UNK         0.0000 
     55 H55        -1.9711   51.4488   28.3520 H         1 UNK         0.0000 
     56 H56        -1.1913   51.8885   30.6534 H         1 UNK         0.0000 
     57 H57         3.5256   50.5557   19.4271 H         1 UNK         0.0000 
@<TRIPOS>BOND
     1    1    2 1    
     2    1   33 1    
     3    1   34 1    
     4    1   35 1    
     5    2    3 1    
     6    2   11 1    
     7    2    4 1    
     8    4    5 2    
     9    4   13 1    
    10    5   10 1    
    11    5    6 1    
    12    6    7 2    
    13    6   36 1    
    14    7    8 1    
    15    7   12 1    
    16    8    9 2    
    17    8   37 1    
    18    9   10 1    
    19    9   38 1    
    20   10   11 2    
    21   11   57 1    
    22   13   14 1    
    23   13   39 1    
    24   13   40 1    
    25   14   15 1    
    26   14   41 1    
    27   14   42 1    
    28   15   16 am   BACKBONE|DICT|INTERRES
    29   15   43 1    
    30   16   17 2    
    31   16   18 1    
    32   18   23 1    
    33   18   19 1    
    34   18   44 1    
    35   19   20 1    
    36   19   45 1    
    37   19   46 1    
    38   20   21 1    
    39   20   47 1    
    40   20   48 1    
    41   21   22 1    
    42   21   24 am   BACKBONE|DICT|INTERRES
    43   22   23 1    
    44   22   49 1    
    45   22   50 1    
    46   23   51 1    
    47   23   52 1    
    48   24   25 2    
    49   24   26 1    
    50   26   31 ar   
    51   26   27 ar   
    52   27   28 ar   
    53   27   53 1    
    54   28   29 ar   
    55   28   54 1    
    56   29   30 ar   
    57   29   55 1    
    58   30   31 ar   
    59   30   56 1    
    60   31   32 1    
@<TRIPOS>SUBSTRUCTURE
     1 UNK         1 GROUP             0       ****    0 ROOT    
