@<TRIPOS>MOLECULE
ZINC06546860_3098
57   59    1
SMALL
USER_CHARGES


@<TRIPOS>ATOM
      1 C1         -7.1559   53.5267   28.4998 C.3       1 UNK         0.0000 
      2 C2         -6.8243   54.6104   27.4590 C.3       1 UNK         0.0000 
      3 O3         -6.6709   54.0469   26.1637 O.3       1 UNK         0.0000 
      4 C4         -5.5319   53.4192   25.8044 C.2       1 UNK         0.0000 
      5 O5         -4.5067   53.3414   26.4817 O.2       1 UNK         0.0000 
      6 C6         -5.6524   52.7889   24.4136 C.3       1 UNK         0.0000 
      7 N7         -4.5141   51.9278   24.0740 N.am      1 UNK         0.0000 
      8 C8         -3.2940   52.3561   23.6977 C.2       1 UNK         0.0000 
      9 O9         -2.9803   53.5465   23.6802 O.2       1 UNK         0.0000 
     10 C10        -2.2997   51.2361   23.2914 C.3       1 UNK         0.0000 
     11 H11        -2.7628   50.8482   22.3829 H         1 UNK         0.0000 
     12 C12        -0.9503   51.7353   22.8309 C.2       1 UNK         0.0000 
     13 C13        -0.3135   51.3520   21.6520 C.2       1 UNK         0.0000 
     14 C14         0.9350   51.9566   21.4686 C.2       1 UNK         0.0000 
     15 C15         1.2798   52.7977   22.5146 C.2       1 UNK         0.0000 
     16 S16         0.0540   52.8499   23.7365 S.3       1 UNK         0.0000 
     17 N17        -2.2390   50.1325   24.2984 N.am      1 UNK         0.0000 
     18 C18        -1.3583   50.2609   25.3943 C.ar      1 UNK         0.0000 
     19 C19        -0.2838   49.3738   25.4910 C.ar      1 UNK         0.0000 
     20 C20         0.7042   49.5916   26.4376 C.ar      1 UNK         0.0000 
     21 C21         0.6506   50.7017   27.2789 C.ar      1 UNK         0.0000 
     22 C22        -0.4393   51.5643   27.2294 C.ar      1 UNK         0.0000 
     23 C23        -1.4500   51.3422   26.2882 C.ar      1 UNK         0.0000 
     24 C24        -0.4886   52.7442   28.1781 C.3       1 UNK         0.0000 
     25 C25        -3.0749   49.0520   24.1459 C.2       1 UNK         0.0000 
     26 O26        -3.7713   48.8751   23.1439 O.2       1 UNK         0.0000 
     27 C27        -3.1999   48.0883   25.2095 C.2       1 UNK         0.0000 
     28 C28        -3.8591   48.1638   26.4329 C.2       1 UNK         0.0000 
     29 C29        -3.8320   46.9094   27.0928 C.2       1 UNK         0.0000 
     30 N30        -3.1984   45.9235   26.4829 N.2       1 UNK         0.0000 
     31 S31        -2.5581   46.4976   25.0063 S.3       1 UNK         0.0000 
     32 C32        -4.4591   46.5864   28.3549 C.2       1 UNK         0.0000 
     33 O33        -5.2997   45.6964   28.4785 O.2       1 UNK         0.0000 
     34 N34        -4.0960   47.3573   29.3791 N.am      1 UNK         0.0000 
     35 N35        -4.4941   49.2918   26.8958 N.pl3     1 UNK         0.0000 
     36 H36        -7.2708   53.9558   29.4939 H         1 UNK         0.0000 
     37 H37        -6.3699   52.7738   28.5600 H         1 UNK         0.0000 
     38 H38        -8.0852   53.0153   28.2484 H         1 UNK         0.0000 
     39 H39        -7.6419   55.3309   27.4144 H         1 UNK         0.0000 
     40 H40        -5.9323   55.1728   27.7419 H         1 UNK         0.0000 
     41 H41        -6.5746   52.2103   24.3514 H         1 UNK         0.0000 
     42 H42        -5.7447   53.5922   23.6828 H         1 UNK         0.0000 
     43 H43        -4.6976   50.9339   24.0249 H         1 UNK         0.0000 
     44 H44        -0.7425   50.6579   20.9440 H         1 UNK         0.0000 
     45 H45         1.5641   51.7872   20.6062 H         1 UNK         0.0000 
     46 H46         2.1795   53.3865   22.6190 H         1 UNK         0.0000 
     47 H47        -0.1859   48.5382   24.8138 H         1 UNK         0.0000 
     48 H48         1.5297   48.8979   26.4997 H         1 UNK         0.0000 
     49 H49         1.4420   50.8639   27.9958 H         1 UNK         0.0000 
     50 H50        -2.2736   52.0361   26.2290 H         1 UNK         0.0000 
     51 H51        -1.1022   52.4972   29.0451 H         1 UNK         0.0000 
     52 H52         0.5089   53.0226   28.5209 H         1 UNK         0.0000 
     53 H53        -0.8949   53.6223   27.6818 H         1 UNK         0.0000 
     54 H54        -3.2227   47.8877   29.3233 H         1 UNK         0.0000 
     55 H55        -4.5482   47.2626   30.2730 H         1 UNK         0.0000 
     56 H56        -4.9255   49.2980   27.8095 H         1 UNK         0.0000 
     57 H57        -4.3969   50.1858   26.4377 H         1 UNK         0.0000 
@<TRIPOS>BOND
     1    1    2 1    
     2    1   36 1    
     3    1   37 1    
     4    1   38 1    
     5    2    3 1    
     6    2   39 1    
     7    2   40 1    
     8    3    4 1    
     9    4    5 2    
    10    4    6 1    
    11    6    7 1    
    12    6   41 1    
    13    6   42 1    
    14    7    8 am   BACKBONE|DICT|INTERRES
    15    7   43 1    
    16    8    9 2    
    17    8   10 1    
    18   10   11 1    
    19   10   12 1    
    20   10   17 1    
    21   12   16 1    
    22   12   13 2    
    23   13   14 1    
    24   13   44 1    
    25   14   15 2    
    26   14   45 1    
    27   15   16 1    
    28   15   46 1    
    29   17   18 1    
    30   17   25 am   BACKBONE|DICT|INTERRES
    31   18   23 ar   
    32   18   19 ar   
    33   19   20 ar   
    34   19   47 1    
    35   20   21 ar   
    36   20   48 1    
    37   21   22 ar   
    38   21   49 1    
    39   22   23 ar   
    40   22   24 1    
    41   23   50 1    
    42   24   51 1    
    43   24   52 1    
    44   24   53 1    
    45   25   26 2    
    46   25   27 1    
    47   27   31 1    
    48   27   28 2    
    49   28   29 1    
    50   28   35 1    
    51   29   30 2    
    52   29   32 1    
    53   30   31 1    
    54   32   33 2    
    55   32   34 am   BACKBONE|DICT|INTERRES
    56   34   54 1    
    57   34   55 1    
    58   35   56 1    
    59   35   57 1    
@<TRIPOS>SUBSTRUCTURE
     1 UNK         1 GROUP             0       ****    0 ROOT    
