@<TRIPOS>MOLECULE
ZINC02924714_2084
51   54    1
SMALL
USER_CHARGES


@<TRIPOS>ATOM
      1 C1         -2.0178   48.7088   25.1518 C.3       1 UNK         0.0000 
      2 C2         -1.0727   49.4740   24.2449 C.ar      1 UNK         0.0000 
      3 C3          0.3075   49.3948   24.4388 C.ar      1 UNK         0.0000 
      4 C4          1.1729   50.0942   23.5980 C.ar      1 UNK         0.0000 
      5 C5          0.6657   50.8626   22.5484 C.ar      1 UNK         0.0000 
      6 C6         -0.7246   50.9774   22.3736 C.ar      1 UNK         0.0000 
      7 C7         -1.5835   50.2776   23.2229 C.ar      1 UNK         0.0000 
      8 Br8        -1.4896   52.0939   21.0249 Br        1 UNK         0.0000 
      9 N9          1.5854   51.5210   21.7259 N.am      1 UNK         0.0000 
     10 C10         1.8358   51.1880   20.4406 C.2       1 UNK         0.0000 
     11 O11         1.2593   50.2618   19.8685 O.2       1 UNK         0.0000 
     12 C12         2.9104   51.9716   19.6498 C.3       1 UNK         0.0000 
     13 N13         3.4177   53.1596   20.3483 N.am      1 UNK         0.0000 
     14 C14         4.3387   53.1431   21.3227 C.2       1 UNK         0.0000 
     15 O15         4.9232   52.1200   21.6792 O.2       1 UNK         0.0000 
     16 C16         4.5970   54.4961   22.0099 C.3       1 UNK         0.0000 
     17 N17         4.9964   54.3443   23.4356 N.pl3     1 UNK         0.0000 
     18 C18         6.3342   54.5205   23.7658 C.ar      1 UNK         0.0000 
     19 N19         6.7642   54.4947   24.9745 N.2       1 UNK         0.0000 
     20 C20         5.8404   54.2522   25.9415 C.ar      1 UNK         0.0000 
     21 C21         4.4749   54.0643   25.7286 C.ar      1 UNK         0.0000 
     22 C22         3.9679   54.0968   24.3482 C.ar      1 UNK         0.0000 
     23 O23         2.7932   53.9409   23.9995 O.2       1 UNK         0.0000 
     24 C24         3.7721   53.8484   26.9352 C.2       1 UNK         0.0000 
     25 C25         4.6389   53.8462   28.0440 C.2       1 UNK         0.0000 
     26 S26         6.2977   54.1020   27.5975 S.3       1 UNK         0.0000 
     27 C27         4.2225   53.5734   29.4823 C.3       1 UNK         0.0000 
     28 C28         2.6858   53.6652   29.6011 C.3       1 UNK         0.0000 
     29 C29         1.9734   52.9283   28.4533 C.3       1 UNK         0.0000 
     30 C30         2.2739   53.5640   27.0772 C.3       1 UNK         0.0000 
     31 H31        -2.3947   47.8169   24.6499 H         1 UNK         0.0000 
     32 H32        -2.8711   49.3306   25.4289 H         1 UNK         0.0000 
     33 H33        -1.5283   48.4110   26.0818 H         1 UNK         0.0000 
     34 H34         0.7150   48.7830   25.2328 H         1 UNK         0.0000 
     35 H35         2.2399   50.0046   23.7443 H         1 UNK         0.0000 
     36 H36        -2.6505   50.3594   23.0833 H         1 UNK         0.0000 
     37 H37         2.1700   52.2218   22.1591 H         1 UNK         0.0000 
     38 H38         3.7361   51.2967   19.4245 H         1 UNK         0.0000 
     39 H39         2.4880   52.2821   18.6932 H         1 UNK         0.0000 
     40 H40         2.9398   54.0267   20.1226 H         1 UNK         0.0000 
     41 H41         5.3563   55.0353   21.4437 H         1 UNK         0.0000 
     42 H42         3.7030   55.1198   21.9457 H         1 UNK         0.0000 
     43 H43         7.0354   54.6946   22.9553 H         1 UNK         0.0000 
     44 H44         4.5491   52.5730   29.7725 H         1 UNK         0.0000 
     45 H45         4.7008   54.2835   30.1596 H         1 UNK         0.0000 
     46 H46         2.3672   53.2494   30.5571 H         1 UNK         0.0000 
     47 H47         2.3768   54.7114   29.6075 H         1 UNK         0.0000 
     48 H48         2.2810   51.8813   28.4450 H         1 UNK         0.0000 
     49 H49         0.8955   52.9202   28.6230 H         1 UNK         0.0000 
     50 H50         1.7151   54.4946   26.9703 H         1 UNK         0.0000 
     51 H51         1.9157   52.9045   26.2857 H         1 UNK         0.0000 
@<TRIPOS>BOND
     1    1    2 1    
     2    1   31 1    
     3    1   32 1    
     4    1   33 1    
     5    2    7 ar   
     6    2    3 ar   
     7    3    4 ar   
     8    3   34 1    
     9    4    5 ar   
    10    4   35 1    
    11    5    6 ar   
    12    5    9 1    
    13    6    7 ar   
    14    6    8 1    
    15    7   36 1    
    16    9   10 am   BACKBONE|DICT|INTERRES
    17    9   37 1    
    18   10   11 2    
    19   10   12 1    
    20   12   13 1    
    21   12   38 1    
    22   12   39 1    
    23   13   14 am   BACKBONE|DICT|INTERRES
    24   13   40 1    
    25   14   15 2    
    26   14   16 1    
    27   16   17 1    
    28   16   41 1    
    29   16   42 1    
    30   17   22 ar   
    31   17   18 ar   
    32   18   19 ar   
    33   18   43 1    
    34   19   20 ar   
    35   20   26 1    
    36   20   21 ar   
    37   21   22 ar   
    38   21   24 1    
    39   22   23 2    
    40   24   30 1    
    41   24   25 2    
    42   25   26 1    
    43   25   27 1    
    44   27   28 1    
    45   27   44 1    
    46   27   45 1    
    47   28   29 1    
    48   28   46 1    
    49   28   47 1    
    50   29   30 1    
    51   29   48 1    
    52   29   49 1    
    53   30   50 1    
    54   30   51 1    
@<TRIPOS>SUBSTRUCTURE
     1 UNK         1 GROUP             0       ****    0 ROOT    
