@<TRIPOS>MOLECULE
ZINC40122897_289
55   59    1
SMALL
USER_CHARGES


@<TRIPOS>ATOM
      1 C1          2.2073   52.6638   28.7079 C.ar      1 UNK         0.0000 
      2 C2          1.2705   52.5982   29.7382 C.ar      1 UNK         0.0000 
      3 C3          0.8179   53.7698   30.3413 C.ar      1 UNK         0.0000 
      4 C4          1.2950   55.0101   29.9278 C.ar      1 UNK         0.0000 
      5 C5          2.2234   55.0797   28.8940 C.ar      1 UNK         0.0000 
      6 C6          2.6690   53.9087   28.2732 C.ar      1 UNK         0.0000 
      7 C7          3.6446   54.0399   27.1592 C.2       1 UNK         0.0000 
      8 C8          4.9386   54.4965   27.3539 C.2       1 UNK         0.0000 
      9 S9          5.8709   54.7442   25.9016 S.3       1 UNK         0.0000 
     10 C10         4.5053   54.1997   24.9508 C.ar      1 UNK         0.0000 
     11 C11         3.3987   53.7863   25.7616 C.ar      1 UNK         0.0000 
     12 C12         2.3081   53.2241   25.0421 C.ar      1 UNK         0.0000 
     13 N13         2.3005   53.2320   23.6807 N.ar      1 UNK         0.0000 
     14 C14         3.3945   53.7092   23.0456 C.ar      1 UNK         0.0000 
     15 N15         4.5352   54.1632   23.6158 N.ar      1 UNK         0.0000 
     16 N16         1.2702   52.5601   25.7293 N.pl3     1 UNK         0.0000 
     17 C17         0.2648   51.6890   25.1074 C.3       1 UNK         0.0000 
     18 C18        -0.5485   51.0155   26.2312 C.3       1 UNK         0.0000 
     19 C19        -1.6980   50.1770   25.6337 C.3       1 UNK         0.0000 
     20 N20        -1.1032   49.1026   24.6764 N.4       1 UNK         0.0000 
     21 C21        -0.1987   49.7349   23.5857 C.3       1 UNK         0.0000 
     22 C22         0.9032   50.5521   24.2666 C.3       1 UNK         0.0000 
     23 C23        -2.2165   48.2720   23.9699 C.3       1 UNK         0.0000 
     24 C24        -2.6524   47.0222   24.7504 C.2       1 UNK         0.0000 
     25 O25        -3.1590   46.0967   24.1188 O.2       1 UNK         0.0000 
     26 N26        -2.4918   46.9768   26.0816 N.am      1 UNK         0.0000 
     27 C27        -2.8625   45.8573   26.9379 C.3       1 UNK         0.0000 
     28 C28        -3.6511   46.1696   28.1862 C.3       1 UNK         0.0000 
     29 C29        -4.3107   45.4321   27.0416 C.3       1 UNK         0.0000 
     30 F30        -0.0856   53.7059   31.3430 F         1 UNK         0.0000 
     31 H31         2.5646   51.7569   28.2403 H         1 UNK         0.0000 
     32 H32         0.8877   51.6475   30.0735 H         1 UNK         0.0000 
     33 H33         0.9422   55.9121   30.4065 H         1 UNK         0.0000 
     34 H34         2.5850   56.0440   28.5670 H         1 UNK         0.0000 
     35 H35         5.3920   54.7513   28.3026 H         1 UNK         0.0000 
     36 H36         3.3644   53.7009   21.9646 H         1 UNK         0.0000 
     37 H37         1.0333   52.9594   26.6277 H         1 UNK         0.0000 
     38 H38        -0.3875   52.3139   24.4935 H         1 UNK         0.0000 
     39 H39        -0.9672   51.7647   26.9054 H         1 UNK         0.0000 
     40 H40         0.0835   50.3681   26.8441 H         1 UNK         0.0000 
     41 H41        -2.4029   50.7857   25.0645 H         1 UNK         0.0000 
     42 H42        -2.2253   49.6509   26.4317 H         1 UNK         0.0000 
     43 H43         0.2512   48.9107   23.0282 H         1 UNK         0.0000 
     44 H44        -0.8258   50.3366   22.9245 H         1 UNK         0.0000 
     45 H45         1.5039   49.8812   24.8810 H         1 UNK         0.0000 
     46 H46         1.5647   50.9122   23.4837 H         1 UNK         0.0000 
     47 H47        -1.8006   47.9248   23.0225 H         1 UNK         0.0000 
     48 H48        -3.0528   48.9334   23.7410 H         1 UNK         0.0000 
     49 H49        -1.9728   47.6974   26.5750 H         1 UNK         0.0000 
     50 H50        -2.0985   45.0832   27.0020 H         1 UNK         0.0000 
     51 H51        -3.9054   47.2126   28.3825 H         1 UNK         0.0000 
     52 H52        -3.3663   45.6475   29.0992 H         1 UNK         0.0000 
     53 H53        -4.5183   44.3655   27.1352 H         1 UNK         0.0000 
     54 H54        -5.0541   45.9483   26.4333 H         1 UNK         0.0000 
     55 H55        -0.5093   48.4850   25.2189 H         1 UNK         0.0000 
@<TRIPOS>BOND
     1    1    6 ar   
     2    1    2 ar   
     3    1   31 1    
     4    2    3 ar   
     5    2   32 1    
     6    3    4 ar   
     7    3   30 1    
     8    4    5 ar   
     9    4   33 1    
    10    5    6 ar   
    11    5   34 1    
    12    6    7 1    
    13    7   11 1    
    14    7    8 2    
    15    8    9 1    
    16    8   35 1    
    17    9   10 1    
    18   10   15 ar   
    19   10   11 ar   
    20   11   12 ar   
    21   12   13 ar   
    22   12   16 1    
    23   13   14 ar   
    24   14   15 ar   
    25   14   36 1    
    26   16   17 1    
    27   16   37 1    
    28   17   22 1    
    29   17   18 1    
    30   17   38 1    
    31   18   19 1    
    32   18   39 1    
    33   18   40 1    
    34   19   20 1    
    35   19   41 1    
    36   19   42 1    
    37   20   21 1    
    38   20   23 1    
    39   20   55 1    
    40   21   22 1    
    41   21   43 1    
    42   21   44 1    
    43   22   45 1    
    44   22   46 1    
    45   23   24 1    
    46   23   47 1    
    47   23   48 1    
    48   24   25 2    
    49   24   26 am   BACKBONE|DICT|INTERRES
    50   26   27 1    
    51   26   49 1    
    52   27   29 1    
    53   27   28 1    
    54   27   50 1    
    55   28   29 1    
    56   28   51 1    
    57   28   52 1    
    58   29   53 1    
    59   29   54 1    
@<TRIPOS>SUBSTRUCTURE
     1 UNK         1 GROUP             0       ****    0 ROOT    
