@<TRIPOS>MOLECULE
ZINC64672744_302
53   57    1
SMALL
USER_CHARGES


@<TRIPOS>ATOM
      1 C1          2.3466   53.2961   18.1685 C.3       1 UNK         0.0000 
      2 C2          3.7623   52.7275   18.3317 C.3       1 UNK         0.0000 
      3 N3          4.5944   53.4608   19.3130 N.pl3     1 UNK         0.0000 
      4 C4          4.1234   53.3642   20.7135 C.3       1 UNK         0.0000 
      5 C5          4.9508   54.1787   21.7259 C.2       1 UNK         0.0000 
      6 C6          6.0362   54.8975   21.3070 C.2       1 UNK         0.0000 
      7 O7          6.7471   55.6315   22.0977 O.co2     1 UNK         0.0000 
      8 C8          6.5150   54.8971   19.8946 C.ar      1 UNK         0.0000 
      9 C9          5.7847   54.1697   18.9360 C.ar      1 UNK         0.0000 
     10 N10         6.2486   54.1290   17.6663 N.pl3     1 UNK         0.0000 
     11 C11         7.3766   54.7319   17.2472 C.ar      1 UNK         0.0000 
     12 C12         8.1348   55.4577   18.1652 C.ar      1 UNK         0.0000 
     13 C13         7.7042   55.5384   19.4888 C.ar      1 UNK         0.0000 
     14 C14         7.7738   54.5775   15.7924 C.3       1 UNK         0.0000 
     15 C15         4.4163   54.0967   23.0920 C.2       1 UNK         0.0000 
     16 O16         3.2668   53.7005   23.3086 O.2       1 UNK         0.0000 
     17 N17         5.2654   54.4501   24.0814 N.am      1 UNK         0.0000 
     18 C18         5.0254   54.4138   25.4480 C.2       1 UNK         0.0000 
     19 N19         3.9285   54.0212   26.0528 N.2       1 UNK         0.0000 
     20 C20         4.0227   54.0289   27.3698 C.2       1 UNK         0.0000 
     21 C21         5.2542   54.4954   27.8433 C.2       1 UNK         0.0000 
     22 S22         6.3043   54.8803   26.5093 S.3       1 UNK         0.0000 
     23 C23         2.9259   53.5555   28.2186 C.2       1 UNK         0.0000 
     24 C24         1.7907   52.9104   27.8708 C.2       1 UNK         0.0000 
     25 C25         1.2430   52.4962   26.5669 C.2       1 UNK         0.0000 
     26 C26         0.0833   51.8127   26.4901 C.2       1 UNK         0.0000 
     27 C27        -0.6120   51.4989   27.7301 C.2       1 UNK         0.0000 
     28 C28        -0.1305   51.8867   28.9410 C.2       1 UNK         0.0000 
     29 C29         1.0754   52.5933   29.0325 C.2       1 UNK         0.0000 
     30 N30         1.6987   53.0285   30.1019 N.pl3     1 UNK         0.0000 
     31 C31         2.9584   53.7019   29.7232 C.3       1 UNK         0.0000 
     32 H32         1.8485   52.8587   17.3034 H         1 UNK         0.0000 
     33 H33         1.7288   53.0746   19.0393 H         1 UNK         0.0000 
     34 H34         2.3631   54.3789   18.0469 H         1 UNK         0.0000 
     35 H35         4.2600   52.7002   17.3623 H         1 UNK         0.0000 
     36 H36         3.7163   51.6965   18.6773 H         1 UNK         0.0000 
     37 H37         3.0887   53.7035   20.7338 H         1 UNK         0.0000 
     38 H38         4.1290   52.3057   20.9800 H         1 UNK         0.0000 
     39 H39         9.0527   55.9441   17.8644 H         1 UNK         0.0000 
     40 H40         8.3136   56.0828   20.1960 H         1 UNK         0.0000 
     41 H41         8.7177   55.0811   15.5797 H         1 UNK         0.0000 
     42 H42         7.8923   53.5234   15.5382 H         1 UNK         0.0000 
     43 H43         7.0106   55.0042   15.1418 H         1 UNK         0.0000 
     44 H44         6.1551   54.8131   23.7518 H         1 UNK         0.0000 
     45 H45         5.6052   54.6119   28.8597 H         1 UNK         0.0000 
     46 H46         1.7458   52.7162   25.6343 H         1 UNK         0.0000 
     47 H47        -0.3194   51.5019   25.5371 H         1 UNK         0.0000 
     48 H48        -1.5259   50.9184   27.6893 H         1 UNK         0.0000 
     49 H49        -0.6875   51.6115   29.8267 H         1 UNK         0.0000 
     50 H50         3.7881   53.1717   30.1946 H         1 UNK         0.0000 
     51 H51         2.9169   54.7413   30.0552 H         1 UNK         0.0000 
     52 H52         1.3675   52.9067   31.0568 H         1 UNK         0.0000 
     53 H53         5.7270   53.5835   16.9960 H         1 UNK         0.0000 
@<TRIPOS>BOND
     1    1    2 1    
     2    1   32 1    
     3    1   33 1    
     4    1   34 1    
     5    2    3 1    
     6    2   35 1    
     7    2   36 1    
     8    3    9 1    
     9    3    4 1    
    10    4    5 1    
    11    4   37 1    
    12    4   38 1    
    13    5    6 2    
    14    5   15 1    
    15    6    7 1    
    16    6    8 1    
    17    8   13 ar   
    18    8    9 ar   
    19    9   10 ar   
    20   10   11 ar   
    21   10   53 1    
    22   11   12 ar   
    23   11   14 1    
    24   12   13 ar   
    25   12   39 1    
    26   13   40 1    
    27   14   41 1    
    28   14   42 1    
    29   14   43 1    
    30   15   16 2    
    31   15   17 am   BACKBONE|DICT|INTERRES
    32   17   18 am   BACKBONE|DICT|INTERRES
    33   17   44 1    
    34   18   22 1    
    35   18   19 2    
    36   19   20 1    
    37   20   21 2    
    38   20   23 1    
    39   21   22 1    
    40   21   45 1    
    41   23   31 1    
    42   23   24 2    
    43   24   29 1    
    44   24   25 1    
    45   25   26 2    
    46   25   46 1    
    47   26   27 1    
    48   26   47 1    
    49   27   28 2    
    50   27   48 1    
    51   28   29 1    
    52   28   49 1    
    53   29   30 2    
    54   30   31 1    
    55   30   52 1    
    56   31   50 1    
    57   31   51 1    
@<TRIPOS>SUBSTRUCTURE
     1 UNK         1 GROUP             0       ****    0 ROOT    
