@<TRIPOS>MOLECULE
ZINC39992755_4148
52   55    1
SMALL
USER_CHARGES


@<TRIPOS>ATOM
      1 C1          2.8396   51.1521   20.1436 C.3       1 UNK         0.0000 
      2 N2          3.5108   52.4437   20.1794 N.am      1 UNK         0.0000 
      3 C3          4.6025   52.6982   20.9177 C.2       1 UNK         0.0000 
      4 O4          5.1040   51.8700   21.6815 O.2       1 UNK         0.0000 
      5 C5          5.1802   54.0294   20.7782 C.2       1 UNK         0.0000 
      6 C6          5.1263   54.8582   19.6162 C.2       1 UNK         0.0000 
      7 C7          5.9050   56.0199   19.7583 C.2       1 UNK         0.0000 
      8 S8          6.7048   56.0967   21.2813 S.3       1 UNK         0.0000 
      9 C9          5.9736   54.6121   21.7880 C.2       1 UNK         0.0000 
     10 N10         6.2554   54.0696   23.0366 N.am      1 UNK         0.0000 
     11 C11         6.2022   54.7590   24.1953 C.2       1 UNK         0.0000 
     12 O12         7.0879   55.5358   24.5629 O.2       1 UNK         0.0000 
     13 C13         5.0248   54.4680   24.9954 C.2       1 UNK         0.0000 
     14 C14         5.0797   54.5467   26.3479 C.2       1 UNK         0.0000 
     15 C15         4.0241   54.2120   27.2912 C.2       1 UNK         0.0000 
     16 C16         3.8752   54.3775   28.6624 C.2       1 UNK         0.0000 
     17 C17         2.6576   53.7868   29.0213 C.2       1 UNK         0.0000 
     18 C18         2.1030   53.2666   27.8602 C.2       1 UNK         0.0000 
     19 O19         2.9354   53.5472   26.8286 O.3       1 UNK         0.0000 
     20 C20         0.8673   52.4980   27.5303 C.ar      1 UNK         0.0000 
     21 C21         0.0225   52.0304   28.5421 C.ar      1 UNK         0.0000 
     22 C22        -1.1231   51.3002   28.2197 C.ar      1 UNK         0.0000 
     23 C23        -1.4375   51.0393   26.8866 C.ar      1 UNK         0.0000 
     24 C24        -0.6043   51.5049   25.8732 C.ar      1 UNK         0.0000 
     25 C25         0.5444   52.2242   26.1944 C.ar      1 UNK         0.0000 
     26 Br26       -1.0254   51.1572   24.0503 Br        1 UNK         0.0000 
     27 C27         3.8291   54.0960   24.2951 C.1       1 UNK         0.0000 
     28 N28         2.8602   53.8378   23.7163 N.1       1 UNK         0.0000 
     29 C29         6.1182   57.0839   18.6915 C.3       1 UNK         0.0000 
     30 C30         5.0305   56.9386   17.6114 C.3       1 UNK         0.0000 
     31 C31         4.8847   55.4790   17.1590 C.3       1 UNK         0.0000 
     32 C32         4.3964   54.5584   18.2983 C.3       1 UNK         0.0000 
     33 H33         1.9131   51.2213   19.5709 H         1 UNK         0.0000 
     34 H34         3.4778   50.4053   19.6655 H         1 UNK         0.0000 
     35 H35         2.5957   50.8071   21.1504 H         1 UNK         0.0000 
     36 H36         3.0846   53.1989   19.6623 H         1 UNK         0.0000 
     37 H37         5.8490   53.1448   23.0952 H         1 UNK         0.0000 
     38 H38         5.9892   54.8713   26.8361 H         1 UNK         0.0000 
     39 H39         4.5767   54.8617   29.3255 H         1 UNK         0.0000 
     40 H40         2.2295   53.7270   30.0118 H         1 UNK         0.0000 
     41 H41         0.2535   52.2140   29.5810 H         1 UNK         0.0000 
     42 H42        -1.7581   50.9143   29.0042 H         1 UNK         0.0000 
     43 H43        -2.3150   50.4573   26.6485 H         1 UNK         0.0000 
     44 H44         1.1795   52.5697   25.3930 H         1 UNK         0.0000 
     45 H45         7.0988   56.9513   18.2328 H         1 UNK         0.0000 
     46 H46         6.1006   58.0898   19.1109 H         1 UNK         0.0000 
     47 H47         5.2738   57.5749   16.7603 H         1 UNK         0.0000 
     48 H48         4.0719   57.2963   17.9911 H         1 UNK         0.0000 
     49 H49         5.8451   55.1209   16.7835 H         1 UNK         0.0000 
     50 H50         4.1917   55.4156   16.3178 H         1 UNK         0.0000 
     51 H51         3.3240   54.7022   18.4382 H         1 UNK         0.0000 
     52 H52         4.5338   53.5202   17.9917 H         1 UNK         0.0000 
@<TRIPOS>BOND
     1    1    2 1    
     2    1   33 1    
     3    1   34 1    
     4    1   35 1    
     5    2    3 am   BACKBONE|DICT|INTERRES
     6    2   36 1    
     7    3    4 2    
     8    3    5 1    
     9    5    9 2    
    10    5    6 1    
    11    6   32 1    
    12    6    7 2    
    13    7    8 1    
    14    7   29 1    
    15    8    9 1    
    16    9   10 am   BACKBONE|DICT|INTERRES
    17   10   11 am   BACKBONE|DICT|INTERRES
    18   10   37 1    
    19   11   12 2    
    20   11   13 1    
    21   13   14 2    
    22   13   27 1    
    23   14   15 1    
    24   14   38 1    
    25   15   19 1    
    26   15   16 2    
    27   16   17 1    
    28   16   39 1    
    29   17   18 2    
    30   17   40 1    
    31   18   19 1    
    32   18   20 1    
    33   20   25 ar   
    34   20   21 ar   
    35   21   22 ar   
    36   21   41 1    
    37   22   23 ar   
    38   22   42 1    
    39   23   24 ar   
    40   23   43 1    
    41   24   25 ar   
    42   24   26 1    
    43   25   44 1    
    44   27   28 3    
    45   29   30 1    
    46   29   45 1    
    47   29   46 1    
    48   30   31 1    
    49   30   47 1    
    50   30   48 1    
    51   31   32 1    
    52   31   49 1    
    53   31   50 1    
    54   32   51 1    
    55   32   52 1    
@<TRIPOS>SUBSTRUCTURE
     1 UNK         1 GROUP             0       ****    0 ROOT    
