@<TRIPOS>MOLECULE
ZINC40532897_1641
36   37    1
SMALL
USER_CHARGES


@<TRIPOS>ATOM
      1 C1          0.8409   52.5955   24.3082 C.3       1 UNK         0.0000 
      2 C2          1.3116   52.6958   25.7546 C.ar      1 UNK         0.0000 
      3 C3          2.3035   53.6356   26.0515 C.ar      1 UNK         0.0000 
      4 C4          2.8464   53.7178   27.3312 C.ar      1 UNK         0.0000 
      5 C5          2.4308   52.8428   28.3416 C.ar      1 UNK         0.0000 
      6 C6          1.4262   51.9078   28.0502 C.ar      1 UNK         0.0000 
      7 C7          0.8457   51.8401   26.7786 C.ar      1 UNK         0.0000 
      8 N8         -0.1160   50.8332   26.5949 N.am      1 UNK         0.0000 
      9 C9         -1.3511   50.9773   26.0818 C.2       1 UNK         0.0000 
     10 O10        -1.8309   52.0287   25.6521 O.2       1 UNK         0.0000 
     11 N11        -2.0018   49.8030   26.0816 N.am      1 UNK         0.0000 
     12 C12        -3.2266   49.4824   25.3411 C.3       1 UNK         0.0000 
     13 H13        -3.7022   50.4314   25.0770 H         1 UNK         0.0000 
     14 C14        -4.2031   48.6530   26.2021 C.3       1 UNK         0.0000 
     15 C15        -3.6674   47.2121   26.3027 C.3       1 UNK         0.0000 
     16 S16        -2.8286   46.8962   24.6530 S.o2      1 UNK         0.0000 
     17 O17        -1.4361   46.5046   24.8808 O.2       1 UNK         0.0000 
     18 O18        -3.6888   46.0576   23.8148 O.2       1 UNK         0.0000 
     19 C19        -2.9304   48.6785   24.0638 C.3       1 UNK         0.0000 
     20 C20         3.0596   52.8973   29.6974 C.2       1 UNK         0.0000 
     21 O21         3.5045   54.0048   30.0818 O.co2     1 UNK         0.0000 
     22 O22         3.1038   51.8381   30.3684 O.co2     1 UNK         0.0000 
     23 H23         1.5977   52.9710   23.6146 H         1 UNK         0.0000 
     24 H24         0.6591   51.5564   24.0257 H         1 UNK         0.0000 
     25 H25        -0.0768   53.1671   24.1629 H         1 UNK         0.0000 
     26 H26         2.6730   54.2998   25.2814 H         1 UNK         0.0000 
     27 H27         3.6198   54.4466   27.5257 H         1 UNK         0.0000 
     28 H28         1.0928   51.2281   28.8237 H         1 UNK         0.0000 
     29 H29         0.0828   49.9476   27.0365 H         1 UNK         0.0000 
     30 H30        -1.6971   49.1072   26.7577 H         1 UNK         0.0000 
     31 H31        -4.3348   49.0951   27.1903 H         1 UNK         0.0000 
     32 H32        -5.1924   48.6596   25.7401 H         1 UNK         0.0000 
     33 H33        -2.8952   47.1810   27.0702 H         1 UNK         0.0000 
     34 H34        -4.3858   46.4261   26.5294 H         1 UNK         0.0000 
     35 H35        -3.8129   48.7227   23.4248 H         1 UNK         0.0000 
     36 H36        -2.0480   48.9369   23.4803 H         1 UNK         0.0000 
@<TRIPOS>BOND
     1    1    2 1    
     2    1   23 1    
     3    1   24 1    
     4    1   25 1    
     5    2    7 ar   
     6    2    3 ar   
     7    3    4 ar   
     8    3   26 1    
     9    4    5 ar   
    10    4   27 1    
    11    5    6 ar   
    12    5   20 1    
    13    6    7 ar   
    14    6   28 1    
    15    7    8 1    
    16    8    9 am   BACKBONE|DICT|INTERRES
    17    8   29 1    
    18    9   10 2    
    19    9   11 am   BACKBONE|DICT|INTERRES
    20   11   12 1    
    21   11   30 1    
    22   12   13 1    
    23   12   19 1    
    24   12   14 1    
    25   14   15 1    
    26   14   31 1    
    27   14   32 1    
    28   15   16 1    
    29   15   33 1    
    30   15   34 1    
    31   16   17 2    
    32   16   18 2    
    33   16   19 1    
    34   19   35 1    
    35   19   36 1    
    36   20   21 2    
    37   20   22 1    
@<TRIPOS>SUBSTRUCTURE
     1 UNK         1 GROUP             0       ****    0 ROOT    
