@<TRIPOS>MOLECULE
ZINC63567106_1500
49   52    1
SMALL
USER_CHARGES


@<TRIPOS>ATOM
      1 C1          4.5790   53.8479   28.6484 C.ar      1 UNK         0.0000 
      2 C2          3.8542   53.4864   29.7936 C.ar      1 UNK         0.0000 
      3 C3          2.5284   53.1075   29.6334 C.ar      1 UNK         0.0000 
      4 C4          1.9340   53.0788   28.4063 C.ar      1 UNK         0.0000 
      5 C5          2.6268   53.4188   27.2499 C.ar      1 UNK         0.0000 
      6 C6          3.9737   53.8087   27.3687 C.ar      1 UNK         0.0000 
      7 N7          4.6273   54.1058   26.1604 N.am      1 UNK         0.0000 
      8 C8          5.9010   54.4965   25.9016 C.2       1 UNK         0.0000 
      9 O9          6.7375   54.7375   26.7680 O.2       1 UNK         0.0000 
     10 N10         6.2658   54.6239   24.5995 N.am      1 UNK         0.0000 
     11 C11         5.5346   54.4756   23.4640 C.2       1 UNK         0.0000 
     12 O12         4.3320   54.1846   23.4466 O.2       1 UNK         0.0000 
     13 C13         6.3172   54.7387   22.1526 C.3       1 UNK         0.0000 
     14 N14         5.4992   54.6379   20.9211 N.3       1 UNK         0.0000 
     15 C15         5.0500   53.2624   20.6107 C.3       1 UNK         0.0000 
     16 C16         4.0854   53.2155   19.4028 C.3       1 UNK         0.0000 
     17 O17         4.6680   53.8644   18.2782 O.3       1 UNK         0.0000 
     18 C18         5.0506   55.2062   18.5552 C.3       1 UNK         0.0000 
     19 C19         6.1022   55.2375   19.7075 C.3       1 UNK         0.0000 
     20 C20         6.6800   56.6669   19.8815 C.3       1 UNK         0.0000 
     21 C21         7.1596   57.3038   18.5604 C.3       1 UNK         0.0000 
     22 C22         6.1005   57.2281   17.4456 C.3       1 UNK         0.0000 
     23 C23         5.6154   55.7817   17.2429 C.3       1 UNK         0.0000 
     24 O24         0.6544   52.6423   28.5404 O.3       1 UNK         0.0000 
     25 C25         0.4089   52.6072   29.9224 C.3       1 UNK         0.0000 
     26 O26         1.6493   52.6805   30.5754 O.3       1 UNK         0.0000 
     27 H27         5.6099   54.1414   28.7767 H         1 UNK         0.0000 
     28 H28         4.3044   53.4978   30.7731 H         1 UNK         0.0000 
     29 H29         2.1436   53.3673   26.2847 H         1 UNK         0.0000 
     30 H30         4.0600   53.9782   25.3329 H         1 UNK         0.0000 
     31 H31         7.2314   54.8812   24.4607 H         1 UNK         0.0000 
     32 H32         6.6871   55.7538   22.2781 H         1 UNK         0.0000 
     33 H33         7.1919   54.1009   22.0869 H         1 UNK         0.0000 
     34 H34         5.9029   52.6115   20.4220 H         1 UNK         0.0000 
     35 H35         4.5358   52.8180   21.4613 H         1 UNK         0.0000 
     36 H36         3.8603   52.1825   19.1378 H         1 UNK         0.0000 
     37 H37         3.1424   53.6964   19.6664 H         1 UNK         0.0000 
     38 H38         4.1704   55.7912   18.8340 H         1 UNK         0.0000 
     39 H39         6.9179   54.5911   19.3750 H         1 UNK         0.0000 
     40 H40         5.9045   57.2977   20.3081 H         1 UNK         0.0000 
     41 H41         7.5291   56.6544   20.5623 H         1 UNK         0.0000 
     42 H42         8.0670   56.7987   18.2259 H         1 UNK         0.0000 
     43 H43         7.4396   58.3453   18.7290 H         1 UNK         0.0000 
     44 H44         6.5131   57.6173   16.5132 H         1 UNK         0.0000 
     45 H45         5.2546   57.8733   17.6935 H         1 UNK         0.0000 
     46 H46         6.4614   55.1807   16.9043 H         1 UNK         0.0000 
     47 H47         4.8502   55.7672   16.4654 H         1 UNK         0.0000 
     48 H48        -0.1939   53.4720   30.2059 H         1 UNK         0.0000 
     49 H49        -0.1262   51.6976   30.2025 H         1 UNK         0.0000 
@<TRIPOS>BOND
     1    1    6 ar   
     2    1    2 ar   
     3    1   27 1    
     4    2    3 ar   
     5    2   28 1    
     6    3   26 1    
     7    3    4 ar   
     8    4    5 ar   
     9    4   24 1    
    10    5    6 ar   
    11    5   29 1    
    12    6    7 1    
    13    7    8 am   BACKBONE|DICT|INTERRES
    14    7   30 1    
    15    8    9 2    
    16    8   10 am   BACKBONE|DICT|INTERRES
    17   10   11 am   BACKBONE|DICT|INTERRES
    18   10   31 1    
    19   11   12 2    
    20   11   13 1    
    21   13   14 1    
    22   13   32 1    
    23   13   33 1    
    24   14   19 1    
    25   14   15 1    
    26   15   16 1    
    27   15   34 1    
    28   15   35 1    
    29   16   17 1    
    30   16   36 1    
    31   16   37 1    
    32   17   18 1    
    33   18   23 1    
    34   18   19 1    
    35   18   38 1    
    36   19   20 1    
    37   19   39 1    
    38   20   21 1    
    39   20   40 1    
    40   20   41 1    
    41   21   22 1    
    42   21   42 1    
    43   21   43 1    
    44   22   23 1    
    45   22   44 1    
    46   22   45 1    
    47   23   46 1    
    48   23   47 1    
    49   24   25 1    
    50   25   26 1    
    51   25   48 1    
    52   25   49 1    
@<TRIPOS>SUBSTRUCTURE
     1 UNK         1 GROUP             0       ****    0 ROOT    
