@<TRIPOS>MOLECULE
ZINC36618847_4962
60   64    1
SMALL
USER_CHARGES


@<TRIPOS>ATOM
      1 C1          3.2751   52.3671   30.1681 C.3       1 UNK         0.0000 
      2 C2          1.7430   52.2824   30.0025 C.3       1 UNK         0.0000 
      3 C3          1.0409   52.3370   31.3739 C.3       1 UNK         0.0000 
      4 C4          1.1736   53.3796   29.0689 C.3       1 UNK         0.0000 
      5 C5          1.6060   53.2969   27.6072 C.ar      1 UNK         0.0000 
      6 C6          0.7383   52.7659   26.6515 C.ar      1 UNK         0.0000 
      7 C7          1.0766   52.8010   25.2997 C.ar      1 UNK         0.0000 
      8 C8          2.3173   53.2960   24.8873 C.ar      1 UNK         0.0000 
      9 C9          3.1965   53.7980   25.8610 C.ar      1 UNK         0.0000 
     10 C10         2.8377   53.8147   27.2061 C.ar      1 UNK         0.0000 
     11 C11         2.7237   53.2962   23.4615 C.2       1 UNK         0.0000 
     12 N12         3.7068   53.9753   23.0118 N.2       1 UNK         0.0000 
     13 N13         3.9232   53.7725   21.7802 N.2       1 UNK         0.0000 
     14 C14         3.0862   52.9431   21.3461 C.2       1 UNK         0.0000 
     15 C15         2.0228   52.5353   22.3318 C.3       1 UNK         0.0000 
     16 H16         1.0966   53.0424   22.0642 H         1 UNK         0.0000 
     17 C17         1.8421   50.9615   22.2676 C.3       1 UNK         0.0000 
     18 H18         2.7056   50.5090   22.7580 H         1 UNK         0.0000 
     19 C19         1.9270   50.4537   20.8122 C.2       1 UNK         0.0000 
     20 C20         2.5492   51.2059   19.8757 C.2       1 UNK         0.0000 
     21 O21         3.1537   52.4032   20.0888 O.3       1 UNK         0.0000 
     22 N22         2.7044   50.8956   18.5548 N.pl3     1 UNK         0.0000 
     23 C23         1.3667   49.1916   20.4422 C.1       1 UNK         0.0000 
     24 N24         0.9175   48.1874   20.0822 N.1       1 UNK         0.0000 
     25 C25         0.6086   50.4581   23.0372 C.ar      1 UNK         0.0000 
     26 C26         0.8116   49.6949   24.1934 C.ar      1 UNK         0.0000 
     27 C27        -0.2568   49.2939   24.9903 C.ar      1 UNK         0.0000 
     28 C28        -1.5514   49.6587   24.6396 C.ar      1 UNK         0.0000 
     29 C29        -1.7758   50.3908   23.4753 C.ar      1 UNK         0.0000 
     30 C30        -0.7091   50.7678   22.6372 C.ar      1 UNK         0.0000 
     31 O31        -0.8983   51.4564   21.4476 O.3       1 UNK         0.0000 
     32 C32        -1.8899   51.1328   20.5558 C.2       1 UNK         0.0000 
     33 O33        -2.8415   50.3740   20.7531 O.2       1 UNK         0.0000 
     34 C34        -1.6907   51.8302   19.2921 C.2       1 UNK         0.0000 
     35 C35        -0.6014   52.4968   18.7429 C.2       1 UNK         0.0000 
     36 C36        -1.0022   52.9662   17.4909 C.2       1 UNK         0.0000 
     37 C37        -2.3151   52.5595   17.3238 C.2       1 UNK         0.0000 
     38 O38        -2.7333   51.8705   18.4174 O.3       1 UNK         0.0000 
     39 H39         3.5919   53.3681   30.4611 H         1 UNK         0.0000 
     40 H40         3.6419   51.6809   30.9311 H         1 UNK         0.0000 
     41 H41         3.7889   52.1151   29.2400 H         1 UNK         0.0000 
     42 H42         1.5080   51.3111   29.5617 H         1 UNK         0.0000 
     43 H43         1.1045   53.3254   31.8270 H         1 UNK         0.0000 
     44 H44        -0.0196   52.0971   31.2819 H         1 UNK         0.0000 
     45 H45         1.4685   51.6259   32.0808 H         1 UNK         0.0000 
     46 H46         0.0825   53.3549   29.1007 H         1 UNK         0.0000 
     47 H47         1.4344   54.3681   29.4509 H         1 UNK         0.0000 
     48 H48        -0.2246   52.3726   26.9453 H         1 UNK         0.0000 
     49 H49         0.3499   52.4523   24.5859 H         1 UNK         0.0000 
     50 H50         4.1651   54.1917   25.5858 H         1 UNK         0.0000 
     51 H51         3.5183   54.2346   27.9325 H         1 UNK         0.0000 
     52 H52         2.2495   50.0749   18.1825 H         1 UNK         0.0000 
     53 H53         3.6010   51.0955   18.1176 H         1 UNK         0.0000 
     54 H54         1.8114   49.4111   24.4839 H         1 UNK         0.0000 
     55 H55        -0.0832   48.7129   25.8863 H         1 UNK         0.0000 
     56 H56        -2.3796   49.3647   25.2683 H         1 UNK         0.0000 
     57 H57        -2.7916   50.6558   23.2248 H         1 UNK         0.0000 
     58 H58         0.3669   52.6428   19.2000 H         1 UNK         0.0000 
     59 H59        -0.4032   53.5315   16.7911 H         1 UNK         0.0000 
     60 H60        -3.0354   52.6760   16.5262 H         1 UNK         0.0000 
@<TRIPOS>BOND
     1    1    2 1    
     2    1   39 1    
     3    1   40 1    
     4    1   41 1    
     5    2    3 1    
     6    2    4 1    
     7    2   42 1    
     8    3   43 1    
     9    3   44 1    
    10    3   45 1    
    11    4    5 1    
    12    4   46 1    
    13    4   47 1    
    14    5   10 ar   
    15    5    6 ar   
    16    6    7 ar   
    17    6   48 1    
    18    7    8 ar   
    19    7   49 1    
    20    8    9 ar   
    21    8   11 1    
    22    9   10 ar   
    23    9   50 1    
    24   10   51 1    
    25   11   15 1    
    26   11   12 2    
    27   12   13 1    
    28   13   14 2    
    29   14   21 1    
    30   14   15 1    
    31   15   16 1    
    32   15   17 1    
    33   17   18 1    
    34   17   19 1    
    35   17   25 1    
    36   19   20 2    
    37   19   23 1    
    38   20   21 1    
    39   20   22 1    
    40   22   52 1    
    41   22   53 1    
    42   23   24 3    
    43   25   30 ar   
    44   25   26 ar   
    45   26   27 ar   
    46   26   54 1    
    47   27   28 ar   
    48   27   55 1    
    49   28   29 ar   
    50   28   56 1    
    51   29   30 ar   
    52   29   57 1    
    53   30   31 1    
    54   31   32 1    
    55   32   33 2    
    56   32   34 1    
    57   34   38 1    
    58   34   35 2    
    59   35   36 1    
    60   35   58 1    
    61   36   37 2    
    62   36   59 1    
    63   37   38 1    
    64   37   60 1    
@<TRIPOS>SUBSTRUCTURE
     1 UNK         1 GROUP             0       ****    0 ROOT    
