@<TRIPOS>MOLECULE
ZINC12561014_2659
45   48    1
SMALL
USER_CHARGES


@<TRIPOS>ATOM
      1 C1          3.0105   54.0110   28.5989 C.ar      1 UNK         0.0000 
      2 C2          4.1996   54.1793   29.3035 C.ar      1 UNK         0.0000 
      3 C3          5.3863   54.4267   28.6207 C.ar      1 UNK         0.0000 
      4 C4          5.3900   54.4965   27.2304 C.ar      1 UNK         0.0000 
      5 C5          4.2003   54.3135   26.4975 C.ar      1 UNK         0.0000 
      6 C6          3.0167   54.0747   27.2052 C.ar      1 UNK         0.0000 
      7 C7          4.2314   54.3056   24.9744 C.3       1 UNK         0.0000 
      8 C8          5.5726   54.8703   24.4481 C.3       1 UNK         0.0000 
      9 H9          5.5429   55.9583   24.4833 H         1 UNK         0.0000 
     10 C10         6.7518   54.3798   25.3003 C.3       1 UNK         0.0000 
     11 O11         6.5985   54.8252   26.6454 O.3       1 UNK         0.0000 
     12 C12         5.8292   54.4971   22.9685 C.2       1 UNK         0.0000 
     13 O13         5.2549   53.5396   22.4492 O.2       1 UNK         0.0000 
     14 N14         6.7045   55.2964   22.3197 N.am      1 UNK         0.0000 
     15 C15         7.0163   55.2964   20.9523 C.ar      1 UNK         0.0000 
     16 C16         8.3044   55.6969   20.6079 C.ar      1 UNK         0.0000 
     17 C17         8.7046   55.6936   19.2772 C.ar      1 UNK         0.0000 
     18 C18         7.8238   55.2679   18.2875 C.ar      1 UNK         0.0000 
     19 C19         6.5285   54.8660   18.6174 C.ar      1 UNK         0.0000 
     20 C20         6.1173   54.8978   19.9496 C.ar      1 UNK         0.0000 
     21 S21         8.3864   55.2548   16.5925 S.o2      1 UNK         0.0000 
     22 O22         7.4026   54.5322   15.7804 O.2       1 UNK         0.0000 
     23 O23         8.7764   56.6328   16.2768 O.2       1 UNK         0.0000 
     24 N24         9.8878   54.3183   16.6155 N.pl3     1 UNK         0.0000 
     25 C25        10.0037   52.9584   16.4765 C.2       1 UNK         0.0000 
     26 N26        11.0983   52.3782   16.0538 N.2       1 UNK         0.0000 
     27 C27        10.9789   51.0646   16.0140 C.2       1 UNK         0.0000 
     28 C28         9.7560   50.5456   16.4273 C.2       1 UNK         0.0000 
     29 S29         8.7105   51.8620   16.8814 S.3       1 UNK         0.0000 
     30 H30         2.0866   53.8178   29.1263 H         1 UNK         0.0000 
     31 H31         4.2089   54.1233   30.3825 H         1 UNK         0.0000 
     32 H32         6.3041   54.5627   29.1713 H         1 UNK         0.0000 
     33 H33         2.0912   53.9219   26.6668 H         1 UNK         0.0000 
     34 H34         4.0345   53.2938   24.6246 H         1 UNK         0.0000 
     35 H35         3.4063   54.9323   24.6330 H         1 UNK         0.0000 
     36 H36         7.7024   54.7697   24.9357 H         1 UNK         0.0000 
     37 H37         6.8004   53.2958   25.3092 H         1 UNK         0.0000 
     38 H38         7.3006   55.8741   22.8936 H         1 UNK         0.0000 
     39 H39         9.0124   56.0060   21.3648 H         1 UNK         0.0000 
     40 H40         9.7077   56.0055   19.0185 H         1 UNK         0.0000 
     41 H41         5.8396   54.5360   17.8509 H         1 UNK         0.0000 
     42 H42         5.1088   54.5924   20.1894 H         1 UNK         0.0000 
     43 H43        10.7090   54.8921   16.7165 H         1 UNK         0.0000 
     44 H44        11.8154   50.4735   15.6687 H         1 UNK         0.0000 
     45 H45         9.4389   49.5160   16.4843 H         1 UNK         0.0000 
@<TRIPOS>BOND
     1    1    6 ar   
     2    1    2 ar   
     3    1   30 1    
     4    2    3 ar   
     5    2   31 1    
     6    3    4 ar   
     7    3   32 1    
     8    4   11 1    
     9    4    5 ar   
    10    5    6 ar   
    11    5    7 1    
    12    6   33 1    
    13    7    8 1    
    14    7   34 1    
    15    7   35 1    
    16    8    9 1    
    17    8   10 1    
    18    8   12 1    
    19   10   11 1    
    20   10   36 1    
    21   10   37 1    
    22   12   13 2    
    23   12   14 am   BACKBONE|DICT|INTERRES
    24   14   15 1    
    25   14   38 1    
    26   15   20 ar   
    27   15   16 ar   
    28   16   17 ar   
    29   16   39 1    
    30   17   18 ar   
    31   17   40 1    
    32   18   19 ar   
    33   18   21 1    
    34   19   20 ar   
    35   19   41 1    
    36   20   42 1    
    37   21   22 2    
    38   21   23 2    
    39   21   24 1    
    40   24   25 1    
    41   24   43 1    
    42   25   29 1    
    43   25   26 2    
    44   26   27 1    
    45   27   28 2    
    46   27   44 1    
    47   28   29 1    
    48   28   45 1    
@<TRIPOS>SUBSTRUCTURE
     1 UNK         1 GROUP             0       ****    0 ROOT    
