ZINC09237795_2035
                    3D
 Schrodinger Suite 2024-2.
 49 52  0  0  1  0            999 V2000
    2.8857   54.4377   28.2687 C   0  0  0  0  0  0
    3.9676   54.4089   27.2058 C   0  0  0  0  0  0
    5.3121   54.4947   27.5739 C   0  0  0  0  0  0
    6.3062   54.4955   26.5978 C   0  0  0  0  0  0
    5.9623   54.4133   25.2478 C   0  0  0  0  0  0
    4.6131   54.3098   24.8681 C   0  0  0  0  0  0
    3.6234   54.3195   25.8533 C   0  0  0  0  0  0
    4.1861   54.2327   23.5293 N   0  0  0  0  0  0
    4.8521   53.6969   22.4840 C   0  0  0  0  0  0
    5.9042   53.0736   22.6066 O   0  0  0  0  0  0
    4.1955   53.8281   21.0894 C   0  0  2  0  0  0
    3.4521   54.6193   21.1568 H   0  0  0  0  0  0
    3.5653   52.4730   20.6183 C   0  0  2  0  0  0
    4.3834   51.7556   20.5156 H   0  0  0  0  0  0
    2.9474   52.5991   19.3004 N   0  0  0  0  0  0
    3.7904   53.1221   18.3226 N   0  0  0  0  0  0
    3.6751   52.9368   16.9642 C   0  0  0  0  0  0
    4.6174   53.5826   16.3239 N   0  0  0  0  0  0
    5.3962   54.2207   17.2831 N   0  0  0  0  0  0
    4.8908   53.9392   18.4610 C   0  0  0  0  0  0
    5.5041   54.5144   20.0066 S   0  0  0  0  0  0
    2.6111   52.0887   16.3028 C   0  0  0  0  0  0
    2.5683   51.8641   21.6115 C   0  0  0  0  0  0
    2.6447   50.5064   21.9279 C   0  0  0  0  0  0
    1.7915   49.9567   22.8835 C   0  0  0  0  0  0
    0.8483   50.7549   23.5517 C   0  0  0  0  0  0
    0.7520   52.1087   23.2041 C   0  0  0  0  0  0
    1.5888   52.6505   22.2282 C   0  0  0  0  0  0
   -0.4934   53.2548   24.0811 Br  0  0  0  0  0  0
    0.0045   50.2917   24.5470 O   0  0  0  0  0  0
    0.1501   48.9599   25.0346 C   0  0  0  0  0  0
    3.1511   55.1346   29.0654 H   0  0  0  0  0  0
    2.7566   53.4463   28.7065 H   0  0  0  0  0  0
    1.9322   54.7765   27.8590 H   0  0  0  0  0  0
    5.5932   54.5660   28.6159 H   0  0  0  0  0  0
    7.3431   54.5588   26.8920 H   0  0  0  0  0  0
    6.7508   54.4291   24.5105 H   0  0  0  0  0  0
    2.5823   54.2432   25.5737 H   0  0  0  0  0  0
    3.2501   54.5646   23.3601 H   0  0  0  0  0  0
    2.7181   51.6629   18.9977 H   0  0  0  0  0  0
    2.6779   52.1216   15.2135 H   0  0  0  0  0  0
    2.7046   51.0398   16.5927 H   0  0  0  0  0  0
    1.6062   52.4145   16.5738 H   0  0  0  0  0  0
    3.3763   49.8783   21.4431 H   0  0  0  0  0  0
    1.8927   48.9075   23.1115 H   0  0  0  0  0  0
    1.4936   53.6965   21.9740 H   0  0  0  0  0  0
   -0.5925   48.7782   25.8121 H   0  0  0  0  0  0
   -0.0095   48.2181   24.2516 H   0  0  0  0  0  0
    1.1313   48.8015   25.4817 H   0  0  0  0  0  0
  1  2  1  0  0  0
  1 32  1  0  0  0
  1 33  1  0  0  0
  1 34  1  0  0  0
  2  7  2  0  0  0
  2  3  1  0  0  0
  3  4  2  0  0  0
  3 35  1  0  0  0
  4  5  1  0  0  0
  4 36  1  0  0  0
  5  6  2  0  0  0
  5 37  1  0  0  0
  6  7  1  0  0  0
  6  8  1  0  0  0
  7 38  1  0  0  0
  8  9  1  0  0  0
  8 39  1  0  0  0
  9 10  2  0  0  0
  9 11  1  0  0  0
 11 12  1  0  0  0
 11 21  1  0  0  0
 11 13  1  0  0  0
 13 14  1  0  0  0
 13 15  1  0  0  0
 13 23  1  0  0  0
 15 16  1  0  0  0
 15 40  1  0  0  0
 16 20  1  0  0  0
 16 17  1  0  0  0
 17 18  2  0  0  0
 17 22  1  0  0  0
 18 19  1  0  0  0
 19 20  2  0  0  0
 20 21  1  0  0  0
 22 41  1  0  0  0
 22 42  1  0  0  0
 22 43  1  0  0  0
 23 28  2  0  0  0
 23 24  1  0  0  0
 24 25  2  0  0  0
 24 44  1  0  0  0
 25 26  1  0  0  0
 25 45  1  0  0  0
 26 27  2  0  0  0
 26 30  1  0  0  0
 27 28  1  0  0  0
 27 29  1  0  0  0
 28 46  1  0  0  0
 30 31  1  0  0  0
 31 47  1  0  0  0
 31 48  1  0  0  0
 31 49  1  0  0  0
M  END
> <i_i_glide_confnum>
6

> <i_i_glide_lignum>
2036

> <i_i_glide_posenum>
284

> <i_i_glide_rotatable_bonds>
5

> <i_m_Source_File_Index>
320

> <b_m_subgroup_collapsed>
0

> <r_i_docking_score>
-5.49682

> <r_i_glide_ecoul>
-3.40594

> <r_i_glide_eff_state_penalty>
0

> <r_i_glide_einternal>
2.31161

> <r_i_glide_emodel>
-57.5414

> <r_i_glide_energy>
-43.7052

> <r_i_glide_erotb>
0.359674

> <r_i_glide_esite>
-0.188713

> <r_i_glide_evdw>
-40.2993

> <r_i_glide_gscore>
-5.49682

> <r_i_glide_hbond>
0

> <r_i_glide_ligand_efficiency>
-0.189545

> <r_i_glide_ligand_efficiency_ln>
-1.25863

> <r_i_glide_ligand_efficiency_sa>
-0.582343

> <r_i_glide_lipo>
-2.6258

> <r_i_glide_metal>
0

> <r_i_glide_rewards>
-0.516124

> <s_i_glide_gridfile>
wee1_glide-grid

> <s_m_Source_File>
wee1_decoys_glide_SP.sdf

> <s_m_Source_Path>
/Users/zhangxujun/Desktop

> <s_m_entry_id>
595

> <s_m_entry_name>
wee1_decoys_glide_SP.320

> <s_m_subgroup_title>
wee1_decoys_glide_SP

> <s_m_subgroupid>
wee1_decoys_glide_SP


$$$$
