ZINC14957882_2546
                    3D
 Schrodinger Suite 2024-2.
 60 61  0  0  1  0            999 V2000
    4.2854   54.5732   18.2077 C   0  0  0  0  0  0
    5.0361   54.6402   19.5353 C   0  0  0  0  0  0
    4.4529   53.9834   20.6177 C   0  0  0  0  0  0
    5.0366   53.9992   21.8744 C   0  0  0  0  0  0
    6.2331   54.6988   22.0871 C   0  0  0  0  0  0
    6.8692   55.3018   20.9861 C   0  0  0  0  0  0
    6.2721   55.3038   19.7067 C   0  0  0  0  0  0
    6.9765   56.0048   18.5764 C   0  0  0  0  0  0
    6.5790   56.1031   17.4169 O   0  0  0  0  0  0
    8.1156   55.8566   21.1736 O   0  0  0  0  0  0
    6.8812   54.7730   23.4756 C   0  0  0  0  0  0
    5.9428   54.9799   24.6486 C   0  0  0  0  0  0
    6.0080   54.4098   25.8656 C   0  0  0  0  0  0
    7.0500   53.3904   26.2882 C   0  0  0  0  0  0
    5.0045   54.7797   26.9373 C   0  0  1  0  0  0
    4.5196   55.6963   26.6253 H   0  0  0  0  0  0
    3.8960   53.7331   27.1907 C   0  0  0  0  0  0
    2.7117   54.1090   28.1803 C   0  0  1  0  0  0
    1.3760   53.5112   27.5831 C   0  0  1  0  0  0
    1.2783   53.8734   26.5587 H   0  0  0  0  0  0
    1.4636   51.9812   27.4997 C   0  0  0  0  0  0
    1.6477   51.3531   28.8814 C   0  0  0  0  0  0
    2.8242   51.9870   29.6168 C   0  0  0  0  0  0
    3.6879   51.2972   30.1318 O   0  0  0  0  0  0
    2.9232   53.5112   29.6105 C   0  0  1  0  0  0
    2.1341   53.8515   30.2801 H   0  0  0  0  0  0
    4.2771   53.8504   30.2665 C   0  0  0  0  0  0
    0.0742   53.8900   28.3013 C   0  0  0  0  0  0
    2.5257   55.6161   28.4498 C   0  0  0  0  0  0
    5.7499   55.0176   28.0974 O   0  0  0  0  0  0
    4.4169   53.2981   22.8760 O   0  0  0  0  0  0
    3.3516   54.0133   18.2818 H   0  0  0  0  0  0
    4.0397   55.5770   17.8562 H   0  0  0  0  0  0
    4.8998   54.0884   17.4489 H   0  0  0  0  0  0
    3.5213   53.4512   20.4847 H   0  0  0  0  0  0
    7.9287   56.4623   18.8406 H   0  0  0  0  0  0
    8.4950   55.6912   22.0423 H   0  0  0  0  0  0
    7.5253   53.9056   23.5952 H   0  0  0  0  0  0
    7.5044   55.6606   23.5315 H   0  0  0  0  0  0
    5.1554   55.6965   24.4813 H   0  0  0  0  0  0
    6.5932   52.6381   26.9280 H   0  0  0  0  0  0
    7.5043   52.8965   25.4386 H   0  0  0  0  0  0
    7.8207   53.8835   26.8821 H   0  0  0  0  0  0
    3.4831   53.5392   26.2000 H   0  0  0  0  0  0
    4.3527   52.7846   27.4729 H   0  0  0  0  0  0
    2.3015   51.6967   26.8844 H   0  0  0  0  0  0
    0.5723   51.5596   27.0306 H   0  0  0  0  0  0
    1.9049   50.3078   28.7538 H   0  0  0  0  0  0
    0.7509   51.4351   29.4954 H   0  0  0  0  0  0
    4.3044   53.4667   31.2861 H   0  0  0  0  0  0
    5.0797   53.3849   29.6814 H   0  0  0  0  0  0
    4.4957   54.8982   30.3306 H   0  0  0  0  0  0
    0.1045   53.7530   29.3817 H   0  0  0  0  0  0
   -0.0950   54.9300   28.0820 H   0  0  0  0  0  0
   -0.7812   53.3369   27.9105 H   0  0  0  0  0  0
    1.6404   55.8696   29.0335 H   0  0  0  0  0  0
    3.3661   56.0702   28.9657 H   0  0  0  0  0  0
    2.4698   56.0954   27.4984 H   0  0  0  0  0  0
    6.4095   55.6988   27.9445 H   0  0  0  0  0  0
    4.8839   53.3831   23.7119 H   0  0  0  0  0  0
  1  2  1  0  0  0
  1 32  1  0  0  0
  1 33  1  0  0  0
  1 34  1  0  0  0
  2  7  2  0  0  0
  2  3  1  0  0  0
  3  4  2  0  0  0
  3 35  1  0  0  0
  4  5  1  0  0  0
  4 31  1  0  0  0
  5  6  2  0  0  0
  5 11  1  0  0  0
  6  7  1  0  0  0
  6 10  1  0  0  0
  7  8  1  0  0  0
  8  9  2  0  0  0
  8 36  1  0  0  0
 10 37  1  0  0  0
 11 12  1  0  0  0
 11 38  1  0  0  0
 11 39  1  0  0  0
 12 13  2  0  0  0
 12 40  1  0  0  0
 13 14  1  0  0  0
 13 15  1  0  0  0
 14 41  1  0  0  0
 14 42  1  0  0  0
 14 43  1  0  0  0
 15 16  1  0  0  0
 15 17  1  0  0  0
 15 30  1  0  0  0
 17 18  1  0  0  0
 17 44  1  0  0  0
 17 45  1  0  0  0
 18 25  1  0  0  0
 18 19  1  0  0  0
 18 29  1  0  0  0
 19 20  1  0  0  0
 19 21  1  0  0  0
 19 28  1  0  0  0
 21 22  1  0  0  0
 21 46  1  0  0  0
 21 47  1  0  0  0
 22 23  1  0  0  0
 22 48  1  0  0  0
 22 49  1  0  0  0
 23 24  2  0  0  0
 23 25  1  0  0  0
 25 26  1  0  0  0
 25 27  1  0  0  0
 27 50  1  0  0  0
 27 51  1  0  0  0
 27 52  1  0  0  0
 28 53  1  0  0  0
 28 54  1  0  0  0
 28 55  1  0  0  0
 29 56  1  0  0  0
 29 57  1  0  0  0
 29 58  1  0  0  0
 30 59  1  0  0  0
 31 60  1  0  0  0
M  END
> <i_i_glide_confnum>
225

> <i_i_glide_lignum>
2547

> <i_i_glide_posenum>
34

> <i_i_glide_rotatable_bonds>
9

> <i_m_Source_File_Index>
5653

> <b_m_subgroup_collapsed>
0

> <r_i_docking_score>
-5.64212

> <r_i_glide_ecoul>
-6.42087

> <r_i_glide_eff_state_penalty>
0

> <r_i_glide_einternal>
9.32646

> <r_i_glide_emodel>
-14.9576

> <r_i_glide_energy>
-19.499

> <r_i_glide_erotb>
0.645485

> <r_i_glide_esite>
0

> <r_i_glide_evdw>
-13.0781

> <r_i_glide_gscore>
-5.64212

> <r_i_glide_hbond>
-0.653414

> <r_i_glide_ligand_efficiency>
-0.201504

> <r_i_glide_ligand_efficiency_ln>
-1.30237

> <r_i_glide_ligand_efficiency_sa>
-0.611885

> <r_i_glide_lipo>
-3.08126

> <r_i_glide_metal>
0

> <r_i_glide_rewards>
-0.935889

> <s_i_glide_gridfile>
wee1_glide-grid

> <s_m_Source_File>
wee1_decoys_glide_SP.sdf

> <s_m_Source_Path>
/Users/zhangxujun/Desktop

> <s_m_entry_id>
5928

> <s_m_entry_name>
wee1_decoys_glide_SP.5653

> <s_m_subgroup_title>
wee1_decoys_glide_SP

> <s_m_subgroupid>
wee1_decoys_glide_SP


$$$$
