@<TRIPOS>MOLECULE
ZINC54643818_6021
62   66    1
SMALL
USER_CHARGES


@<TRIPOS>ATOM
      1 C1         -5.5214   47.2922   18.8185 C.3       1 UNK         0.0000 
      2 C2         -4.2125   48.0112   19.0918 C.ar      1 UNK         0.0000 
      3 C3         -4.1696   49.4066   19.1007 C.ar      1 UNK         0.0000 
      4 C4         -2.9744   50.0715   19.3686 C.ar      1 UNK         0.0000 
      5 C5         -1.8003   49.3493   19.6428 C.ar      1 UNK         0.0000 
      6 C6         -1.8444   47.9402   19.6283 C.ar      1 UNK         0.0000 
      7 C7         -3.0506   47.2862   19.3590 C.ar      1 UNK         0.0000 
      8 C8         -0.6037   47.0972   19.9085 C.3       1 UNK         0.0000 
      9 N9         -0.5600   49.9656   19.9137 N.am      1 UNK         0.0000 
     10 C10        -0.2730   51.2361   20.2746 C.2       1 UNK         0.0000 
     11 O11        -1.1294   52.0968   20.4824 O.2       1 UNK         0.0000 
     12 C12         1.1482   51.5034   20.5015 C.2       1 UNK         0.0000 
     13 C13         2.1615   51.0247   19.7118 C.2       1 UNK         0.0000 
     14 N14         3.4999   51.2961   19.9624 N.pl3     1 UNK         0.0000 
     15 C15         3.8586   52.0836   21.0331 C.ar      1 UNK         0.0000 
     16 N16         5.0379   52.5095   21.4009 N.2       1 UNK         0.0000 
     17 C17         4.7594   53.2969   22.4331 C.ar      1 UNK         0.0000 
     18 N18         3.4764   53.4138   22.7283 N.2       1 UNK         0.0000 
     19 N19         2.8827   52.6233   21.8293 N.pl3     1 UNK         0.0000 
     20 C20         1.4342   52.3868   21.7469 C.3       1 UNK         0.0000 
     21 H21         0.9751   53.3562   21.5588 H         1 UNK         0.0000 
     22 C22         0.9028   51.8146   23.0630 C.2       1 UNK         0.0000 
     23 C23         0.9397   50.5092   23.5840 C.2       1 UNK         0.0000 
     24 C24         0.3039   50.4206   24.8316 C.2       1 UNK         0.0000 
     25 C25        -0.1633   51.6252   25.3107 C.2       1 UNK         0.0000 
     26 S26         0.1439   52.8970   24.1948 S.3       1 UNK         0.0000 
     27 C27         1.5163   49.3052   22.8849 C.3       1 UNK         0.0000 
     28 S28         6.0572   54.0963   23.3389 S.3       1 UNK         0.0000 
     29 C29         5.1395   55.0590   24.5868 C.3       1 UNK         0.0000 
     30 C30         5.0546   54.3875   25.9457 C.ar      1 UNK         0.0000 
     31 C31         3.8400   53.8442   26.3771 C.ar      1 UNK         0.0000 
     32 C32         3.7389   53.2975   27.6534 C.ar      1 UNK         0.0000 
     33 C33         4.8523   53.2967   28.4910 C.ar      1 UNK         0.0000 
     34 C34         6.0672   53.8345   28.0675 C.ar      1 UNK         0.0000 
     35 C35         6.1671   54.3820   26.7916 C.ar      1 UNK         0.0000 
     36 C36         2.0112   50.2000   18.4354 C.3       1 UNK         0.0000 
     37 H37        -5.6562   47.1364   17.7481 H         1 UNK         0.0000 
     38 H38        -6.3674   47.8686   19.1963 H         1 UNK         0.0000 
     39 H39        -5.5503   46.3250   19.3235 H         1 UNK         0.0000 
     40 H40        -5.0626   49.9796   18.8935 H         1 UNK         0.0000 
     41 H41        -2.9872   51.1504   19.3433 H         1 UNK         0.0000 
     42 H42        -3.0870   46.2061   19.3498 H         1 UNK         0.0000 
     43 H43        -0.1883   47.3629   20.8797 H         1 UNK         0.0000 
     44 H44        -0.8190   46.0286   19.9188 H         1 UNK         0.0000 
     45 H45         0.1631   47.2883   19.1571 H         1 UNK         0.0000 
     46 H46         0.2303   49.3421   19.8753 H         1 UNK         0.0000 
     47 H47         4.1917   51.0178   19.2618 H         1 UNK         0.0000 
     48 H48         0.2074   49.4939   25.3793 H         1 UNK         0.0000 
     49 H49        -0.6682   51.8151   26.2455 H         1 UNK         0.0000 
     50 H50         1.1099   48.3896   23.3072 H         1 UNK         0.0000 
     51 H51         1.2809   49.2571   21.8270 H         1 UNK         0.0000 
     52 H52         2.6037   49.2968   22.9536 H         1 UNK         0.0000 
     53 H53         5.6455   56.0176   24.7016 H         1 UNK         0.0000 
     54 H54         4.1378   55.2965   24.2335 H         1 UNK         0.0000 
     55 H55         2.9734   53.8508   25.7303 H         1 UNK         0.0000 
     56 H56         2.8033   52.8743   27.9894 H         1 UNK         0.0000 
     57 H57         4.7726   52.8687   29.4787 H         1 UNK         0.0000 
     58 H58         6.9233   53.8338   28.7280 H         1 UNK         0.0000 
     59 H59         7.1036   54.8090   26.4617 H         1 UNK         0.0000 
     60 H60         2.2380   49.1512   18.6283 H         1 UNK         0.0000 
     61 H61         1.0254   50.2759   17.9784 H         1 UNK         0.0000 
     62 H62         2.7045   50.5427   17.6700 H         1 UNK         0.0000 
@<TRIPOS>BOND
     1    1    2 1    
     2    1   37 1    
     3    1   38 1    
     4    1   39 1    
     5    2    7 ar   
     6    2    3 ar   
     7    3    4 ar   
     8    3   40 1    
     9    4    5 ar   
    10    4   41 1    
    11    5    6 ar   
    12    5    9 1    
    13    6    7 ar   
    14    6    8 1    
    15    7   42 1    
    16    8   43 1    
    17    8   44 1    
    18    8   45 1    
    19    9   10 am   BACKBONE|DICT|INTERRES
    20    9   46 1    
    21   10   11 2    
    22   10   12 1    
    23   12   20 1    
    24   12   13 2    
    25   13   14 1    
    26   13   36 1    
    27   14   15 1    
    28   14   47 1    
    29   15   19 ar   
    30   15   16 ar   
    31   16   17 ar   
    32   17   18 ar   
    33   17   28 1    
    34   18   19 ar   
    35   19   20 1    
    36   20   21 1    
    37   20   22 1    
    38   22   26 1    
    39   22   23 2    
    40   23   24 1    
    41   23   27 1    
    42   24   25 2    
    43   24   48 1    
    44   25   26 1    
    45   25   49 1    
    46   27   50 1    
    47   27   51 1    
    48   27   52 1    
    49   28   29 1    
    50   29   30 1    
    51   29   53 1    
    52   29   54 1    
    53   30   35 ar   
    54   30   31 ar   
    55   31   32 ar   
    56   31   55 1    
    57   32   33 ar   
    58   32   56 1    
    59   33   34 ar   
    60   33   57 1    
    61   34   35 ar   
    62   34   58 1    
    63   35   59 1    
    64   36   60 1    
    65   36   61 1    
    66   36   62 1    
@<TRIPOS>SUBSTRUCTURE
     1 UNK         1 GROUP             0       ****    0 ROOT    
