@<TRIPOS>MOLECULE
ZINC05020069_3863
59   62    1
SMALL
USER_CHARGES


@<TRIPOS>ATOM
      1 C1         -5.5323   48.5861   24.8778 C.3       1 UNK         0.0000 
      2 C2         -4.1395   48.5222   24.2044 C.3       1 UNK         0.0000 
      3 H3         -4.2513   47.7106   23.4846 H         1 UNK         0.0000 
      4 C4         -3.8073   49.8106   23.4078 C.3       1 UNK         0.0000 
      5 C5         -2.3270   50.1152   23.7053 C.3       1 UNK         0.0000 
      6 H6         -1.7374   49.4680   23.0649 H         1 UNK         0.0000 
      7 C7         -1.7597   51.5300   23.4300 C.3       1 UNK         0.0000 
      8 H8         -2.3046   52.1982   24.0984 H         1 UNK         0.0000 
      9 C9         -2.0959   52.0946   22.0412 C.3       1 UNK         0.0000 
     10 C10        -1.0714   51.7224   21.0008 C.2       1 UNK         0.0000 
     11 C11         0.2016   51.3600   21.2448 C.2       1 UNK         0.0000 
     12 C12         1.1372   50.9689   20.0942 C.3       1 UNK         0.0000 
     13 C13         1.6759   49.5347   20.2870 C.3       1 UNK         0.0000 
     14 H14         2.4398   49.3422   19.5317 H         1 UNK         0.0000 
     15 C15         2.3046   49.3517   21.6771 C.3       1 UNK         0.0000 
     16 C16         1.3705   49.8262   22.8087 C.3       1 UNK         0.0000 
     17 C17         0.8065   51.2772   22.6713 C.3       1 UNK         0.0000 
     18 C18        -0.2454   51.6568   23.8076 C.3       1 UNK         0.0000 
     19 H19        -0.1583   52.7329   23.9727 H         1 UNK         0.0000 
     20 C20         0.0423   51.0277   25.2137 C.3       1 UNK         0.0000 
     21 C21        -0.6085   49.6345   25.4566 C.3       1 UNK         0.0000 
     22 C22        -2.1370   49.6505   25.1729 C.3       1 UNK         0.0000 
     23 C23        -2.9076   48.2649   25.1631 C.3       1 UNK         0.0000 
     24 C24        -2.0722   47.0455   24.5995 C.2       1 UNK         0.0000 
     25 O25        -1.7303   46.0967   25.3042 O.2       1 UNK         0.0000 
     26 C26        -1.6965   46.9679   23.1151 C.3       1 UNK         0.0000 
     27 O27        -3.2961   47.8803   26.4816 O.3       1 UNK         0.0000 
     28 C28        -2.8147   50.6228   26.2090 C.3       1 UNK         0.0000 
     29 C29         1.9666   52.3084   22.7796 C.3       1 UNK         0.0000 
     30 O30         0.6604   48.5688   20.0748 O.3       1 UNK         0.0000 
     31 H31        -5.5943   49.3630   25.6362 H         1 UNK         0.0000 
     32 H32        -6.3165   48.7816   24.1455 H         1 UNK         0.0000 
     33 H33        -5.7740   47.6404   25.3634 H         1 UNK         0.0000 
     34 H34        -3.9979   49.7212   22.3387 H         1 UNK         0.0000 
     35 H35        -4.4010   50.6405   23.7920 H         1 UNK         0.0000 
     36 H36        -3.0680   51.7316   21.7135 H         1 UNK         0.0000 
     37 H37        -2.1579   53.1798   22.0860 H         1 UNK         0.0000 
     38 H38        -1.3856   51.7522   19.9674 H         1 UNK         0.0000 
     39 H39         0.6380   51.0473   19.1273 H         1 UNK         0.0000 
     40 H40         1.9679   51.6727   20.0433 H         1 UNK         0.0000 
     41 H41         2.6162   48.3200   21.8386 H         1 UNK         0.0000 
     42 H42         3.1970   49.9726   21.7320 H         1 UNK         0.0000 
     43 H43         1.8979   49.6981   23.7541 H         1 UNK         0.0000 
     44 H44         0.5380   49.1326   22.8261 H         1 UNK         0.0000 
     45 H45         1.1046   51.0202   25.4285 H         1 UNK         0.0000 
     46 H46        -0.3279   51.7144   25.9743 H         1 UNK         0.0000 
     47 H47        -0.4259   49.3120   26.4821 H         1 UNK         0.0000 
     48 H48        -0.1036   48.8846   24.8569 H         1 UNK         0.0000 
     49 H49        -2.4429   47.4074   22.4549 H         1 UNK         0.0000 
     50 H50        -1.5532   45.9291   22.8189 H         1 UNK         0.0000 
     51 H51        -0.7527   47.4805   22.9496 H         1 UNK         0.0000 
     52 H52        -2.5639   48.0419   27.1063 H         1 UNK         0.0000 
     53 H53        -2.4643   51.6503   26.1619 H         1 UNK         0.0000 
     54 H54        -3.8937   50.6765   26.0924 H         1 UNK         0.0000 
     55 H55        -2.6279   50.2943   27.2327 H         1 UNK         0.0000 
     56 H56         2.3949   52.3121   23.7825 H         1 UNK         0.0000 
     57 H57         2.7897   52.1189   22.0939 H         1 UNK         0.0000 
     58 H58         1.6165   53.3227   22.5780 H         1 UNK         0.0000 
     59 H59         0.3053   48.7017   19.1934 H         1 UNK         0.0000 
@<TRIPOS>BOND
     1    1    2 1    
     2    1   31 1    
     3    1   32 1    
     4    1   33 1    
     5    2    3 1    
     6    2   23 1    
     7    2    4 1    
     8    4    5 1    
     9    4   34 1    
    10    4   35 1    
    11    5    6 1    
    12    5   22 1    
    13    5    7 1    
    14    7    8 1    
    15    7   18 1    
    16    7    9 1    
    17    9   10 1    
    18    9   36 1    
    19    9   37 1    
    20   10   11 2    
    21   10   38 1    
    22   11   17 1    
    23   11   12 1    
    24   12   13 1    
    25   12   39 1    
    26   12   40 1    
    27   13   14 1    
    28   13   15 1    
    29   13   30 1    
    30   15   16 1    
    31   15   41 1    
    32   15   42 1    
    33   16   17 1    
    34   16   43 1    
    35   16   44 1    
    36   17   18 1    
    37   17   29 1    
    38   18   19 1    
    39   18   20 1    
    40   20   21 1    
    41   20   45 1    
    42   20   46 1    
    43   21   22 1    
    44   21   47 1    
    45   21   48 1    
    46   22   23 1    
    47   22   28 1    
    48   23   24 1    
    49   23   27 1    
    50   24   25 2    
    51   24   26 1    
    52   26   49 1    
    53   26   50 1    
    54   26   51 1    
    55   27   52 1    
    56   28   53 1    
    57   28   54 1    
    58   28   55 1    
    59   29   56 1    
    60   29   57 1    
    61   29   58 1    
    62   30   59 1    
@<TRIPOS>SUBSTRUCTURE
     1 UNK         1 GROUP             0       ****    0 ROOT    
