@<TRIPOS>MOLECULE
ZINC42272457_1592
36   37    1
SMALL
USER_CHARGES


@<TRIPOS>ATOM
      1 C1         -1.8308   50.9043   26.0012 C.ar      1 UNK         0.0000 
      2 C2         -3.2095   50.7509   26.1490 C.ar      1 UNK         0.0000 
      3 C3         -4.0730   51.6321   25.4896 C.ar      1 UNK         0.0000 
      4 C4         -3.5503   52.6358   24.6750 C.ar      1 UNK         0.0000 
      5 C5         -2.1704   52.7873   24.5306 C.ar      1 UNK         0.0000 
      6 C6         -1.2936   51.9474   25.2349 C.ar      1 UNK         0.0000 
      7 S7          0.5022   52.0944   25.1091 S.o2      1 UNK         0.0000 
      8 O8          0.8125   53.3015   24.3347 O.2       1 UNK         0.0000 
      9 O9          0.9453   50.7793   24.6350 O.2       1 UNK         0.0000 
     10 N10         1.1374   52.3302   26.7690 N.pl3     1 UNK         0.0000 
     11 C11         0.9857   51.2661   27.7941 C.3       1 UNK         0.0000 
     12 C12         0.0184   51.6968   28.9199 C.3       1 UNK         0.0000 
     13 C13         0.4682   53.0247   29.5656 C.3       1 UNK         0.0000 
     14 C14         0.6621   54.1100   28.4830 C.3       1 UNK         0.0000 
     15 C15         1.5500   53.6735   27.2818 C.3       1 UNK         0.0000 
     16 H16         1.5044   54.3852   26.4614 H         1 UNK         0.0000 
     17 C17         3.0608   53.6221   27.6240 C.2       1 UNK         0.0000 
     18 O18         3.4757   53.1959   28.7005 O.2       1 UNK         0.0000 
     19 N19         3.9209   54.0231   26.6856 N.am      1 UNK         0.0000 
     20 F20        -1.7165   53.7368   23.6823 F         1 UNK         0.0000 
     21 F21        -5.4159   51.5142   25.6159 F         1 UNK         0.0000 
     22 N22        -3.6957   49.7167   26.9546 N.pl3     1 UNK         0.0000 
     23 H23        -1.1864   50.1872   26.4825 H         1 UNK         0.0000 
     24 H24        -4.2205   53.2921   24.1408 H         1 UNK         0.0000 
     25 H25         1.9719   51.0263   28.1897 H         1 UNK         0.0000 
     26 H26         0.6535   50.3509   27.3092 H         1 UNK         0.0000 
     27 H27        -0.0608   50.9180   29.6790 H         1 UNK         0.0000 
     28 H28        -0.9898   51.8037   28.5202 H         1 UNK         0.0000 
     29 H29         1.3912   52.8717   30.1265 H         1 UNK         0.0000 
     30 H30        -0.2744   53.3495   30.2966 H         1 UNK         0.0000 
     31 H31         0.9775   55.0715   28.8934 H         1 UNK         0.0000 
     32 H32        -0.3375   54.2814   28.0819 H         1 UNK         0.0000 
     33 H33         3.6008   54.3007   25.7695 H         1 UNK         0.0000 
     34 H34         4.9085   53.9689   26.8810 H         1 UNK         0.0000 
     35 H35        -4.6875   49.6504   27.1368 H         1 UNK         0.0000 
     36 H36        -3.0338   49.1611   27.5004 H         1 UNK         0.0000 
@<TRIPOS>BOND
     1    1    6 ar   
     2    1    2 ar   
     3    1   23 1    
     4    2    3 ar   
     5    2   22 1    
     6    3    4 ar   
     7    3   21 1    
     8    4    5 ar   
     9    4   24 1    
    10    5    6 ar   
    11    5   20 1    
    12    6    7 1    
    13    7    8 2    
    14    7    9 2    
    15    7   10 1    
    16   10   15 1    
    17   10   11 1    
    18   11   12 1    
    19   11   25 1    
    20   11   26 1    
    21   12   13 1    
    22   12   27 1    
    23   12   28 1    
    24   13   14 1    
    25   13   29 1    
    26   13   30 1    
    27   14   15 1    
    28   14   31 1    
    29   14   32 1    
    30   15   16 1    
    31   15   17 1    
    32   17   18 2    
    33   17   19 am   BACKBONE|DICT|INTERRES
    34   19   33 1    
    35   19   34 1    
    36   22   35 1    
    37   22   36 1    
@<TRIPOS>SUBSTRUCTURE
     1 UNK         1 GROUP             0       ****    0 ROOT    
