ZINC35702187_5904
                    3D
 Schrodinger Suite 2024-2.
 59 62  0  0  1  0            999 V2000
   -2.3674   50.1344   19.2983 C   0  0  0  0  0  0
   -1.7879   50.4166   20.6823 C   0  0  0  0  0  0
   -0.5011   50.2094   21.0904 C   0  0  0  0  0  0
   -0.0687   50.5286   22.5611 C   0  0  2  0  0  0
    0.3749   49.6291   22.9929 H   0  0  0  0  0  0
   -1.2873   50.8008   23.3907 N   0  0  0  0  0  0
   -1.3215   50.9428   24.7752 C   0  0  0  0  0  0
   -2.5618   51.2394   25.2114 C   0  0  0  0  0  0
   -3.7540   51.4150   23.9397 S   0  0  0  0  0  0
   -2.5155   50.9934   22.7505 C   0  0  0  0  0  0
   -2.7658   50.8956   21.5030 N   0  0  0  0  0  0
   -0.1703   50.8774   25.6740 C   0  0  0  0  0  0
   -0.0110   51.6087   26.7991 C   0  0  0  0  0  0
   -0.7927   52.4971   27.3070 O   0  5  0  0  0  0
    1.1267   51.4702   27.5696 N   0  0  0  0  0  0
    1.4867   52.0862   28.8490 C   0  0  0  0  0  0
    1.9496   53.5530   28.7369 C   0  0  0  0  0  0
    3.2889   53.7371   28.0384 C   0  0  0  0  0  0
    3.3576   54.0248   26.6715 C   0  0  0  0  0  0
    4.6144   54.2054   26.0893 C   0  0  0  0  0  0
    5.7604   54.0977   26.8801 C   0  0  0  0  0  0
    5.6081   53.8061   28.2367 C   0  0  0  0  0  0
    4.3953   53.6242   28.8220 N   0  0  0  0  0  0
    1.0259   51.6175   22.6411 C   0  0  0  0  0  0
    2.3051   51.3240   22.1493 C   0  0  0  0  0  0
    3.2828   52.3082   22.0816 C   0  0  0  0  0  0
    3.0257   53.5676   22.6060 C   0  0  0  0  0  0
    1.7821   53.8644   23.1571 C   0  0  0  0  0  0
    0.7786   52.8971   23.1590 C   0  0  0  0  0  0
    4.0041   54.4975   22.5920 F   0  0  0  0  0  0
    0.4967   49.6184   20.2210 C   0  0  0  0  0  0
    0.8402   48.4507   20.4072 O   0  0  0  0  0  0
    1.0621   50.4120   19.2693 N   0  0  0  0  0  0
    2.1683   49.9288   18.4382 C   0  0  0  0  0  0
    0.7691   51.8349   19.0525 C   0  0  0  0  0  0
   -3.0537   49.2855   19.3492 H   0  0  0  0  0  0
   -2.9224   50.9988   18.9222 H   0  0  0  0  0  0
   -1.6068   49.8946   18.5539 H   0  0  0  0  0  0
   -2.8486   51.4076   26.2391 H   0  0  0  0  0  0
    0.6110   50.1781   25.4147 H   0  0  0  0  0  0
    1.9209   51.0613   27.1053 H   0  0  0  0  0  0
    0.5936   52.0592   29.4768 H   0  0  0  0  0  0
    2.2233   51.4753   29.3728 H   0  0  0  0  0  0
    1.1921   54.1415   28.2174 H   0  0  0  0  0  0
    2.0099   53.9942   29.7321 H   0  0  0  0  0  0
    2.4586   54.0978   26.0753 H   0  0  0  0  0  0
    4.7009   54.4228   25.0351 H   0  0  0  0  0  0
    6.7416   54.2278   26.4497 H   0  0  0  0  0  0
    6.4705   53.7182   28.8815 H   0  0  0  0  0  0
    2.5434   50.3375   21.7817 H   0  0  0  0  0  0
    4.2537   52.0816   21.6687 H   0  0  0  0  0  0
    1.5924   54.8481   23.5622 H   0  0  0  0  0  0
   -0.1893   53.1606   23.5584 H   0  0  0  0  0  0
    2.3515   48.8570   18.5380 H   0  0  0  0  0  0
    1.9726   50.1241   17.3831 H   0  0  0  0  0  0
    3.0935   50.4449   18.7039 H   0  0  0  0  0  0
    1.6593   52.4320   19.2566 H   0  0  0  0  0  0
    0.4848   52.0030   18.0130 H   0  0  0  0  0  0
   -0.0328   52.2254   19.6813 H   0  0  0  0  0  0
  1  2  1  0  0  0
  1 36  1  0  0  0
  1 37  1  0  0  0
  1 38  1  0  0  0
  2 11  1  0  0  0
  2  3  2  0  0  0
  3  4  1  0  0  0
  3 31  1  0  0  0
  4  5  1  0  0  0
  4  6  1  0  0  0
  4 24  1  0  0  0
  6 10  1  0  0  0
  6  7  1  0  0  0
  7  8  2  0  0  0
  7 12  1  0  0  0
  8  9  1  0  0  0
  8 39  1  0  0  0
  9 10  1  0  0  0
 10 11  2  0  0  0
 12 13  2  0  0  0
 12 40  1  0  0  0
 13 14  1  0  0  0
 13 15  1  0  0  0
 15 16  1  0  0  0
 15 41  1  0  0  0
 16 17  1  0  0  0
 16 42  1  0  0  0
 16 43  1  0  0  0
 17 18  1  0  0  0
 17 44  1  0  0  0
 17 45  1  0  0  0
 18 23  2  0  0  0
 18 19  1  0  0  0
 19 20  2  0  0  0
 19 46  1  0  0  0
 20 21  1  0  0  0
 20 47  1  0  0  0
 21 22  2  0  0  0
 21 48  1  0  0  0
 22 23  1  0  0  0
 22 49  1  0  0  0
 24 29  2  0  0  0
 24 25  1  0  0  0
 25 26  2  0  0  0
 25 50  1  0  0  0
 26 27  1  0  0  0
 26 51  1  0  0  0
 27 28  2  0  0  0
 27 30  1  0  0  0
 28 29  1  0  0  0
 28 52  1  0  0  0
 29 53  1  0  0  0
 31 32  2  0  0  0
 31 33  1  0  0  0
 33 34  1  0  0  0
 33 35  1  0  0  0
 34 54  1  0  0  0
 34 55  1  0  0  0
 34 56  1  0  0  0
 35 57  1  0  0  0
 35 58  1  0  0  0
 35 59  1  0  0  0
M  CHG  1  14  -1
M  END
> <i_i_glide_confnum>
28

> <i_i_glide_lignum>
5905

> <i_i_glide_posenum>
226

> <i_i_glide_rotatable_bonds>
8

> <i_m_Source_File_Index>
251

> <b_m_subgroup_collapsed>
0

> <r_i_docking_score>
-4.40404

> <r_i_glide_ecoul>
-1.27906

> <r_i_glide_eff_state_penalty>
0

> <r_i_glide_einternal>
7.39166

> <r_i_glide_emodel>
-48.333

> <r_i_glide_energy>
-40.5937

> <r_i_glide_erotb>
0.530919

> <r_i_glide_esite>
-0.0248203

> <r_i_glide_evdw>
-39.3147

> <r_i_glide_gscore>
-4.40404

> <r_i_glide_hbond>
0

> <r_i_glide_ligand_efficiency>
-0.129531

> <r_i_glide_ligand_efficiency_ln>
-0.972975

> <r_i_glide_ligand_efficiency_sa>
-0.419629

> <r_i_glide_lipo>
-2.45117

> <r_i_glide_metal>
0

> <r_i_glide_rewards>
-0.30137

> <s_i_glide_gridfile>
wee1_glide-grid

> <s_m_Source_File>
wee1_decoys_glide_SP.sdf

> <s_m_Source_Path>
/Users/zhangxujun/Desktop

> <s_m_entry_id>
526

> <s_m_entry_name>
wee1_decoys_glide_SP.251

> <s_m_subgroup_title>
wee1_decoys_glide_SP

> <s_m_subgroupid>
wee1_decoys_glide_SP


$$$$
