@<TRIPOS>MOLECULE
ZINC59382349_5169
64   69    1
SMALL
USER_CHARGES


@<TRIPOS>ATOM
      1 C1          5.3510   54.0997   26.7987 C.3       1 UNK         0.0000 
      2 C2          5.3569   54.2046   25.2844 C.ar      1 UNK         0.0000 
      3 C3          6.5559   54.4160   24.6056 C.ar      1 UNK         0.0000 
      4 C4          6.5618   54.5139   23.2185 C.ar      1 UNK         0.0000 
      5 C5          5.3655   54.4249   22.4852 C.ar      1 UNK         0.0000 
      6 C6          4.1668   54.1920   23.1817 C.ar      1 UNK         0.0000 
      7 C7          4.1620   54.0970   24.5706 C.ar      1 UNK         0.0000 
      8 N8          5.3613   54.6162   21.0711 N.am      1 UNK         0.0000 
      9 C9          6.1141   55.5874   20.4303 C.2       1 UNK         0.0000 
     10 O10         6.9782   56.3451   20.8794 O.2       1 UNK         0.0000 
     11 C11         5.5343   55.6521   19.0417 C.3       1 UNK         0.0000 
     12 H12         4.7047   56.3242   19.2817 H         1 UNK         0.0000 
     13 C13         5.0916   54.2495   18.8129 C.3       1 UNK         0.0000 
     14 H14         5.9236   53.5314   18.8030 H         1 UNK         0.0000 
     15 C15         4.5697   53.8920   20.1926 C.2       1 UNK         0.0000 
     16 O16         3.7014   53.0525   20.4328 O.2       1 UNK         0.0000 
     17 C17         4.4917   54.1221   17.3377 C.3       1 UNK         0.0000 
     18 C18         5.8368   54.0958   16.5311 C.ar      1 UNK         0.0000 
     19 C19         6.3008   53.0798   15.6823 C.ar      1 UNK         0.0000 
     20 C20         7.5651   53.1656   15.1001 C.ar      1 UNK         0.0000 
     21 C21         8.3850   54.2642   15.3573 C.ar      1 UNK         0.0000 
     22 C22         7.9435   55.2861   16.1973 C.ar      1 UNK         0.0000 
     23 C23         6.6795   55.2130   16.7856 C.ar      1 UNK         0.0000 
     24 C24         6.0674   56.2940   17.7054 C.3       1 UNK         0.0000 
     25 C25         4.7263   56.6068   17.0017 C.ar      1 UNK         0.0000 
     26 C26         3.8486   55.4899   16.8858 C.ar      1 UNK         0.0000 
     27 C27         2.5487   55.7207   16.4115 C.ar      1 UNK         0.0000 
     28 C28         2.1407   57.0019   16.0373 C.ar      1 UNK         0.0000 
     29 C29         3.0229   58.0775   16.1262 C.ar      1 UNK         0.0000 
     30 C30         4.3128   57.8807   16.6100 C.ar      1 UNK         0.0000 
     31 C31         3.6560   52.8312   17.1814 C.2       1 UNK         0.0000 
     32 N32         2.8134   52.6127   16.2496 N.2       1 UNK         0.0000 
     33 N33         2.3690   51.3378   16.2447 N.am      1 UNK         0.0000 
     34 C34         1.4724   50.8739   15.3545 C.2       1 UNK         0.0000 
     35 O35         0.9210   51.5677   14.4917 O.2       1 UNK         0.0000 
     36 C36         1.1374   49.3760   15.4501 C.3       1 UNK         0.0000 
     37 C37         1.2822   48.6085   14.1114 C.3       1 UNK         0.0000 
     38 C38         2.7226   48.4532   13.5802 C.3       1 UNK         0.0000 
     39 O39         3.5043   47.6967   14.4817 O.3       1 UNK         0.0000 
     40 H40         6.1261   54.7286   27.2403 H         1 UNK         0.0000 
     41 H41         4.4018   54.4392   27.2139 H         1 UNK         0.0000 
     42 H42         5.5205   53.0685   27.1089 H         1 UNK         0.0000 
     43 H43         7.4851   54.4970   25.1482 H         1 UNK         0.0000 
     44 H44         7.5049   54.6778   22.7213 H         1 UNK         0.0000 
     45 H45         3.2221   54.1366   22.6609 H         1 UNK         0.0000 
     46 H46         3.2279   53.9399   25.0910 H         1 UNK         0.0000 
     47 H47         5.6941   52.2084   15.4830 H         1 UNK         0.0000 
     48 H48         7.9129   52.3732   14.4528 H         1 UNK         0.0000 
     49 H49         9.3633   54.3241   14.9051 H         1 UNK         0.0000 
     50 H50         8.5796   56.1403   16.3852 H         1 UNK         0.0000 
     51 H51         6.6969   57.1732   17.8553 H         1 UNK         0.0000 
     52 H52         1.8329   54.9187   16.3345 H         1 UNK         0.0000 
     53 H53         1.1346   57.1624   15.6771 H         1 UNK         0.0000 
     54 H54         2.7026   59.0709   15.8470 H         1 UNK         0.0000 
     55 H55         4.9750   58.7295   16.7151 H         1 UNK         0.0000 
     56 H56         3.9156   52.0954   17.9384 H         1 UNK         0.0000 
     57 H57         2.8381   50.7027   16.8858 H         1 UNK         0.0000 
     58 H58         0.1003   49.3145   15.7841 H         1 UNK         0.0000 
     59 H59         1.7283   48.8877   16.2289 H         1 UNK         0.0000 
     60 H60         0.6758   49.0968   13.3471 H         1 UNK         0.0000 
     61 H61         0.8443   47.6148   14.2236 H         1 UNK         0.0000 
     62 H62         3.2028   49.4269   13.4763 H         1 UNK         0.0000 
     63 H63         2.7247   47.9758   12.5999 H         1 UNK         0.0000 
     64 H64         3.7732   48.2742   15.2201 H         1 UNK         0.0000 
@<TRIPOS>BOND
     1    1    2 1    
     2    1   40 1    
     3    1   41 1    
     4    1   42 1    
     5    2    7 ar   
     6    2    3 ar   
     7    3    4 ar   
     8    3   43 1    
     9    4    5 ar   
    10    4   44 1    
    11    5    6 ar   
    12    5    8 1    
    13    6    7 ar   
    14    6   45 1    
    15    7   46 1    
    16    8   15 am   BACKBONE|DICT|INTERRES
    17    8    9 am   BACKBONE|DICT|INTERRES
    18    9   10 2    
    19    9   11 1    
    20   11   12 1    
    21   11   24 1    
    22   11   13 1    
    23   13   14 1    
    24   13   15 1    
    25   13   17 1    
    26   15   16 2    
    27   17   26 1    
    28   17   18 1    
    29   17   31 1    
    30   18   23 ar   
    31   18   19 ar   
    32   19   20 ar   
    33   19   47 1    
    34   20   21 ar   
    35   20   48 1    
    36   21   22 ar   
    37   21   49 1    
    38   22   23 ar   
    39   22   50 1    
    40   23   24 1    
    41   24   25 1    
    42   24   51 1    
    43   25   30 ar   
    44   25   26 ar   
    45   26   27 ar   
    46   27   28 ar   
    47   27   52 1    
    48   28   29 ar   
    49   28   53 1    
    50   29   30 ar   
    51   29   54 1    
    52   30   55 1    
    53   31   32 2    
    54   31   56 1    
    55   32   33 1    
    56   33   34 am   BACKBONE|DICT|INTERRES
    57   33   57 1    
    58   34   35 2    
    59   34   36 1    
    60   36   37 1    
    61   36   58 1    
    62   36   59 1    
    63   37   38 1    
    64   37   60 1    
    65   37   61 1    
    66   38   39 1    
    67   38   62 1    
    68   38   63 1    
    69   39   64 1    
@<TRIPOS>SUBSTRUCTURE
     1 UNK         1 GROUP             0       ****    0 ROOT    
