@<TRIPOS>MOLECULE
ZINC58714719_1910
52   55    1
SMALL
USER_CHARGES


@<TRIPOS>ATOM
      1 C1          5.5086   53.8130   22.4098 C.3       1 UNK         0.0000 
      2 C2          4.7358   52.7749   21.5745 C.3       1 UNK         0.0000 
      3 C3          3.2270   53.0768   21.5501 C.3       1 UNK         0.0000 
      4 C4          2.6490   53.1681   22.9758 C.3       1 UNK         0.0000 
      5 C5          3.4085   54.1772   23.8647 C.3       1 UNK         0.0000 
      6 C6          4.9477   53.9741   23.8341 C.3       1 UNK         0.0000 
      7 N7          5.7285   54.8970   24.6534 N.am      1 UNK         0.0000 
      8 C8          5.9495   54.8759   25.9772 C.2       1 UNK         0.0000 
      9 O9          6.7046   55.6955   26.4809 O.2       1 UNK         0.0000 
     10 N10         5.2926   53.9467   26.6877 N.am      1 UNK         0.0000 
     11 C11         5.0602   53.9655   28.1379 C.3       1 UNK         0.0000 
     12 C12         3.5635   53.8018   28.5258 C.3       1 UNK         0.0000 
     13 C13         3.4106   53.6244   30.0672 C.3       1 UNK         0.0000 
     14 C14         1.9100   53.4492   30.4556 C.3       1 UNK         0.0000 
     15 C15         1.1105   54.7037   30.0040 C.3       1 UNK         0.0000 
     16 C16         1.2423   54.8694   28.4663 C.3       1 UNK         0.0000 
     17 C17         2.7343   55.0493   28.1057 C.3       1 UNK         0.0000 
     18 C18         0.6848   53.6076   27.7594 C.3       1 UNK         0.0000 
     19 C19         1.4559   52.3585   28.2242 C.3       1 UNK         0.0000 
     20 C20         1.3278   52.1964   29.7545 C.3       1 UNK         0.0000 
     21 C21         2.9418   52.5469   27.8521 C.3       1 UNK         0.0000 
     22 O22         2.5307   52.1181   20.7822 O.3       1 UNK         0.0000 
     23 H23         6.5595   53.5325   22.4818 H         1 UNK         0.0000 
     24 H24         5.4736   54.7762   21.8969 H         1 UNK         0.0000 
     25 H25         5.1337   52.7329   20.5601 H         1 UNK         0.0000 
     26 H26         4.9061   51.7887   22.0076 H         1 UNK         0.0000 
     27 H27         3.1060   54.0594   21.0918 H         1 UNK         0.0000 
     28 H28         1.5894   53.4229   22.9365 H         1 UNK         0.0000 
     29 H29         2.7042   52.1890   23.4498 H         1 UNK         0.0000 
     30 H30         3.1743   55.1828   23.5172 H         1 UNK         0.0000 
     31 H31         3.0345   54.1097   24.8854 H         1 UNK         0.0000 
     32 H32         5.1132   52.9922   24.2683 H         1 UNK         0.0000 
     33 H33         6.1684   55.6520   24.1483 H         1 UNK         0.0000 
     34 H34         4.9516   53.1334   26.1982 H         1 UNK         0.0000 
     35 H35         5.6425   53.1446   28.5559 H         1 UNK         0.0000 
     36 H36         5.4603   54.8738   28.5985 H         1 UNK         0.0000 
     37 H37         3.9884   52.7632   30.4118 H         1 UNK         0.0000 
     38 H38         3.8526   54.4962   30.5478 H         1 UNK         0.0000 
     39 H39         1.8029   53.2966   31.5290 H         1 UNK         0.0000 
     40 H40         0.0642   54.6017   30.2860 H         1 UNK         0.0000 
     41 H41         1.4781   55.5939   30.5161 H         1 UNK         0.0000 
     42 H42         0.7043   55.7510   28.1223 H         1 UNK         0.0000 
     43 H43         3.1054   55.9416   28.6054 H         1 UNK         0.0000 
     44 H44         2.8492   55.2281   27.0359 H         1 UNK         0.0000 
     45 H45        -0.3814   53.4960   27.9596 H         1 UNK         0.0000 
     46 H46         0.7973   53.6953   26.6799 H         1 UNK         0.0000 
     47 H47         1.0560   51.4724   27.7293 H         1 UNK         0.0000 
     48 H48         1.8508   51.2985   30.0787 H         1 UNK         0.0000 
     49 H49         0.2815   52.0554   30.0339 H         1 UNK         0.0000 
     50 H50         3.0450   52.5810   26.7676 H         1 UNK         0.0000 
     51 H51         3.5044   51.6923   28.1961 H         1 UNK         0.0000 
     52 H52         2.9469   52.0518   19.9177 H         1 UNK         0.0000 
@<TRIPOS>BOND
     1    1    6 1    
     2    1    2 1    
     3    1   23 1    
     4    1   24 1    
     5    2    3 1    
     6    2   25 1    
     7    2   26 1    
     8    3    4 1    
     9    3   22 1    
    10    3   27 1    
    11    4    5 1    
    12    4   28 1    
    13    4   29 1    
    14    5    6 1    
    15    5   30 1    
    16    5   31 1    
    17    6    7 1    
    18    6   32 1    
    19    7    8 am   BACKBONE|DICT|INTERRES
    20    7   33 1    
    21    8    9 2    
    22    8   10 am   BACKBONE|DICT|INTERRES
    23   10   11 1    
    24   10   34 1    
    25   11   12 1    
    26   11   35 1    
    27   11   36 1    
    28   12   17 1    
    29   12   21 1    
    30   12   13 1    
    31   13   14 1    
    32   13   37 1    
    33   13   38 1    
    34   14   20 1    
    35   14   15 1    
    36   14   39 1    
    37   15   16 1    
    38   15   40 1    
    39   15   41 1    
    40   16   17 1    
    41   16   18 1    
    42   16   42 1    
    43   17   43 1    
    44   17   44 1    
    45   18   19 1    
    46   18   45 1    
    47   18   46 1    
    48   19   20 1    
    49   19   21 1    
    50   19   47 1    
    51   20   48 1    
    52   20   49 1    
    53   21   50 1    
    54   21   51 1    
    55   22   52 1    
@<TRIPOS>SUBSTRUCTURE
     1 UNK         1 GROUP             0       ****    0 ROOT    
