@<TRIPOS>MOLECULE
ZINC36019607_5400
77   81    1
SMALL
USER_CHARGES


@<TRIPOS>ATOM
      1 C1          4.1934   58.3288   13.0215 C.ar      1 UNK         0.0000 
      2 C2          4.1776   57.2242   12.1761 C.ar      1 UNK         0.0000 
      3 C3          4.2757   55.9417   12.7097 C.ar      1 UNK         0.0000 
      4 C4          4.3927   55.7556   14.0870 C.ar      1 UNK         0.0000 
      5 C5          4.4155   56.8658   14.9585 C.ar      1 UNK         0.0000 
      6 C6          4.3105   58.1517   14.3984 C.ar      1 UNK         0.0000 
      7 C7          4.5456   56.7332   16.4626 C.2       1 UNK         0.0000 
      8 O8          4.2881   57.6962   17.1897 O.2       1 UNK         0.0000 
      9 N9          4.9521   55.5381   16.9479 N.am      1 UNK         0.0000 
     10 C10         5.1419   55.2324   18.3022 C.ar      1 UNK         0.0000 
     11 C11         5.8096   56.0971   19.1683 C.ar      1 UNK         0.0000 
     12 C12         5.9173   55.7812   20.5155 C.ar      1 UNK         0.0000 
     13 C13         5.3604   54.6124   21.0517 C.ar      1 UNK         0.0000 
     14 C14         4.7188   53.7030   20.1548 C.ar      1 UNK         0.0000 
     15 C15         4.6643   54.0186   18.7850 C.ar      1 UNK         0.0000 
     16 C16         4.3065   52.3056   20.5817 C.2       1 UNK         0.0000 
     17 O17         5.1040   51.6840   21.2828 O.2       1 UNK         0.0000 
     18 N18         3.0981   51.7784   20.2217 N.am      1 UNK         0.0000 
     19 C19         2.0513   52.4966   19.4706 C.3       1 UNK         0.0000 
     20 C20         1.7218   51.6678   18.2118 C.3       1 UNK         0.0000 
     21 C21         1.2677   50.2458   18.5736 C.3       1 UNK         0.0000 
     22 C22         2.3045   49.5715   19.4853 C.3       1 UNK         0.0000 
     23 C23         2.6934   50.4383   20.7069 C.3       1 UNK         0.0000 
     24 N24         5.4523   54.4408   22.4426 N.pl3     1 UNK         0.0000 
     25 C25         6.5309   55.0044   23.2736 C.3       1 UNK         0.0000 
     26 C26         6.6990   54.3331   24.6508 C.3       1 UNK         0.0000 
     27 N27         5.4357   54.4226   25.4116 N.am      1 UNK         0.0000 
     28 C28         4.1413   54.3339   24.6976 C.3       1 UNK         0.0000 
     29 C29         4.3115   53.9403   23.2207 C.3       1 UNK         0.0000 
     30 C30         5.4991   54.4324   26.7764 C.2       1 UNK         0.0000 
     31 O31         6.5663   54.4121   27.3957 O.2       1 UNK         0.0000 
     32 N32         4.3106   54.4985   27.4180 N.am      1 UNK         0.0000 
     33 C33         4.0873   54.4783   28.8692 C.3       1 UNK         0.0000 
     34 C34         2.7453   55.1679   29.2408 C.3       1 UNK         0.0000 
     35 C35         1.5109   54.4107   28.7008 C.3       1 UNK         0.0000 
     36 C36         1.4980   52.9395   29.1644 C.3       1 UNK         0.0000 
     37 C37         2.8335   52.2294   28.8732 C.3       1 UNK         0.0000 
     38 C38         4.0345   53.0297   29.4233 C.3       1 UNK         0.0000 
     39 F39         4.4742   54.4836   14.5451 F         1 UNK         0.0000 
     40 H40         4.1148   59.3249   12.6108 H         1 UNK         0.0000 
     41 H41         4.0886   57.3644   11.1085 H         1 UNK         0.0000 
     42 H42         4.2602   55.0838   12.0541 H         1 UNK         0.0000 
     43 H43         4.3224   59.0329   15.0299 H         1 UNK         0.0000 
     44 H44         5.0197   54.7736   16.2902 H         1 UNK         0.0000 
     45 H45         6.2215   57.0282   18.8066 H         1 UNK         0.0000 
     46 H46         6.4086   56.4963   21.1555 H         1 UNK         0.0000 
     47 H47         4.2380   53.3157   18.0824 H         1 UNK         0.0000 
     48 H48         1.1697   52.5528   20.1114 H         1 UNK         0.0000 
     49 H49         2.3046   53.5244   19.2221 H         1 UNK         0.0000 
     50 H50         0.9387   52.1646   17.6386 H         1 UNK         0.0000 
     51 H51         2.5934   51.6255   17.5547 H         1 UNK         0.0000 
     52 H52         1.1245   49.6546   17.6680 H         1 UNK         0.0000 
     53 H53         0.3005   50.2853   19.0769 H         1 UNK         0.0000 
     54 H54         3.1984   49.3405   18.9039 H         1 UNK         0.0000 
     55 H55         1.9294   48.6068   19.8283 H         1 UNK         0.0000 
     56 H56         3.4678   49.9407   21.2910 H         1 UNK         0.0000 
     57 H57         1.8251   50.5686   21.3539 H         1 UNK         0.0000 
     58 H58         7.4791   54.9606   22.7346 H         1 UNK         0.0000 
     59 H59         6.3044   56.0537   23.4623 H         1 UNK         0.0000 
     60 H60         6.9838   53.2966   24.4871 H         1 UNK         0.0000 
     61 H61         7.5041   54.8725   25.1515 H         1 UNK         0.0000 
     62 H62         3.6541   55.2971   24.7356 H         1 UNK         0.0000 
     63 H63         3.4809   53.5971   25.1574 H         1 UNK         0.0000 
     64 H64         3.3716   54.0486   22.6763 H         1 UNK         0.0000 
     65 H65         4.5470   52.8966   23.2797 H         1 UNK         0.0000 
     66 H66         3.4825   54.3884   26.8544 H         1 UNK         0.0000 
     67 H67         4.9032   55.0276   29.3451 H         1 UNK         0.0000 
     68 H68         2.6643   55.2566   30.3237 H         1 UNK         0.0000 
     69 H69         2.7281   56.1947   28.8749 H         1 UNK         0.0000 
     70 H70         0.5953   54.8987   29.0325 H         1 UNK         0.0000 
     71 H71         1.4983   54.4546   27.6104 H         1 UNK         0.0000 
     72 H72         1.2973   52.8987   30.2365 H         1 UNK         0.0000 
     73 H73         0.6795   52.4005   28.6853 H         1 UNK         0.0000 
     74 H74         2.8224   51.2236   29.2911 H         1 UNK         0.0000 
     75 H75         2.9453   52.0994   27.7956 H         1 UNK         0.0000 
     76 H76         4.9629   52.5074   29.1824 H         1 UNK         0.0000 
     77 H77         3.9855   53.0548   30.5132 H         1 UNK         0.0000 
@<TRIPOS>BOND
     1    1    6 ar   
     2    1    2 ar   
     3    1   40 1    
     4    2    3 ar   
     5    2   41 1    
     6    3    4 ar   
     7    3   42 1    
     8    4    5 ar   
     9    4   39 1    
    10    5    6 ar   
    11    5    7 1    
    12    6   43 1    
    13    7    8 2    
    14    7    9 am   BACKBONE|DICT|INTERRES
    15    9   10 1    
    16    9   44 1    
    17   10   15 ar   
    18   10   11 ar   
    19   11   12 ar   
    20   11   45 1    
    21   12   13 ar   
    22   12   46 1    
    23   13   14 ar   
    24   13   24 1    
    25   14   15 ar   
    26   14   16 1    
    27   15   47 1    
    28   16   17 2    
    29   16   18 am   BACKBONE|DICT|INTERRES
    30   18   23 1    
    31   18   19 1    
    32   19   20 1    
    33   19   48 1    
    34   19   49 1    
    35   20   21 1    
    36   20   50 1    
    37   20   51 1    
    38   21   22 1    
    39   21   52 1    
    40   21   53 1    
    41   22   23 1    
    42   22   54 1    
    43   22   55 1    
    44   23   56 1    
    45   23   57 1    
    46   24   29 1    
    47   24   25 1    
    48   25   26 1    
    49   25   58 1    
    50   25   59 1    
    51   26   27 1    
    52   26   60 1    
    53   26   61 1    
    54   27   28 1    
    55   27   30 am   BACKBONE|DICT|INTERRES
    56   28   29 1    
    57   28   62 1    
    58   28   63 1    
    59   29   64 1    
    60   29   65 1    
    61   30   31 2    
    62   30   32 am   BACKBONE|DICT|INTERRES
    63   32   33 1    
    64   32   66 1    
    65   33   38 1    
    66   33   34 1    
    67   33   67 1    
    68   34   35 1    
    69   34   68 1    
    70   34   69 1    
    71   35   36 1    
    72   35   70 1    
    73   35   71 1    
    74   36   37 1    
    75   36   72 1    
    76   36   73 1    
    77   37   38 1    
    78   37   74 1    
    79   37   75 1    
    80   38   76 1    
    81   38   77 1    
@<TRIPOS>SUBSTRUCTURE
     1 UNK         1 GROUP             0       ****    0 ROOT    
