@<TRIPOS>MOLECULE
ZINC15067906_5231
65   69    1
SMALL
USER_CHARGES


@<TRIPOS>ATOM
      1 C1         -0.1851   52.7457   23.8210 C.3       1 UNK         0.0000 
      2 N2          1.1342   52.1077   23.6728 N.am      1 UNK         0.0000 
      3 C3          2.3043   53.0274   23.5233 C.3       1 UNK         0.0000 
      4 H4          3.1658   52.4966   23.8939 H         1 UNK         0.0000 
      5 C5          2.2707   54.2616   24.4814 C.3       1 UNK         0.0000 
      6 C6          3.1598   54.0968   25.7129 C.ar      1 UNK         0.0000 
      7 C7          4.4616   54.6117   25.7134 C.ar      1 UNK         0.0000 
      8 C8          5.2766   54.4700   26.8370 C.ar      1 UNK         0.0000 
      9 C9          4.7964   53.8140   27.9695 C.ar      1 UNK         0.0000 
     10 C10         3.5007   53.2968   27.9763 C.ar      1 UNK         0.0000 
     11 C11         2.6845   53.4338   26.8527 C.ar      1 UNK         0.0000 
     12 F12         1.4317   52.9233   26.8768 F         1 UNK         0.0000 
     13 C13         2.7186   53.3654   22.0470 C.3       1 UNK         0.0000 
     14 C14         2.6873   52.1624   21.0604 C.3       1 UNK         0.0000 
     15 C15         3.0909   52.5142   19.6212 C.3       1 UNK         0.0000 
     16 C16         4.5606   54.3701   20.5257 C.3       1 UNK         0.0000 
     17 C17         4.1351   53.9975   21.9600 C.3       1 UNK         0.0000 
     18 C18         5.1156   53.4042   18.2331 C.3       1 UNK         0.0000 
     19 C19         4.0627   53.8332   17.2313 C.ar      1 UNK         0.0000 
     20 C20         3.5780   55.0813   16.8865 C.ar      1 UNK         0.0000 
     21 C21         2.5784   54.9029   15.8768 C.ar      1 UNK         0.0000 
     22 C22         1.7363   55.7707   15.1645 C.ar      1 UNK         0.0000 
     23 C23         0.8599   55.2351   14.2209 C.ar      1 UNK         0.0000 
     24 C24         0.8110   53.8638   13.9794 C.ar      1 UNK         0.0000 
     25 C25         1.6300   52.9647   14.6651 C.ar      1 UNK         0.0000 
     26 C26         2.5079   53.5035   15.6116 C.ar      1 UNK         0.0000 
     27 N27         3.4293   52.9006   16.4414 N.pl3     1 UNK         0.0000 
     28 H28         3.6398   51.9115   16.5030 H         1 UNK         0.0000 
     29 C29         1.2714   50.7488   23.6136 C.2       1 UNK         0.0000 
     30 O30         2.3044   50.1739   23.2817 O.2       1 UNK         0.0000 
     31 C31         0.1590   49.9375   23.9988 C.2       1 UNK         0.0000 
     32 C32        -0.8261   49.3833   23.1864 C.2       1 UNK         0.0000 
     33 C33        -1.7673   48.6503   23.9182 C.2       1 UNK         0.0000 
     34 C34        -1.5025   48.6621   25.2819 C.2       1 UNK         0.0000 
     35 S35        -0.0956   49.5958   25.6800 S.3       1 UNK         0.0000 
     36 H36        -1.0042   52.1324   23.4452 H         1 UNK         0.0000 
     37 H37        -0.3808   52.9570   24.8727 H         1 UNK         0.0000 
     38 H38        -0.2150   53.6898   23.2816 H         1 UNK         0.0000 
     39 H39         1.2677   54.4961   24.8278 H         1 UNK         0.0000 
     40 H40         2.5660   55.1728   23.9653 H         1 UNK         0.0000 
     41 H41         4.8482   55.1268   24.8465 H         1 UNK         0.0000 
     42 H42         6.2801   54.8699   26.8335 H         1 UNK         0.0000 
     43 H43         5.4289   53.7064   28.8383 H         1 UNK         0.0000 
     44 H44         3.1261   52.7834   28.8490 H         1 UNK         0.0000 
     45 H45         2.0065   54.0967   21.6822 H         1 UNK         0.0000 
     46 H46         3.3537   51.3767   21.4166 H         1 UNK         0.0000 
     47 H47         1.6956   51.7118   21.0400 H         1 UNK         0.0000 
     48 H48         2.4136   53.2432   19.1722 H         1 UNK         0.0000 
     49 H49         3.1423   51.6120   19.0074 H         1 UNK         0.0000 
     50 H50         3.9042   55.0853   20.0336 H         1 UNK         0.0000 
     51 H51         5.5883   54.7369   20.5317 H         1 UNK         0.0000 
     52 H52         4.2016   54.8928   22.5744 H         1 UNK         0.0000 
     53 H53         4.8674   53.3139   22.3928 H         1 UNK         0.0000 
     54 H54         5.8807   54.1683   18.3776 H         1 UNK         0.0000 
     55 H55         5.6403   52.4967   17.9392 H         1 UNK         0.0000 
     56 H56         3.8991   56.0143   17.3250 H         1 UNK         0.0000 
     57 H57         1.7667   56.8361   15.3422 H         1 UNK         0.0000 
     58 H58         0.2089   55.8944   13.6644 H         1 UNK         0.0000 
     59 H59         0.1200   53.4874   13.2388 H         1 UNK         0.0000 
     60 H60         1.5853   51.9031   14.4692 H         1 UNK         0.0000 
     61 H61        -0.8553   49.4951   22.1123 H         1 UNK         0.0000 
     62 H62        -2.6061   48.1345   23.4742 H         1 UNK         0.0000 
     63 H63        -2.0530   48.1834   26.0813 H         1 UNK         0.0000 
     64 N64         4.5234   53.1044   19.6441 N.4       1 UNK         0.0000 
     65 H65         5.1244   52.4022   20.0534 H         1 UNK         0.0000 
@<TRIPOS>BOND
     1    1    2 1    
     2    1   36 1    
     3    1   37 1    
     4    1   38 1    
     5    2    3 1    
     6    2   29 am   BACKBONE|DICT|INTERRES
     7    3    4 1    
     8    3    5 1    
     9    3   13 1    
    10    5    6 1    
    11    5   39 1    
    12    5   40 1    
    13    6   11 ar   
    14    6    7 ar   
    15    7    8 ar   
    16    7   41 1    
    17    8    9 ar   
    18    8   42 1    
    19    9   10 ar   
    20    9   43 1    
    21   10   11 ar   
    22   10   44 1    
    23   11   12 1    
    24   13   17 1    
    25   13   14 1    
    26   13   45 1    
    27   14   15 1    
    28   14   46 1    
    29   14   47 1    
    30   15   48 1    
    31   15   49 1    
    32   15   64 1    
    33   16   17 1    
    34   16   50 1    
    35   16   51 1    
    36   16   64 1    
    37   17   52 1    
    38   17   53 1    
    39   18   19 1    
    40   18   54 1    
    41   18   55 1    
    42   18   64 1    
    43   19   27 ar   
    44   19   20 ar   
    45   20   21 ar   
    46   20   56 1    
    47   21   26 ar   
    48   21   22 ar   
    49   22   23 ar   
    50   22   57 1    
    51   23   24 ar   
    52   23   58 1    
    53   24   25 ar   
    54   24   59 1    
    55   25   26 ar   
    56   25   60 1    
    57   26   27 ar   
    58   27   28 1    
    59   29   30 2    
    60   29   31 1    
    61   31   35 1    
    62   31   32 2    
    63   32   33 1    
    64   32   61 1    
    65   33   34 2    
    66   33   62 1    
    67   34   35 1    
    68   34   63 1    
    69   64   65 1    
@<TRIPOS>SUBSTRUCTURE
     1 UNK         1 GROUP             0       ****    0 ROOT    
