ZINC45254546_5111
                    3D
 Schrodinger Suite 2024-2.
 71 75  0  0  1  0            999 V2000
    4.5078   52.8246   16.0258 C   0  0  0  0  0  0
    5.7793   53.6241   16.3429 C   0  0  0  0  0  0
    6.4375   53.1525   17.6569 C   0  0  0  0  0  0
    7.7348   53.9464   18.0049 N   0  3  2  0  0  0
    7.4760   55.4498   18.3474 C   0  0  0  0  0  0
    6.2542   55.7029   19.2710 C   0  0  0  0  0  0
    6.2691   54.8959   20.4966 N   0  0  0  0  0  0
    6.9455   55.5574   21.6275 C   0  0  0  0  0  0
    6.7049   54.9230   23.0460 C   0  0  0  0  0  0
    5.4660   54.1325   23.2584 N   0  0  0  0  0  0
    5.1068   53.4253   22.0253 C   0  0  0  0  0  0
    4.9384   54.4433   20.8902 C   0  0  0  0  0  0
    4.7129   54.1133   24.4408 C   0  0  0  0  0  0
    5.2740   54.4970   25.6666 C   0  0  0  0  0  0
    4.5191   54.4966   26.8416 C   0  0  0  0  0  0
    3.1781   54.0967   26.8278 C   0  0  0  0  0  0
    2.6155   53.6968   25.6146 C   0  0  0  0  0  0
    3.3611   53.7258   24.4388 C   0  0  0  0  0  0
    2.3438   54.1251   28.0632 C   0  0  0  0  0  0
    1.5082   53.0470   28.3958 C   0  0  0  0  0  0
    0.7071   53.1265   29.5380 C   0  0  0  0  0  0
    0.6937   54.2112   30.3544 N   0  0  0  0  0  0
    1.5034   55.2512   30.0310 C   0  0  0  0  0  0
    2.3404   55.2413   28.9141 C   0  0  0  0  0  0
    8.8927   53.7350   16.9684 C   0  0  1  0  0  0
    8.6239   54.3006   16.0731 H   0  0  0  0  0  0
   10.2503   54.2683   17.5132 C   0  0  0  0  0  0
   11.4009   54.2052   16.4705 C   0  0  0  0  0  0
   11.3353   52.9047   15.6719 C   0  0  0  0  0  0
   10.2352   52.0448   15.7074 C   0  0  0  0  0  0
   10.5171   50.7053   14.6358 S   0  0  0  0  0  0
   12.0314   51.4340   14.2200 C   0  0  0  0  0  0
   12.3081   52.5464   14.8521 N   0  0  0  0  0  0
   12.8338   50.8549   13.2800 N   0  0  0  0  0  0
    9.0103   52.2300   16.5769 C   0  0  0  0  0  0
    4.0500   53.1686   15.0952 H   0  0  0  0  0  0
    4.7252   51.7629   15.9108 H   0  0  0  0  0  0
    3.7650   52.9264   16.8154 H   0  0  0  0  0  0
    5.5308   54.6802   16.4041 H   0  0  0  0  0  0
    6.4736   53.5185   15.5094 H   0  0  0  0  0  0
    6.7040   52.0980   17.6416 H   0  0  0  0  0  0
    5.7634   53.2356   18.5009 H   0  0  0  0  0  0
    8.3767   55.8168   18.8408 H   0  0  0  0  0  0
    7.3639   55.9635   17.3923 H   0  0  0  0  0  0
    6.1901   56.7648   19.5125 H   0  0  0  0  0  0
    5.3508   55.5065   18.6918 H   0  0  0  0  0  0
    8.0060   55.7351   21.4500 H   0  0  0  0  0  0
    6.4256   56.5163   21.6915 H   0  0  0  0  0  0
    6.8571   55.6811   23.8141 H   0  0  0  0  0  0
    7.4997   54.1895   23.1908 H   0  0  0  0  0  0
    4.1694   52.8906   22.1327 H   0  0  0  0  0  0
    5.8300   52.6433   21.7949 H   0  0  0  0  0  0
    4.2871   55.2580   21.1992 H   0  0  0  0  0  0
    4.4585   53.9298   20.0555 H   0  0  0  0  0  0
    6.3127   54.7862   25.7259 H   0  0  0  0  0  0
    4.9873   54.7988   27.7675 H   0  0  0  0  0  0
    1.5767   53.4023   25.5688 H   0  0  0  0  0  0
    2.8474   53.4484   23.5325 H   0  0  0  0  0  0
    1.4750   52.1617   27.7800 H   0  0  0  0  0  0
    0.0511   52.3132   29.8140 H   0  0  0  0  0  0
    1.4766   56.1052   30.6959 H   0  0  0  0  0  0
    2.9610   56.0968   28.7088 H   0  0  0  0  0  0
   10.1779   55.2874   17.8867 H   0  0  0  0  0  0
   10.5237   53.6966   18.3992 H   0  0  0  0  0  0
   12.3635   54.3158   16.9744 H   0  0  0  0  0  0
   11.3024   55.0485   15.7871 H   0  0  0  0  0  0
   13.7367   51.2397   13.0512 H   0  0  0  0  0  0
   12.4807   50.1425   12.6355 H   0  0  0  0  0  0
    8.1307   51.8668   16.0445 H   0  0  0  0  0  0
    9.0976   51.6099   17.4711 H   0  0  0  0  0  0
    8.0653   53.5446   18.8720 H   0  0  0  0  0  0
  1  2  1  0  0  0
  1 36  1  0  0  0
  1 37  1  0  0  0
  1 38  1  0  0  0
  2  3  1  0  0  0
  2 39  1  0  0  0
  2 40  1  0  0  0
  3  4  1  0  0  0
  3 41  1  0  0  0
  3 42  1  0  0  0
  4  5  1  0  0  0
  4 25  1  0  0  0
  4 71  1  0  0  0
  5  6  1  0  0  0
  5 43  1  0  0  0
  5 44  1  0  0  0
  6  7  1  0  0  0
  6 45  1  0  0  0
  6 46  1  0  0  0
  7 12  1  0  0  0
  7  8  1  0  0  0
  8  9  1  0  0  0
  8 47  1  0  0  0
  8 48  1  0  0  0
  9 10  1  0  0  0
  9 49  1  0  0  0
  9 50  1  0  0  0
 10 11  1  0  0  0
 10 13  1  0  0  0
 11 12  1  0  0  0
 11 51  1  0  0  0
 11 52  1  0  0  0
 12 53  1  0  0  0
 12 54  1  0  0  0
 13 18  2  0  0  0
 13 14  1  0  0  0
 14 15  2  0  0  0
 14 55  1  0  0  0
 15 16  1  0  0  0
 15 56  1  0  0  0
 16 17  2  0  0  0
 16 19  1  0  0  0
 17 18  1  0  0  0
 17 57  1  0  0  0
 18 58  1  0  0  0
 19 24  2  0  0  0
 19 20  1  0  0  0
 20 21  2  0  0  0
 20 59  1  0  0  0
 21 22  1  0  0  0
 21 60  1  0  0  0
 22 23  2  0  0  0
 23 24  1  0  0  0
 23 61  1  0  0  0
 24 62  1  0  0  0
 25 26  1  0  0  0
 25 35  1  0  0  0
 25 27  1  0  0  0
 27 28  1  0  0  0
 27 63  1  0  0  0
 27 64  1  0  0  0
 28 29  1  0  0  0
 28 65  1  0  0  0
 28 66  1  0  0  0
 29 33  1  0  0  0
 29 30  2  0  0  0
 30 31  1  0  0  0
 30 35  1  0  0  0
 31 32  1  0  0  0
 32 33  2  0  0  0
 32 34  1  0  0  0
 34 67  1  0  0  0
 34 68  1  0  0  0
 35 69  1  0  0  0
 35 70  1  0  0  0
M  CHG  1   4   1
M  END
> <i_i_glide_confnum>
38

> <i_i_glide_lignum>
5112

> <i_i_glide_posenum>
78

> <i_i_glide_rotatable_bonds>
8

> <i_m_Source_File_Index>
152

> <b_m_subgroup_collapsed>
0

> <r_i_docking_score>
-6.72593

> <r_i_glide_ecoul>
-5.66743

> <r_i_glide_eff_state_penalty>
0

> <r_i_glide_einternal>
7.54521

> <r_i_glide_emodel>
-64.6007

> <r_i_glide_energy>
-47.3406

> <r_i_glide_erotb>
0.621477

> <r_i_glide_esite>
-0.0868085

> <r_i_glide_evdw>
-41.6732

> <r_i_glide_gscore>
-6.72593

> <r_i_glide_hbond>
-0.16

> <r_i_glide_ligand_efficiency>
-0.197821

> <r_i_glide_ligand_efficiency_ln>
-1.48595

> <r_i_glide_ligand_efficiency_sa>
-0.640864

> <r_i_glide_lipo>
-3.5749

> <r_i_glide_metal>
0

> <r_i_glide_rewards>
-0.591926

> <s_i_glide_gridfile>
wee1_glide-grid

> <s_m_Source_File>
wee1_decoys_glide_SP.sdf

> <s_m_Source_Path>
/Users/zhangxujun/Desktop

> <s_m_entry_id>
427

> <s_m_entry_name>
wee1_decoys_glide_SP.152

> <s_m_subgroup_title>
wee1_decoys_glide_SP

> <s_m_subgroupid>
wee1_decoys_glide_SP


$$$$
