@<TRIPOS>MOLECULE
ZINC61886294_1869
39   41    1
SMALL
USER_CHARGES


@<TRIPOS>ATOM
      1 C1          3.5832   54.0345   25.0418 C.2       1 UNK         0.0000 
      2 C2          4.3464   54.1719   23.8874 C.2       1 UNK         0.0000 
      3 C3          5.6587   54.4920   24.1438 C.2       1 UNK         0.0000 
      4 S4          6.0065   54.6100   25.8371 S.3       1 UNK         0.0000 
      5 C5          4.3333   54.2529   26.2071 C.2       1 UNK         0.0000 
      6 C6          3.9053   54.0986   27.5713 C.2       1 UNK         0.0000 
      7 O7          4.6900   53.9207   28.5041 O.2       1 UNK         0.0000 
      8 N8          2.5709   54.1298   27.7182 N.am      1 UNK         0.0000 
      9 C9          1.8472   53.8801   28.9614 C.3       1 UNK         0.0000 
     10 H10         2.1777   54.6391   29.6784 H         1 UNK         0.0000 
     11 C11         0.3453   54.0610   28.7317 C.3       1 UNK         0.0000 
     12 C12        -0.1713   52.7203   28.2044 C.3       1 UNK         0.0000 
     13 C13         0.8310   51.6735   28.6907 C.3       1 UNK         0.0000 
     14 C14         1.9649   52.4163   29.4439 C.3       1 UNK         0.0000 
     15 H15         2.8753   51.9785   29.0346 H         1 UNK         0.0000 
     16 C16         1.9493   52.3197   30.9868 C.2       1 UNK         0.0000 
     17 N17         2.9947   52.0967   31.6800 N.2       1 UNK         0.0000 
     18 O18         4.2273   52.0958   30.9927 O.3       1 UNK         0.0000 
     19 N19         0.7044   52.4954   31.5424 N.pl3     1 UNK         0.0000 
     20 C20         6.4697   54.6424   22.8878 C.3       1 UNK         0.0000 
     21 C21         5.5034   54.0612   21.8355 C.3       1 UNK         0.0000 
     22 C22         4.0807   54.0991   22.4106 C.3       1 UNK         0.0000 
     23 H23         2.5357   53.7720   25.0191 H         1 UNK         0.0000 
     24 H24         2.0126   54.4096   26.9262 H         1 UNK         0.0000 
     25 H25        -0.1383   54.2957   29.6800 H         1 UNK         0.0000 
     26 H26         0.1172   54.8978   28.0818 H         1 UNK         0.0000 
     27 H27        -1.1778   52.4959   28.5593 H         1 UNK         0.0000 
     28 H28        -0.2104   52.7284   27.1144 H         1 UNK         0.0000 
     29 H29         1.2393   51.1513   27.8228 H         1 UNK         0.0000 
     30 H30         0.3463   50.8976   29.2839 H         1 UNK         0.0000 
     31 H31         4.0238   52.4865   30.1363 H         1 UNK         0.0000 
     32 H32         0.5804   52.4066   32.5436 H         1 UNK         0.0000 
     33 H33        -0.1200   52.3762   30.9762 H         1 UNK         0.0000 
     34 H34         6.7164   55.6858   22.6829 H         1 UNK         0.0000 
     35 H35         7.4049   54.0789   22.9099 H         1 UNK         0.0000 
     36 H36         5.5744   54.5797   20.8766 H         1 UNK         0.0000 
     37 H37         5.7683   53.0179   21.6510 H         1 UNK         0.0000 
     38 H38         3.5000   53.2260   22.1090 H         1 UNK         0.0000 
     39 H39         3.5517   54.9841   22.0560 H         1 UNK         0.0000 
@<TRIPOS>BOND
     1    1    5 2    
     2    1    2 1    
     3    1   23 1    
     4    2   22 1    
     5    2    3 2    
     6    3    4 1    
     7    3   20 1    
     8    4    5 1    
     9    5    6 1    
    10    6    7 2    
    11    6    8 am   BACKBONE|DICT|INTERRES
    12    8    9 1    
    13    8   24 1    
    14    9   10 1    
    15    9   14 1    
    16    9   11 1    
    17   11   12 1    
    18   11   25 1    
    19   11   26 1    
    20   12   13 1    
    21   12   27 1    
    22   12   28 1    
    23   13   14 1    
    24   13   29 1    
    25   13   30 1    
    26   14   15 1    
    27   14   16 1    
    28   16   17 2    
    29   16   19 1    
    30   17   18 1    
    31   18   31 1    
    32   19   32 1    
    33   19   33 1    
    34   20   21 1    
    35   20   34 1    
    36   20   35 1    
    37   21   22 1    
    38   21   36 1    
    39   21   37 1    
    40   22   38 1    
    41   22   39 1    
@<TRIPOS>SUBSTRUCTURE
     1 UNK         1 GROUP             0       ****    0 ROOT    
