ZINC45166286_3834
                    3D
 Schrodinger Suite 2024-2.
 42 44  0  0  1  0            999 V2000
    2.2007   49.3697   21.7552 C   0  0  0  0  0  0
    2.7014   50.5592   21.2489 C   0  0  0  0  0  0
    2.3925   51.7732   21.8610 C   0  0  0  0  0  0
    1.5929   51.8197   23.0280 C   0  0  0  0  0  0
    1.0939   50.5968   23.5264 C   0  0  0  0  0  0
    1.3914   49.3980   22.8818 C   0  0  0  0  0  0
    0.0760   50.4726   24.9176 Cl  0  0  0  0  0  0
    1.1143   53.3953   23.8218 S   0  0  0  0  0  0
    1.5845   54.4965   22.9783 O   0  0  0  0  0  0
   -0.3265   53.2971   24.0814 O   0  0  0  0  0  0
    1.9563   53.5412   25.4031 N   0  0  0  0  0  0
    1.3271   52.8972   26.5828 C   0  0  0  0  0  0
    1.6168   53.7084   27.8570 C   0  0  0  0  0  0
    3.1287   53.9203   28.0579 C   0  0  0  0  0  0
    3.8411   54.4781   26.8003 C   0  0  2  0  0  0
    3.4930   55.4938   26.6246 H   0  0  0  0  0  0
    3.4477   53.6967   25.5160 C   0  0  2  0  0  0
    3.8235   52.6925   25.6669 H   0  0  0  0  0  0
    4.1927   54.2709   24.2884 C   0  0  0  0  0  0
    5.7221   54.3123   24.4728 C   0  0  0  0  0  0
    6.1249   55.0397   25.7651 C   0  0  0  0  0  0
    5.3785   54.4841   26.9903 C   0  0  0  0  0  0
    2.8995   52.8984   21.2265 N   0  0  0  0  0  0
    2.4386   48.4347   21.2716 H   0  0  0  0  0  0
    3.3163   50.5303   20.3601 H   0  0  0  0  0  0
    1.0022   48.4772   23.2835 H   0  0  0  0  0  0
    0.2530   52.7948   26.4286 H   0  0  0  0  0  0
    1.7635   51.9066   26.7081 H   0  0  0  0  0  0
    1.1129   54.6748   27.7954 H   0  0  0  0  0  0
    1.1906   53.1995   28.7220 H   0  0  0  0  0  0
    3.3405   54.5430   28.9287 H   0  0  0  0  0  0
    3.5606   52.9459   28.2938 H   0  0  0  0  0  0
    3.9860   53.6687   23.4111 H   0  0  0  0  0  0
    3.8211   55.2730   24.0756 H   0  0  0  0  0  0
    6.1151   53.2969   24.4946 H   0  0  0  0  0  0
    6.1862   54.7968   23.6130 H   0  0  0  0  0  0
    7.2008   54.9560   25.9152 H   0  0  0  0  0  0
    5.9081   56.1010   25.6634 H   0  0  0  0  0  0
    5.6415   55.0522   27.8844 H   0  0  0  0  0  0
    5.7228   53.4680   27.1967 H   0  0  0  0  0  0
    2.4680   53.7887   21.4582 H   0  0  0  0  0  0
    3.3296   52.7776   20.3181 H   0  0  0  0  0  0
  1  6  2  0  0  0
  1  2  1  0  0  0
  1 24  1  0  0  0
  2  3  2  0  0  0
  2 25  1  0  0  0
  3  4  1  0  0  0
  3 23  1  0  0  0
  4  5  2  0  0  0
  4  8  1  0  0  0
  5  6  1  0  0  0
  5  7  1  0  0  0
  6 26  1  0  0  0
  8  9  2  0  0  0
  8 10  2  0  0  0
  8 11  1  0  0  0
 11 17  1  0  0  0
 11 12  1  0  0  0
 12 13  1  0  0  0
 12 27  1  0  0  0
 12 28  1  0  0  0
 13 14  1  0  0  0
 13 29  1  0  0  0
 13 30  1  0  0  0
 14 15  1  0  0  0
 14 31  1  0  0  0
 14 32  1  0  0  0
 15 16  1  0  0  0
 15 22  1  0  0  0
 15 17  1  0  0  0
 17 18  1  0  0  0
 17 19  1  0  0  0
 19 20  1  0  0  0
 19 33  1  0  0  0
 19 34  1  0  0  0
 20 21  1  0  0  0
 20 35  1  0  0  0
 20 36  1  0  0  0
 21 22  1  0  0  0
 21 37  1  0  0  0
 21 38  1  0  0  0
 22 39  1  0  0  0
 22 40  1  0  0  0
 23 41  1  0  0  0
 23 42  1  0  0  0
M  END
> <i_i_glide_confnum>
8

> <i_i_glide_lignum>
3835

> <i_i_glide_posenum>
287

> <i_i_glide_rotatable_bonds>
2

> <i_m_Source_File_Index>
3555

> <b_m_subgroup_collapsed>
0

> <r_i_docking_score>
-5.86314

> <r_i_glide_ecoul>
-1.81836

> <r_i_glide_eff_state_penalty>
0

> <r_i_glide_einternal>
0.292257

> <r_i_glide_emodel>
-43.697

> <r_i_glide_energy>
-32.5727

> <r_i_glide_erotb>
0.347435

> <r_i_glide_esite>
-0.00586467

> <r_i_glide_evdw>
-30.7543

> <r_i_glide_gscore>
-5.86314

> <r_i_glide_hbond>
-0.0886984

> <r_i_glide_ligand_efficiency>
-0.279197

> <r_i_glide_ligand_efficiency_ln>
-1.44965

> <r_i_glide_ligand_efficiency_sa>
-0.770284

> <r_i_glide_lipo>
-2.63366

> <r_i_glide_metal>
0

> <r_i_glide_rewards>
-1.67189

> <s_i_glide_gridfile>
wee1_glide-grid

> <s_m_Source_File>
wee1_decoys_glide_SP.sdf

> <s_m_Source_Path>
/Users/zhangxujun/Desktop

> <s_m_entry_id>
3830

> <s_m_entry_name>
wee1_decoys_glide_SP.3555

> <s_m_subgroup_title>
wee1_decoys_glide_SP

> <s_m_subgroupid>
wee1_decoys_glide_SP


$$$$
