ZINC64623137_1210
                    3D
 Schrodinger Suite 2024-2.
 60 64  0  0  1  0            999 V2000
   -6.2776   53.5885   25.0086 C   0  0  0  0  0  0
   -5.5953   52.9259   26.0703 O   0  0  0  0  0  0
   -4.3224   52.4354   25.8508 C   0  0  0  0  0  0
   -3.5901   52.6447   24.6748 C   0  0  0  0  0  0
   -2.3107   52.1157   24.5408 C   0  0  0  0  0  0
   -1.7398   51.3573   25.5702 C   0  0  0  0  0  0
   -2.4658   51.1689   26.7511 C   0  0  0  0  0  0
   -3.7477   51.6960   26.8830 C   0  0  0  0  0  0
   -0.3019   50.8026   25.4830 C   0  0  1  0  0  0
    0.0782   50.8933   26.5011 H   0  0  0  0  0  0
   -0.2431   49.2592   25.2041 C   0  0  2  0  0  0
    0.6591   48.8391   25.6549 H   0  0  0  0  0  0
   -0.2831   48.9413   23.7369 C   0  0  0  0  0  0
   -1.3141   48.1248   23.4731 C   0  0  0  0  0  0
   -1.8148   47.5457   22.2202 C   0  0  0  0  0  0
   -2.9045   46.7498   22.2141 C   0  0  0  0  0  0
   -3.5574   46.4937   23.4940 C   0  0  0  0  0  0
   -3.0926   47.0025   24.6660 C   0  0  0  0  0  0
   -1.9650   47.8296   24.6737 C   0  0  0  0  0  0
   -1.3667   48.4258   25.6817 N   0  3  0  0  0  0
   -3.5102   46.0308   20.7195 Cl  0  0  0  0  0  0
    0.7837   49.6151   22.9141 C   0  0  0  0  0  0
    0.6380   51.1406   23.0870 C   0  0  0  0  0  0
    0.6253   51.5114   24.5353 N   0  0  0  0  0  0
    1.2365   52.6843   24.8821 C   0  0  0  0  0  0
    1.7011   53.4631   24.0448 O   0  0  0  0  0  0
    1.3877   52.8921   26.2125 N   0  0  0  0  0  0
    2.4697   53.5029   26.8710 C   0  0  0  0  0  0
    2.3569   53.7073   28.2480 C   0  0  0  0  0  0
    3.4380   54.2065   28.9747 C   0  0  0  0  0  0
    4.6427   54.4961   28.3343 C   0  0  0  0  0  0
    4.7739   54.3113   26.9509 C   0  0  0  0  0  0
    3.6782   53.8146   26.2326 C   0  0  0  0  0  0
    6.0707   54.6106   26.2692 C   0  0  0  0  0  0
    7.1035   54.8953   26.8761 O   0  0  0  0  0  0
    5.9780   54.5793   24.9161 O   0  0  0  0  0  0
    7.1044   54.8317   24.0954 C   0  0  0  0  0  0
   -7.2708   53.8836   25.3469 H   0  0  0  0  0  0
   -5.7560   54.4934   24.6930 H   0  0  0  0  0  0
   -6.4064   52.9319   24.1462 H   0  0  0  0  0  0
   -3.9924   53.2234   23.8589 H   0  0  0  0  0  0
   -1.7768   52.3230   23.6306 H   0  0  0  0  0  0
   -2.0440   50.6027   27.5708 H   0  0  0  0  0  0
   -4.3007   51.5302   27.7955 H   0  0  0  0  0  0
   -1.3230   47.7398   21.2776 H   0  0  0  0  0  0
   -4.4518   45.8868   23.5058 H   0  0  0  0  0  0
   -3.6227   46.7881   25.5839 H   0  0  0  0  0  0
    1.7761   49.2962   23.2396 H   0  0  0  0  0  0
    0.7112   49.3503   21.8589 H   0  0  0  0  0  0
    1.5075   51.5628   22.5775 H   0  0  0  0  0  0
   -0.2653   51.4761   22.5820 H   0  0  0  0  0  0
    0.7793   52.3693   26.8227 H   0  0  0  0  0  0
    1.4394   53.4649   28.7652 H   0  0  0  0  0  0
    3.3481   54.3577   30.0388 H   0  0  0  0  0  0
    5.4705   54.8733   28.9218 H   0  0  0  0  0  0
    3.7877   53.6226   25.1765 H   0  0  0  0  0  0
    6.8218   54.7674   23.0447 H   0  0  0  0  0  0
    7.5044   55.8298   24.2779 H   0  0  0  0  0  0
    7.8859   54.0944   24.2804 H   0  0  0  0  0  0
   -1.6233   48.3540   26.6756 H   0  0  0  0  0  0
  1  2  1  0  0  0
  1 38  1  0  0  0
  1 39  1  0  0  0
  1 40  1  0  0  0
  2  3  1  0  0  0
  3  8  2  0  0  0
  3  4  1  0  0  0
  4  5  2  0  0  0
  4 41  1  0  0  0
  5  6  1  0  0  0
  5 42  1  0  0  0
  6  7  2  0  0  0
  6  9  1  0  0  0
  7  8  1  0  0  0
  7 43  1  0  0  0
  8 44  1  0  0  0
  9 10  1  0  0  0
  9 24  1  0  0  0
  9 11  1  0  0  0
 11 12  1  0  0  0
 11 20  1  0  0  0
 11 13  1  0  0  0
 13 14  2  0  0  0
 13 22  1  0  0  0
 14 19  1  0  0  0
 14 15  1  0  0  0
 15 16  2  0  0  0
 15 45  1  0  0  0
 16 17  1  0  0  0
 16 21  1  0  0  0
 17 18  2  0  0  0
 17 46  1  0  0  0
 18 19  1  0  0  0
 18 47  1  0  0  0
 19 20  2  0  0  0
 20 60  1  0  0  0
 22 23  1  0  0  0
 22 48  1  0  0  0
 22 49  1  0  0  0
 23 24  1  0  0  0
 23 50  1  0  0  0
 23 51  1  0  0  0
 24 25  1  0  0  0
 25 26  2  0  0  0
 25 27  1  0  0  0
 27 28  1  0  0  0
 27 52  1  0  0  0
 28 33  2  0  0  0
 28 29  1  0  0  0
 29 30  2  0  0  0
 29 53  1  0  0  0
 30 31  1  0  0  0
 30 54  1  0  0  0
 31 32  2  0  0  0
 31 55  1  0  0  0
 32 33  1  0  0  0
 32 34  1  0  0  0
 33 56  1  0  0  0
 34 35  2  0  0  0
 34 36  1  0  0  0
 36 37  1  0  0  0
 37 57  1  0  0  0
 37 58  1  0  0  0
 37 59  1  0  0  0
M  CHG  1  20   1
M  END
> <i_i_glide_confnum>
19

> <i_i_glide_lignum>
1211

> <i_i_glide_posenum>
9

> <i_i_glide_rotatable_bonds>
7

> <i_m_Source_File_Index>
5729

> <b_m_subgroup_collapsed>
0

> <r_i_docking_score>
-5.56121

> <r_i_glide_ecoul>
-4.25467

> <r_i_glide_eff_state_penalty>
0

> <r_i_glide_einternal>
3.40988

> <r_i_glide_emodel>
-62.5627

> <r_i_glide_energy>
-48.0882

> <r_i_glide_erotb>
0.422217

> <r_i_glide_esite>
-0.1

> <r_i_glide_evdw>
-43.8335

> <r_i_glide_gscore>
-5.56121

> <r_i_glide_hbond>
-0.472683

> <r_i_glide_ligand_efficiency>
-0.158892

> <r_i_glide_ligand_efficiency_ln>
-1.22081

> <r_i_glide_ligand_efficiency_sa>
-0.519745

> <r_i_glide_lipo>
-1.61973

> <r_i_glide_metal>
0

> <r_i_glide_rewards>
-0.961134

> <s_i_glide_gridfile>
wee1_glide-grid

> <s_m_Source_File>
wee1_decoys_glide_SP.sdf

> <s_m_Source_Path>
/Users/zhangxujun/Desktop

> <s_m_entry_id>
6004

> <s_m_entry_name>
wee1_decoys_glide_SP.5729

> <s_m_subgroup_title>
wee1_decoys_glide_SP

> <s_m_subgroupid>
wee1_decoys_glide_SP


$$$$
