@<TRIPOS>MOLECULE
ZINC08455976_5307
46   48    1
SMALL
USER_CHARGES


@<TRIPOS>ATOM
      1 C1         -2.4978   52.7724   15.1709 C.3       1 UNK         0.0000 
      2 C2         -1.4888   52.3704   16.2165 C.2       1 UNK         0.0000 
      3 C3         -0.1903   51.8884   16.1698 C.2       1 UNK         0.0000 
      4 C4          0.2177   51.6884   17.4892 C.2       1 UNK         0.0000 
      5 C5         -0.8419   52.0937   18.3000 C.2       1 UNK         0.0000 
      6 O6         -1.8852   52.4738   17.5123 O.3       1 UNK         0.0000 
      7 C7         -1.0379   52.0668   19.7243 C.2       1 UNK         0.0000 
      8 O8         -2.1699   52.0967   20.2100 O.2       1 UNK         0.0000 
      9 N9          0.1165   52.0559   20.4211 N.am      1 UNK         0.0000 
     10 C10         0.3048   52.0969   21.8122 C.ar      1 UNK         0.0000 
     11 C11        -0.6546   51.7131   22.7580 C.ar      1 UNK         0.0000 
     12 C12        -0.3667   51.8010   24.1199 C.ar      1 UNK         0.0000 
     13 C13         0.8762   52.2753   24.5745 C.ar      1 UNK         0.0000 
     14 C14         1.8227   52.6435   23.5997 C.ar      1 UNK         0.0000 
     15 C15         1.5478   52.5478   22.2419 C.ar      1 UNK         0.0000 
     16 C16         1.2131   52.3730   26.0259 C.2       1 UNK         0.0000 
     17 N17         2.3048   52.9536   26.3637 N.2       1 UNK         0.0000 
     18 N18         2.7089   52.9360   27.6479 N.am      1 UNK         0.0000 
     19 C19         3.8927   53.4368   28.0686 C.2       1 UNK         0.0000 
     20 O20         4.2536   53.1576   29.2132 O.2       1 UNK         0.0000 
     21 C21         4.7698   54.4108   27.1979 C.3       1 UNK         0.0000 
     22 C22         5.8460   55.1876   27.9251 C.3       1 UNK         0.0000 
     23 C23         6.2487   54.0701   27.0305 C.3       1 UNK         0.0000 
     24 Br24        7.1043   54.4986   25.2806 Br        1 UNK         0.0000 
     25 Br25        7.2643   52.7728   28.0817 Br        1 UNK         0.0000 
     26 C26         4.0914   55.1677   26.0404 C.3       1 UNK         0.0000 
     27 C27         0.1985   51.7660   27.0136 C.3       1 UNK         0.0000 
     28 H28        -2.1069   52.6449   14.1621 H         1 UNK         0.0000 
     29 H29        -3.4068   52.1760   15.2423 H         1 UNK         0.0000 
     30 H30        -2.7860   53.8179   15.2754 H         1 UNK         0.0000 
     31 H31         0.3901   51.6905   15.2807 H         1 UNK         0.0000 
     32 H32         1.1741   51.2953   17.8068 H         1 UNK         0.0000 
     33 H33         0.9625   52.1265   19.8762 H         1 UNK         0.0000 
     34 H34        -1.6192   51.3331   22.4589 H         1 UNK         0.0000 
     35 H35        -1.1350   51.4903   24.8119 H         1 UNK         0.0000 
     36 H36         2.8019   53.0017   23.8812 H         1 UNK         0.0000 
     37 H37         2.3042   52.8470   21.5295 H         1 UNK         0.0000 
     38 H38         2.1443   52.3790   28.2711 H         1 UNK         0.0000 
     39 H39         5.9043   55.0843   29.0098 H         1 UNK         0.0000 
     40 H40         6.3043   56.0967   27.5947 H         1 UNK         0.0000 
     41 H41         4.6521   56.0529   25.7335 H         1 UNK         0.0000 
     42 H42         3.9952   54.5429   25.1532 H         1 UNK         0.0000 
     43 H43         3.1045   55.4912   26.3469 H         1 UNK         0.0000 
     44 H44        -0.7528   52.2983   26.9704 H         1 UNK         0.0000 
     45 H45         0.0216   50.7106   26.7980 H         1 UNK         0.0000 
     46 H46         0.5133   51.8117   28.0550 H         1 UNK         0.0000 
@<TRIPOS>BOND
     1    1    2 1    
     2    1   28 1    
     3    1   29 1    
     4    1   30 1    
     5    2    6 1    
     6    2    3 2    
     7    3    4 1    
     8    3   31 1    
     9    4    5 2    
    10    4   32 1    
    11    5    6 1    
    12    5    7 1    
    13    7    8 2    
    14    7    9 am   BACKBONE|DICT|INTERRES
    15    9   10 1    
    16    9   33 1    
    17   10   15 ar   
    18   10   11 ar   
    19   11   12 ar   
    20   11   34 1    
    21   12   13 ar   
    22   12   35 1    
    23   13   14 ar   
    24   13   16 1    
    25   14   15 ar   
    26   14   36 1    
    27   15   37 1    
    28   16   17 2    
    29   16   27 1    
    30   17   18 1    
    31   18   19 am   BACKBONE|DICT|INTERRES
    32   18   38 1    
    33   19   20 2    
    34   19   21 1    
    35   21   23 1    
    36   21   22 1    
    37   21   26 1    
    38   22   23 1    
    39   22   39 1    
    40   22   40 1    
    41   23   24 1    
    42   23   25 1    
    43   26   41 1    
    44   26   42 1    
    45   26   43 1    
    46   27   44 1    
    47   27   45 1    
    48   27   46 1    
@<TRIPOS>SUBSTRUCTURE
     1 UNK         1 GROUP             0       ****    0 ROOT    
