@<TRIPOS>MOLECULE
ZINC38994919_2511
51   55    1
SMALL
USER_CHARGES


@<TRIPOS>ATOM
      1 C1         -3.2984   52.4282   17.3425 C.ar      1 UNK         0.0000 
      2 C2         -1.9076   52.4778   17.3236 C.ar      1 UNK         0.0000 
      3 C3         -1.1804   51.7815   18.2851 C.ar      1 UNK         0.0000 
      4 C4         -1.8354   51.0347   19.2752 C.ar      1 UNK         0.0000 
      5 C5         -3.2367   51.0121   19.2892 C.ar      1 UNK         0.0000 
      6 C6         -3.9662   51.6965   18.3208 C.ar      1 UNK         0.0000 
      7 C7         -1.0629   50.3065   20.3119 C.2       1 UNK         0.0000 
      8 C8         -1.4857   49.9288   21.5230 C.2       1 UNK         0.0000 
      9 C9         -0.2888   49.2507   22.1217 C.3       1 UNK         0.0000 
     10 H10        -0.5009   48.2067   22.3563 H         1 UNK         0.0000 
     11 N11         0.6750   49.2810   21.0542 N.2       1 UNK         0.0000 
     12 N12         0.1987   49.8943   20.0501 N.2       1 UNK         0.0000 
     13 C13         0.2808   49.9652   23.3738 C.3       1 UNK         0.0000 
     14 H14         1.2416   49.4966   23.6071 H         1 UNK         0.0000 
     15 N15         0.5292   51.3859   23.2214 N.3       1 UNK         0.0000 
     16 N16         0.7018   51.8610   24.5592 N.3       1 UNK         0.0000 
     17 C17        -0.2606   51.0999   25.3346 C.3       1 UNK         0.0000 
     18 H18        -1.1952   51.6614   25.3835 H         1 UNK         0.0000 
     19 N19        -0.5351   49.8772   24.5735 N.3       1 UNK         0.0000 
     20 N20        -0.5271   48.5960   25.2664 N.3       1 UNK         0.0000 
     21 S21         0.2860   50.8966   27.0521 S.3       1 UNK         0.0000 
     22 C22         0.1345   52.5623   27.7285 C.3       1 UNK         0.0000 
     23 C23         1.3014   52.8016   28.6715 C.ar      1 UNK         0.0000 
     24 C24         1.1536   52.4533   30.0137 C.ar      1 UNK         0.0000 
     25 C25         2.2323   52.4966   30.8819 C.ar      1 UNK         0.0000 
     26 C26         3.4824   52.9004   30.4299 C.ar      1 UNK         0.0000 
     27 C27         3.6725   53.3120   29.0855 C.ar      1 UNK         0.0000 
     28 C28         2.5652   53.2684   28.1793 C.ar      1 UNK         0.0000 
     29 C29         2.7889   53.6734   26.8293 C.ar      1 UNK         0.0000 
     30 C30         4.0435   54.0970   26.4043 C.ar      1 UNK         0.0000 
     31 C31         5.1100   54.1366   27.2902 C.ar      1 UNK         0.0000 
     32 C32         4.9368   53.7546   28.6147 C.ar      1 UNK         0.0000 
     33 H33        -3.8633   52.9600   16.5905 H         1 UNK         0.0000 
     34 H34        -1.3930   53.0471   16.5630 H         1 UNK         0.0000 
     35 H35        -0.1009   51.8285   18.2582 H         1 UNK         0.0000 
     36 H36        -3.7692   50.4471   20.0403 H         1 UNK         0.0000 
     37 H37        -5.0460   51.6592   18.3282 H         1 UNK         0.0000 
     38 H38        -2.4300   50.0856   22.0215 H         1 UNK         0.0000 
     39 H39         1.3657   51.6083   22.6982 H         1 UNK         0.0000 
     40 H40         1.5927   51.4695   24.8307 H         1 UNK         0.0000 
     41 H41         0.3297   48.5361   25.8027 H         1 UNK         0.0000 
     42 H42        -1.2936   48.6017   25.9317 H         1 UNK         0.0000 
     43 H43        -0.8164   52.6578   28.2528 H         1 UNK         0.0000 
     44 H44         0.0986   53.2965   26.9343 H         1 UNK         0.0000 
     45 H45         0.2006   52.0965   30.3813 H         1 UNK         0.0000 
     46 H46         2.0979   52.1994   31.9131 H         1 UNK         0.0000 
     47 H47         4.3045   52.9183   31.1248 H         1 UNK         0.0000 
     48 H48         1.9902   53.6567   26.1068 H         1 UNK         0.0000 
     49 H49         4.1901   54.3950   25.3762 H         1 UNK         0.0000 
     50 H50         6.0805   54.4653   26.9489 H         1 UNK         0.0000 
     51 H51         5.7820   53.7952   29.2816 H         1 UNK         0.0000 
@<TRIPOS>BOND
     1    1    6 ar   
     2    1    2 ar   
     3    1   33 1    
     4    2    3 ar   
     5    2   34 1    
     6    3    4 ar   
     7    3   35 1    
     8    4    5 ar   
     9    4    7 1    
    10    5    6 ar   
    11    5   36 1    
    12    6   37 1    
    13    7   12 1    
    14    7    8 2    
    15    8    9 1    
    16    8   38 1    
    17    9   10 1    
    18    9   11 1    
    19    9   13 1    
    20   11   12 2    
    21   13   14 1    
    22   13   19 1    
    23   13   15 1    
    24   15   16 1    
    25   15   39 1    
    26   16   17 1    
    27   16   40 1    
    28   17   18 1    
    29   17   19 1    
    30   17   21 1    
    31   19   20 1    
    32   20   41 1    
    33   20   42 1    
    34   21   22 1    
    35   22   23 1    
    36   22   43 1    
    37   22   44 1    
    38   23   28 ar   
    39   23   24 ar   
    40   24   25 ar   
    41   24   45 1    
    42   25   26 ar   
    43   25   46 1    
    44   26   27 ar   
    45   26   47 1    
    46   27   32 ar   
    47   27   28 ar   
    48   28   29 ar   
    49   29   30 ar   
    50   29   48 1    
    51   30   31 ar   
    52   30   49 1    
    53   31   32 ar   
    54   31   50 1    
    55   32   51 1    
@<TRIPOS>SUBSTRUCTURE
     1 UNK         1 GROUP             0       ****    0 ROOT    
