@<TRIPOS>MOLECULE
ZINC35697282_4629
63   67    1
SMALL
USER_CHARGES


@<TRIPOS>ATOM
      1 C1         -5.6989   53.0478   26.0825 C.3       1 UNK         0.0000 
      2 C2         -4.2849   52.5149   25.9507 C.ar      1 UNK         0.0000 
      3 C3         -3.5012   52.8968   24.8622 C.ar      1 UNK         0.0000 
      4 C4         -2.2021   52.4155   24.7433 C.ar      1 UNK         0.0000 
      5 C5         -1.6780   51.5517   25.7124 C.ar      1 UNK         0.0000 
      6 C6         -2.4663   51.1759   26.8034 C.ar      1 UNK         0.0000 
      7 C7         -3.7667   51.6557   26.9227 C.ar      1 UNK         0.0000 
      8 C8         -0.2456   51.0136   25.5754 C.3       1 UNK         0.0000 
      9 H9         -0.0474   50.3654   26.4319 H         1 UNK         0.0000 
     10 C10         0.8371   52.1429   25.5472 C.2       1 UNK         0.0000 
     11 C11         1.5059   52.4063   24.3778 C.2       1 UNK         0.0000 
     12 N12         1.2702   51.7256   23.2169 N.2       1 UNK         0.0000 
     13 C13         0.5626   50.6636   23.2607 C.2       1 UNK         0.0000 
     14 N14        -0.1082   50.1476   24.3667 N.pl3     1 UNK         0.0000 
     15 C15        -0.7904   48.9541   24.1475 C.2       1 UNK         0.0000 
     16 C16        -0.7666   48.5991   22.8492 C.2       1 UNK         0.0000 
     17 S17         0.1624   49.6961   21.8313 S.3       1 UNK         0.0000 
     18 C18        -1.4550   48.1870   25.1972 C.2       1 UNK         0.0000 
     19 C19        -2.0164   46.9612   25.1506 C.2       1 UNK         0.0000 
     20 O20        -2.1528   46.1244   24.1779 O.co2     1 UNK         0.0000 
     21 N21        -2.5407   46.4310   26.3098 N.pl3     1 UNK         0.0000 
     22 C22        -3.6843   45.5416   26.5170 C.3       1 UNK         0.0000 
     23 C23        -4.6815   46.0444   27.5616 C.ar      1 UNK         0.0000 
     24 C24        -4.3064   46.9229   28.6013 C.ar      1 UNK         0.0000 
     25 C25        -5.2244   47.3354   29.5759 C.ar      1 UNK         0.0000 
     26 C26        -6.5222   46.8517   29.4790 C.ar      1 UNK         0.0000 
     27 C27        -6.8977   45.9977   28.4816 C.ar      1 UNK         0.0000 
     28 C28        -6.0027   45.5673   27.5073 C.ar      1 UNK         0.0000 
     29 O29        -8.1947   45.6394   28.6617 O.3       1 UNK         0.0000 
     30 C30        -8.6774   46.4738   29.6830 C.3       1 UNK         0.0000 
     31 O31        -7.5712   47.0559   30.3172 O.3       1 UNK         0.0000 
     32 C32         2.5329   53.5118   24.1321 C.3       1 UNK         0.0000 
     33 C33         1.1041   52.8820   26.8103 C.2       1 UNK         0.0000 
     34 O34         2.0149   53.7026   26.9440 O.2       1 UNK         0.0000 
     35 O35         0.2431   52.5738   27.8195 O.3       1 UNK         0.0000 
     36 C36         0.2267   53.2980   29.0484 C.3       1 UNK         0.0000 
     37 C37         1.3191   52.8591   30.0070 C.2       1 UNK         0.0000 
     38 C38         1.1007   52.4968   31.2811 C.2       1 UNK         0.0000 
     39 H39        -5.7459   54.0913   25.7698 H         1 UNK         0.0000 
     40 H40        -6.3816   52.4738   25.4563 H         1 UNK         0.0000 
     41 H41        -6.0446   53.0096   27.1160 H         1 UNK         0.0000 
     42 H42        -3.8967   53.5618   24.1081 H         1 UNK         0.0000 
     43 H43        -1.5994   52.7120   23.8971 H         1 UNK         0.0000 
     44 H44        -2.0808   50.4976   27.5552 H         1 UNK         0.0000 
     45 H45        -4.3668   51.3522   27.7683 H         1 UNK         0.0000 
     46 H46        -1.2301   47.7254   22.4169 H         1 UNK         0.0000 
     47 H47        -1.4889   48.6719   26.1580 H         1 UNK         0.0000 
     48 H48        -2.1410   46.7811   27.1735 H         1 UNK         0.0000 
     49 H49        -4.1963   45.3481   25.5719 H         1 UNK         0.0000 
     50 H50        -3.3039   44.5874   26.8814 H         1 UNK         0.0000 
     51 H51        -3.2957   47.2957   28.6742 H         1 UNK         0.0000 
     52 H52        -4.9159   47.9985   30.3714 H         1 UNK         0.0000 
     53 H53        -6.3121   44.8756   26.7383 H         1 UNK         0.0000 
     54 H54        -9.2738   45.9031   30.3959 H         1 UNK         0.0000 
     55 H55        -9.2921   47.2621   29.2439 H         1 UNK         0.0000 
     56 H56         3.4690   53.2771   24.6408 H         1 UNK         0.0000 
     57 H57         2.7555   53.6662   23.0734 H         1 UNK         0.0000 
     58 H58         2.1682   54.4671   24.5114 H         1 UNK         0.0000 
     59 H59        -0.7453   53.1478   29.5187 H         1 UNK         0.0000 
     60 H60         0.3172   54.3708   28.8600 H         1 UNK         0.0000 
     61 H61         2.3254   52.8443   29.6109 H         1 UNK         0.0000 
     62 H62         0.1031   52.4957   31.7000 H         1 UNK         0.0000 
     63 H63         1.9096   52.1902   31.9285 H         1 UNK         0.0000 
@<TRIPOS>BOND
     1    1    2 1    
     2    1   39 1    
     3    1   40 1    
     4    1   41 1    
     5    2    7 ar   
     6    2    3 ar   
     7    3    4 ar   
     8    3   42 1    
     9    4    5 ar   
    10    4   43 1    
    11    5    6 ar   
    12    5    8 1    
    13    6    7 ar   
    14    6   44 1    
    15    7   45 1    
    16    8    9 1    
    17    8   14 1    
    18    8   10 1    
    19   10   11 2    
    20   10   33 1    
    21   11   12 1    
    22   11   32 1    
    23   12   13 2    
    24   13   17 1    
    25   13   14 1    
    26   14   15 1    
    27   15   16 2    
    28   15   18 1    
    29   16   17 1    
    30   16   46 1    
    31   18   19 2    
    32   18   47 1    
    33   19   20 1    
    34   19   21 1    
    35   21   22 1    
    36   21   48 1    
    37   22   23 1    
    38   22   49 1    
    39   22   50 1    
    40   23   28 ar   
    41   23   24 ar   
    42   24   25 ar   
    43   24   51 1    
    44   25   26 ar   
    45   25   52 1    
    46   26   31 1    
    47   26   27 ar   
    48   27   28 ar   
    49   27   29 1    
    50   28   53 1    
    51   29   30 1    
    52   30   31 1    
    53   30   54 1    
    54   30   55 1    
    55   32   56 1    
    56   32   57 1    
    57   32   58 1    
    58   33   34 2    
    59   33   35 1    
    60   35   36 1    
    61   36   37 1    
    62   36   59 1    
    63   36   60 1    
    64   37   38 2    
    65   37   61 1    
    66   38   62 1    
    67   38   63 1    
@<TRIPOS>SUBSTRUCTURE
     1 UNK         1 GROUP             0       ****    0 ROOT    
