@<TRIPOS>MOLECULE
ZINC35324910_1378
45   48    1
SMALL
USER_CHARGES


@<TRIPOS>ATOM
      1 C1          4.6453   54.4559   18.1744 C.3       1 UNK         0.0000 
      2 C2          5.5438   53.5377   19.0128 C.3       1 UNK         0.0000 
      3 N3          4.7971   52.4969   19.7024 N.pl3     1 UNK         0.0000 
      4 C4          4.0507   52.6313   20.8447 C.2       1 UNK         0.0000 
      5 N5          3.2566   51.6901   21.2899 N.2       1 UNK         0.0000 
      6 C6          2.6060   52.0958   22.3601 C.2       1 UNK         0.0000 
      7 C7          2.9311   53.3432   22.8822 C.2       1 UNK         0.0000 
      8 S8          4.0762   54.0910   21.8077 S.3       1 UNK         0.0000 
      9 C9          2.2267   53.8943   24.1238 C.3       1 UNK         0.0000 
     10 H10         2.1533   54.9794   24.0422 H         1 UNK         0.0000 
     11 C11         0.7689   53.3161   24.0232 C.3       1 UNK         0.0000 
     12 C12         0.7349   51.7671   23.8482 C.2       1 UNK         0.0000 
     13 O13        -0.0669   51.0315   24.4140 O.2       1 UNK         0.0000 
     14 N14         1.6188   51.3186   22.9279 N.am      1 UNK         0.0000 
     15 C15         2.9431   53.6967   25.4860 C.ar      1 UNK         0.0000 
     16 C16         2.2799   53.0332   26.5404 C.ar      1 UNK         0.0000 
     17 C17         2.9114   52.9110   27.7643 C.ar      1 UNK         0.0000 
     18 C18         4.1479   53.4301   27.9898 C.ar      1 UNK         0.0000 
     19 C19         4.8552   54.1028   26.9871 C.ar      1 UNK         0.0000 
     20 C20         4.2421   54.2277   25.7140 C.ar      1 UNK         0.0000 
     21 O21         4.8509   54.8965   24.6694 O.3       1 UNK         0.0000 
     22 C22         6.2519   54.7239   24.4582 C.3       1 UNK         0.0000 
     23 O23         6.0793   54.6910   27.2326 O.3       1 UNK         0.0000 
     24 C24         6.9947   54.0155   28.0823 C.3       1 UNK         0.0000 
     25 O25         4.5014   53.1577   29.2755 O.3       1 UNK         0.0000 
     26 C26         3.3792   52.5840   29.8831 C.3       1 UNK         0.0000 
     27 O27         2.4701   52.2614   28.8725 O.3       1 UNK         0.0000 
     28 H28         5.2372   55.2152   17.6629 H         1 UNK         0.0000 
     29 H29         4.1054   53.8911   17.4134 H         1 UNK         0.0000 
     30 H30         3.9106   54.9717   18.7939 H         1 UNK         0.0000 
     31 H31         6.2799   53.0531   18.3698 H         1 UNK         0.0000 
     32 H32         6.1139   54.1231   19.7354 H         1 UNK         0.0000 
     33 H33         4.7046   51.6497   19.1350 H         1 UNK         0.0000 
     34 H34         0.1439   53.5963   24.8678 H         1 UNK         0.0000 
     35 H35         0.2991   53.6967   23.1223 H         1 UNK         0.0000 
     36 H36         1.5842   50.3245   22.7613 H         1 UNK         0.0000 
     37 H37         1.3002   52.5982   26.4316 H         1 UNK         0.0000 
     38 H38         6.4853   54.9188   23.4113 H         1 UNK         0.0000 
     39 H39         6.8329   55.4370   25.0438 H         1 UNK         0.0000 
     40 H40         6.5879   53.7094   24.6841 H         1 UNK         0.0000 
     41 H41         7.9611   54.4965   27.9707 H         1 UNK         0.0000 
     42 H42         6.7242   54.0972   29.1335 H         1 UNK         0.0000 
     43 H43         7.1050   52.9621   27.8171 H         1 UNK         0.0000 
     44 H44         3.6737   51.6981   30.4432 H         1 UNK         0.0000 
     45 H45         2.9099   53.3079   30.5466 H         1 UNK         0.0000 
@<TRIPOS>BOND
     1    1    2 1    
     2    1   28 1    
     3    1   29 1    
     4    1   30 1    
     5    2    3 1    
     6    2   31 1    
     7    2   32 1    
     8    3    4 1    
     9    3   33 1    
    10    4    8 1    
    11    4    5 2    
    12    5    6 1    
    13    6   14 1    
    14    6    7 2    
    15    7    8 1    
    16    7    9 1    
    17    9   10 1    
    18    9   11 1    
    19    9   15 1    
    20   11   12 1    
    21   11   34 1    
    22   11   35 1    
    23   12   13 2    
    24   12   14 am   BACKBONE|DICT|INTERRES
    25   14   36 1    
    26   15   20 ar   
    27   15   16 ar   
    28   16   17 ar   
    29   16   37 1    
    30   17   27 1    
    31   17   18 ar   
    32   18   19 ar   
    33   18   25 1    
    34   19   20 ar   
    35   19   23 1    
    36   20   21 1    
    37   21   22 1    
    38   22   38 1    
    39   22   39 1    
    40   22   40 1    
    41   23   24 1    
    42   24   41 1    
    43   24   42 1    
    44   24   43 1    
    45   25   26 1    
    46   26   27 1    
    47   26   44 1    
    48   26   45 1    
@<TRIPOS>SUBSTRUCTURE
     1 UNK         1 GROUP             0       ****    0 ROOT    
