@<TRIPOS>MOLECULE
ZINC39688450_1300
66   69    1
SMALL
USER_CHARGES


@<TRIPOS>ATOM
      1 C1          1.9496   49.6327   20.1174 C.3       1 UNK         0.0000 
      2 C2          2.6515   50.8425   20.7680 C.3       1 UNK         0.0000 
      3 H3          3.6549   50.4991   21.0250 H         1 UNK         0.0000 
      4 C4          2.8385   52.0252   19.7753 C.3       1 UNK         0.0000 
      5 C5          3.9511   53.0231   20.1180 C.ar      1 UNK         0.0000 
      6 C6          4.8473   53.4124   19.1179 C.ar      1 UNK         0.0000 
      7 C7          5.8372   54.3549   19.3889 C.ar      1 UNK         0.0000 
      8 C8          5.9441   54.8965   20.6676 C.ar      1 UNK         0.0000 
      9 C9          5.0742   54.4970   21.6773 C.ar      1 UNK         0.0000 
     10 C10         4.0684   53.5773   21.3992 C.ar      1 UNK         0.0000 
     11 F11         6.9020   55.8129   20.9345 F         1 UNK         0.0000 
     12 N12         2.0349   51.2215   22.0480 N.am      1 UNK         0.0000 
     13 C13         0.7942   51.7110   22.2595 C.2       1 UNK         0.0000 
     14 O14        -0.0358   51.8310   21.3580 O.2       1 UNK         0.0000 
     15 C15         0.3852   52.1580   23.6900 C.3       1 UNK         0.0000 
     16 H16        -0.1654   53.0929   23.5640 H         1 UNK         0.0000 
     17 C17         1.6173   52.5058   24.5557 C.3       1 UNK         0.0000 
     18 N18         1.1040   52.4077   25.9245 N.am      1 UNK         0.0000 
     19 C19        -0.2100   51.7571   25.9420 C.3       1 UNK         0.0000 
     20 C20        -0.3930   51.1236   24.5398 C.3       1 UNK         0.0000 
     21 C21         0.2075   49.6867   24.4353 C.3       1 UNK         0.0000 
     22 C22        -0.3643   48.7263   25.4917 C.3       1 UNK         0.0000 
     23 N23        -1.9111   48.7281   25.4274 N.4       1 UNK         0.0000 
     24 C24        -2.6075   50.1036   25.2532 C.3       1 UNK         0.0000 
     25 C25        -1.8790   50.9307   24.1645 C.3       1 UNK         0.0000 
     26 C26         1.7611   52.9984   26.9616 C.2       1 UNK         0.0000 
     27 O27         2.8670   53.5186   26.7911 O.2       1 UNK         0.0000 
     28 C28         1.1146   53.0937   28.3356 C.ar      1 UNK         0.0000 
     29 C29         0.4901   51.9835   28.9262 C.ar      1 UNK         0.0000 
     30 C30        -0.1356   52.0968   30.1633 C.ar      1 UNK         0.0000 
     31 C31        -0.0673   53.2724   30.8859 C.ar      1 UNK         0.0000 
     32 C32         0.5943   54.3663   30.3504 C.ar      1 UNK         0.0000 
     33 C33         1.1740   54.3005   29.0702 C.ar      1 UNK         0.0000 
     34 O34         1.8009   55.3870   28.4950 O.3       1 UNK         0.0000 
     35 C35         1.7827   56.6339   29.1643 C.3       1 UNK         0.0000 
     36 H36         2.4325   49.3676   19.1744 H         1 UNK         0.0000 
     37 H37         2.0044   48.7489   20.7528 H         1 UNK         0.0000 
     38 H38         0.9065   49.8412   19.8821 H         1 UNK         0.0000 
     39 H39         1.9066   52.5769   19.6500 H         1 UNK         0.0000 
     40 H40         3.0661   51.6054   18.7922 H         1 UNK         0.0000 
     41 H41         4.7800   52.9882   18.1252 H         1 UNK         0.0000 
     42 H42         6.5243   54.6603   18.6137 H         1 UNK         0.0000 
     43 H43         5.1745   54.8975   22.6744 H         1 UNK         0.0000 
     44 H44         3.3802   53.3203   22.1856 H         1 UNK         0.0000 
     45 H45         2.6335   51.1188   22.8506 H         1 UNK         0.0000 
     46 H46         2.3804   51.7358   24.4711 H         1 UNK         0.0000 
     47 H47         2.0072   53.4933   24.2950 H         1 UNK         0.0000 
     48 H48        -0.9501   52.5504   26.0631 H         1 UNK         0.0000 
     49 H49        -0.4106   51.0455   26.7341 H         1 UNK         0.0000 
     50 H50         0.1091   49.2712   23.4309 H         1 UNK         0.0000 
     51 H51         1.2817   49.7168   24.6206 H         1 UNK         0.0000 
     52 H52        -0.0578   47.6964   25.2910 H         1 UNK         0.0000 
     53 H53        -0.0928   48.9756   26.5169 H         1 UNK         0.0000 
     54 H54        -2.1954   48.1259   24.6685 H         1 UNK         0.0000 
     55 H55        -3.6445   49.8862   24.9921 H         1 UNK         0.0000 
     56 H56        -2.5926   50.5737   26.2376 H         1 UNK         0.0000 
     57 H57        -2.3635   51.9083   24.1281 H         1 UNK         0.0000 
     58 H58        -1.9977   50.5127   23.1631 H         1 UNK         0.0000 
     59 H59         0.5002   51.0100   28.4631 H         1 UNK         0.0000 
     60 H60        -0.6530   51.2574   30.5987 H         1 UNK         0.0000 
     61 H61        -0.5002   53.3089   31.8745 H         1 UNK         0.0000 
     62 H62         0.6328   55.2631   30.9499 H         1 UNK         0.0000 
     63 H63         2.2832   57.3435   28.5189 H         1 UNK         0.0000 
     64 H64         0.7617   56.9740   29.3245 H         1 UNK         0.0000 
     65 H65         2.3045   56.6089   30.1205 H         1 UNK         0.0000 
     66 H66        -2.2406   48.2973   26.2873 H         1 UNK         0.0000 
@<TRIPOS>BOND
     1    1    2 1    
     2    1   36 1    
     3    1   37 1    
     4    1   38 1    
     5    2    3 1    
     6    2    4 1    
     7    2   12 1    
     8    4    5 1    
     9    4   39 1    
    10    4   40 1    
    11    5   10 ar   
    12    5    6 ar   
    13    6    7 ar   
    14    6   41 1    
    15    7    8 ar   
    16    7   42 1    
    17    8    9 ar   
    18    8   11 1    
    19    9   10 ar   
    20    9   43 1    
    21   10   44 1    
    22   12   13 am   BACKBONE|DICT|INTERRES
    23   12   45 1    
    24   13   14 2    
    25   13   15 1    
    26   15   16 1    
    27   15   20 1    
    28   15   17 1    
    29   17   18 1    
    30   17   46 1    
    31   17   47 1    
    32   18   19 1    
    33   18   26 am   BACKBONE|DICT|INTERRES
    34   19   20 1    
    35   19   48 1    
    36   19   49 1    
    37   20   25 1    
    38   20   21 1    
    39   21   22 1    
    40   21   50 1    
    41   21   51 1    
    42   22   23 1    
    43   22   52 1    
    44   22   53 1    
    45   23   24 1    
    46   23   54 1    
    47   23   66 1    
    48   24   25 1    
    49   24   55 1    
    50   24   56 1    
    51   25   57 1    
    52   25   58 1    
    53   26   27 2    
    54   26   28 1    
    55   28   33 ar   
    56   28   29 ar   
    57   29   30 ar   
    58   29   59 1    
    59   30   31 ar   
    60   30   60 1    
    61   31   32 ar   
    62   31   61 1    
    63   32   33 ar   
    64   32   62 1    
    65   33   34 1    
    66   34   35 1    
    67   35   63 1    
    68   35   64 1    
    69   35   65 1    
@<TRIPOS>SUBSTRUCTURE
     1 UNK         1 GROUP             0       ****    0 ROOT    
