@<TRIPOS>MOLECULE
ZINC10325894_4201
61   66    1
SMALL
USER_CHARGES


@<TRIPOS>ATOM
      1 C1          4.4066   49.2272   10.0892 C.3       1 UNK         0.0000 
      2 C2          4.6935   50.2223   11.1984 C.ar      1 UNK         0.0000 
      3 C3          5.0135   49.7673   12.4770 C.ar      1 UNK         0.0000 
      4 C4          5.2620   50.6820   13.4956 C.ar      1 UNK         0.0000 
      5 C5          5.1891   52.0593   13.2531 C.ar      1 UNK         0.0000 
      6 C6          4.8626   52.5055   11.9654 C.ar      1 UNK         0.0000 
      7 C7          4.6114   51.5915   10.9450 C.ar      1 UNK         0.0000 
      8 C8          5.5019   53.0397   14.3961 C.3       1 UNK         0.0000 
      9 H9          6.4642   52.6690   14.7615 H         1 UNK         0.0000 
     10 C10         4.5351   52.8873   15.5926 C.3       1 UNK         0.0000 
     11 C11         4.9982   53.7894   16.7331 C.2       1 UNK         0.0000 
     12 C12         5.7114   54.9452   16.5527 C.2       1 UNK         0.0000 
     13 C13         6.2010   55.8156   17.7669 C.3       1 UNK         0.0000 
     14 H14         5.6846   56.7726   17.6647 H         1 UNK         0.0000 
     15 C15         5.8008   55.1418   19.0944 C.ar      1 UNK         0.0000 
     16 C16         5.1365   53.9876   19.1143 C.ar      1 UNK         0.0000 
     17 N17         4.8941   53.5598   20.3862 N.pl3     1 UNK         0.0000 
     18 H18         5.1928   52.6608   20.7330 H         1 UNK         0.0000 
     19 N19         5.5187   54.4996   21.1951 N.pl3     1 UNK         0.0000 
     20 C20         6.0437   55.5236   20.4680 C.ar      1 UNK         0.0000 
     21 O21         6.5961   56.5465   20.8816 O.2       1 UNK         0.0000 
     22 C22         5.4141   54.4228   22.5969 C.ar      1 UNK         0.0000 
     23 C23         6.5334   54.6733   23.4020 C.ar      1 UNK         0.0000 
     24 C24         6.4156   54.6364   24.7881 C.ar      1 UNK         0.0000 
     25 C25         5.1815   54.3595   25.3705 C.ar      1 UNK         0.0000 
     26 C26         4.0657   54.0964   24.5787 C.ar      1 UNK         0.0000 
     27 C27         4.1831   54.1102   23.1909 C.ar      1 UNK         0.0000 
     28 N28         4.7658   53.2961   17.9990 N.pl3     1 UNK         0.0000 
     29 C29         7.6925   56.1854   17.7428 C.ar      1 UNK         0.0000 
     30 C30         8.6474   55.2055   17.4528 C.ar      1 UNK         0.0000 
     31 C31        10.0001   55.5296   17.4153 C.ar      1 UNK         0.0000 
     32 C32        10.4123   56.8336   17.6830 C.ar      1 UNK         0.0000 
     33 C33         9.4808   57.8334   18.0002 C.ar      1 UNK         0.0000 
     34 C34         8.1167   57.4949   18.0149 C.ar      1 UNK         0.0000 
     35 N35         9.9346   59.2091   18.3245 N.pl3     1 UNK         0.0000 
     36 O36         9.0967   60.0933   18.4823 O.co2     1 UNK         0.0000 
     37 O37        11.1390   59.4206   18.4356 O.co2     1 UNK         0.0000 
     38 C38         6.0032   55.4397   15.1857 C.2       1 UNK         0.0000 
     39 O39         6.3638   56.5975   14.9818 O.2       1 UNK         0.0000 
     40 C40         5.6648   54.5257   13.9927 C.3       1 UNK         0.0000 
     41 H41         3.6739   49.6282    9.3873 H         1 UNK         0.0000 
     42 H42         3.9822   48.3054   10.4902 H         1 UNK         0.0000 
     43 H43         5.3201   48.9878    9.5440 H         1 UNK         0.0000 
     44 H44         5.0701   48.7091   12.6878 H         1 UNK         0.0000 
     45 H45         5.5058   50.3114   14.4795 H         1 UNK         0.0000 
     46 H46         4.7989   53.5579   11.7377 H         1 UNK         0.0000 
     47 H47         4.3582   51.9502    9.9581 H         1 UNK         0.0000 
     48 H48         3.5086   53.1564   15.3417 H         1 UNK         0.0000 
     49 H49         4.5628   51.8387   15.8945 H         1 UNK         0.0000 
     50 H50         7.4913   54.9082   22.9582 H         1 UNK         0.0000 
     51 H51         7.2774   54.8298   25.4075 H         1 UNK         0.0000 
     52 H52         5.0909   54.3365   26.4466 H         1 UNK         0.0000 
     53 H53         3.1143   53.8745   25.0395 H         1 UNK         0.0000 
     54 H54         3.3105   53.9179   22.5820 H         1 UNK         0.0000 
     55 H55         4.4866   52.3256   18.0870 H         1 UNK         0.0000 
     56 H56         8.3397   54.1892   17.2529 H         1 UNK         0.0000 
     57 H57        10.7321   54.7675   17.1905 H         1 UNK         0.0000 
     58 H58        11.4705   57.0538   17.6657 H         1 UNK         0.0000 
     59 H59         7.3784   58.2501   18.2487 H         1 UNK         0.0000 
     60 H60         6.4403   54.6610   13.2389 H         1 UNK         0.0000 
     61 H61         4.7216   54.8842   13.5819 H         1 UNK         0.0000 
@<TRIPOS>BOND
     1    1    2 1    
     2    1   41 1    
     3    1   42 1    
     4    1   43 1    
     5    2    7 ar   
     6    2    3 ar   
     7    3    4 ar   
     8    3   44 1    
     9    4    5 ar   
    10    4   45 1    
    11    5    6 ar   
    12    5    8 1    
    13    6    7 ar   
    14    6   46 1    
    15    7   47 1    
    16    8    9 1    
    17    8   40 1    
    18    8   10 1    
    19   10   11 1    
    20   10   48 1    
    21   10   49 1    
    22   11   28 1    
    23   11   12 2    
    24   12   13 1    
    25   12   38 1    
    26   13   14 1    
    27   13   15 1    
    28   13   29 1    
    29   15   20 ar   
    30   15   16 ar   
    31   16   17 ar   
    32   16   28 1    
    33   17   18 1    
    34   17   19 1    
    35   19   20 ar   
    36   19   22 1    
    37   20   21 2    
    38   22   27 ar   
    39   22   23 ar   
    40   23   24 ar   
    41   23   50 1    
    42   24   25 ar   
    43   24   51 1    
    44   25   26 ar   
    45   25   52 1    
    46   26   27 ar   
    47   26   53 1    
    48   27   54 1    
    49   28   55 1    
    50   29   34 ar   
    51   29   30 ar   
    52   30   31 ar   
    53   30   56 1    
    54   31   32 ar   
    55   31   57 1    
    56   32   33 ar   
    57   32   58 1    
    58   33   34 ar   
    59   33   35 1    
    60   34   59 1    
    61   35   36 2    
    62   35   37 1    
    63   38   39 2    
    64   38   40 1    
    65   40   60 1    
    66   40   61 1    
@<TRIPOS>SUBSTRUCTURE
     1 UNK         1 GROUP             0       ****    0 ROOT    
