ZINC26804535_5991
                    3D
 Schrodinger Suite 2024-2.
 53 56  0  0  1  0            999 V2000
    8.8552   57.6485   17.0961 C   0  0  0  0  0  0
    8.1025   56.9446   18.2147 C   0  0  0  0  0  0
    8.8248   56.3274   19.2387 C   0  0  0  0  0  0
    8.1690   55.6965   20.2940 C   0  0  0  0  0  0
    6.7756   55.6457   20.3285 C   0  0  0  0  0  0
    6.0477   56.2534   19.2905 C   0  0  0  0  0  0
    6.6994   56.9149   18.2463 C   0  0  0  0  0  0
    5.8673   57.5976   17.1692 C   0  0  0  0  0  0
    6.1862   55.0462   21.4594 N   0  0  0  0  0  0
    4.9502   54.4964   21.5696 C   0  0  0  0  0  0
    4.2277   54.3648   20.5841 O   0  0  0  0  0  0
    4.4789   54.1455   22.9293 C   0  0  0  0  0  0
    5.2223   54.4648   24.0312 C   0  0  0  0  0  0
    4.8888   54.3376   25.4741 C   0  0  0  0  0  0
    5.9372   54.0966   26.3892 C   0  0  0  0  0  0
    5.7014   54.0142   27.7702 C   0  0  0  0  0  0
    4.3912   54.1652   28.2084 C   0  0  0  0  0  0
    3.3680   54.3964   27.3361 C   0  0  0  0  0  0
    3.5785   54.4967   25.9663 C   0  0  0  0  0  0
    2.2122   54.5690   28.0277 O   0  0  0  0  0  0
    2.5097   54.2330   29.3553 C   0  0  0  0  0  0
    3.9077   54.1779   29.4801 O   0  0  0  0  0  0
    3.2357   53.5621   23.0960 N   0  0  0  0  0  0
    2.7045   52.4761   22.4806 C   0  0  0  0  0  0
    3.2390   51.8900   21.5391 O   0  0  0  0  0  0
    1.3907   51.9849   23.0543 C   0  0  0  0  0  0
    0.4719   52.9120   23.5777 C   0  0  0  0  0  0
   -0.7442   52.4976   24.1153 C   0  0  0  0  0  0
   -1.0647   51.1445   24.1501 C   0  0  0  0  0  0
   -0.1684   50.2080   23.6420 C   0  0  0  0  0  0
    1.0503   50.6111   23.0897 C   0  0  0  0  0  0
    2.0795   49.3513   22.4821 Cl  0  0  0  0  0  0
   -2.5721   50.6321   24.8163 Cl  0  0  0  0  0  0
    8.6475   57.1655   16.1410 H   0  0  0  0  0  0
    8.5316   58.6869   17.0161 H   0  0  0  0  0  0
    9.9344   57.6467   17.2579 H   0  0  0  0  0  0
    9.9042   56.3562   19.2311 H   0  0  0  0  0  0
    8.7567   55.2594   21.0883 H   0  0  0  0  0  0
    4.9689   56.2473   19.2864 H   0  0  0  0  0  0
    6.0352   58.6763   17.1872 H   0  0  0  0  0  0
    6.1529   57.2348   16.1808 H   0  0  0  0  0  0
    4.7982   57.4188   17.2912 H   0  0  0  0  0  0
    6.8014   54.9484   22.2503 H   0  0  0  0  0  0
    6.1910   54.9238   23.8989 H   0  0  0  0  0  0
    6.9487   53.9741   26.0306 H   0  0  0  0  0  0
    6.5154   53.8513   28.4618 H   0  0  0  0  0  0
    2.7500   54.7341   25.3189 H   0  0  0  0  0  0
    2.0868   53.2496   29.5752 H   0  0  0  0  0  0
    2.0890   54.9808   30.0290 H   0  0  0  0  0  0
    2.8101   53.7447   23.9888 H   0  0  0  0  0  0
    0.6795   53.9731   23.5620 H   0  0  0  0  0  0
   -1.4369   53.2280   24.5065 H   0  0  0  0  0  0
   -0.4202   49.1572   23.6748 H   0  0  0  0  0  0
  1  2  1  0  0  0
  1 34  1  0  0  0
  1 35  1  0  0  0
  1 36  1  0  0  0
  2  7  2  0  0  0
  2  3  1  0  0  0
  3  4  2  0  0  0
  3 37  1  0  0  0
  4  5  1  0  0  0
  4 38  1  0  0  0
  5  6  2  0  0  0
  5  9  1  0  0  0
  6  7  1  0  0  0
  6 39  1  0  0  0
  7  8  1  0  0  0
  8 40  1  0  0  0
  8 41  1  0  0  0
  8 42  1  0  0  0
  9 10  1  0  0  0
  9 43  1  0  0  0
 10 11  2  0  0  0
 10 12  1  0  0  0
 12 13  2  0  0  0
 12 23  1  0  0  0
 13 14  1  0  0  0
 13 44  1  0  0  0
 14 19  2  0  0  0
 14 15  1  0  0  0
 15 16  2  0  0  0
 15 45  1  0  0  0
 16 17  1  0  0  0
 16 46  1  0  0  0
 17 22  1  0  0  0
 17 18  2  0  0  0
 18 19  1  0  0  0
 18 20  1  0  0  0
 19 47  1  0  0  0
 20 21  1  0  0  0
 21 22  1  0  0  0
 21 48  1  0  0  0
 21 49  1  0  0  0
 23 24  1  0  0  0
 23 50  1  0  0  0
 24 25  2  0  0  0
 24 26  1  0  0  0
 26 31  2  0  0  0
 26 27  1  0  0  0
 27 28  2  0  0  0
 27 51  1  0  0  0
 28 29  1  0  0  0
 28 52  1  0  0  0
 29 30  2  0  0  0
 29 33  1  0  0  0
 30 31  1  0  0  0
 30 53  1  0  0  0
 31 32  1  0  0  0
M  END
> <i_i_glide_confnum>
43

> <i_i_glide_lignum>
5992

> <i_i_glide_posenum>
333

> <i_i_glide_rotatable_bonds>
7

> <i_m_Source_File_Index>
213

> <b_m_subgroup_collapsed>
0

> <r_i_docking_score>
-5.18667

> <r_i_glide_ecoul>
1.12069

> <r_i_glide_eff_state_penalty>
0

> <r_i_glide_einternal>
7.93726

> <r_i_glide_emodel>
-52.5379

> <r_i_glide_energy>
-43.3887

> <r_i_glide_erotb>
0.434467

> <r_i_glide_esite>
0

> <r_i_glide_evdw>
-44.5094

> <r_i_glide_gscore>
-5.18667

> <r_i_glide_hbond>
0

> <r_i_glide_ligand_efficiency>
-0.157172

> <r_i_glide_ligand_efficiency_ln>
-1.15349

> <r_i_glide_ligand_efficiency_sa>
-0.504134

> <r_i_glide_lipo>
-2.99264

> <r_i_glide_metal>
0

> <r_i_glide_rewards>
-0.571133

> <s_i_glide_gridfile>
wee1_glide-grid

> <s_m_Source_File>
wee1_decoys_glide_SP.sdf

> <s_m_Source_Path>
/Users/zhangxujun/Desktop

> <s_m_entry_id>
488

> <s_m_entry_name>
wee1_decoys_glide_SP.213

> <s_m_subgroup_title>
wee1_decoys_glide_SP

> <s_m_subgroupid>
wee1_decoys_glide_SP


$$$$
