ZINC44577211_795
                    3D
 Schrodinger Suite 2024-2.
 54 56  0  0  1  0            999 V2000
    0.6239   51.3092   28.8770 C   0  0  0  0  0  0
    0.0258   52.4184   27.9991 C   0  0  0  0  0  0
    0.6531   53.7933   28.3242 C   0  0  0  0  0  0
    0.1570   52.1017   26.4910 C   0  0  0  0  0  0
   -0.3609   50.7209   25.9595 C   0  0  1  0  0  0
    0.0041   49.9205   26.6046 H   0  0  0  0  0  0
   -1.8883   50.5871   25.8782 C   0  0  0  0  0  0
   -2.5000   50.1858   24.8815 O   0  0  0  0  0  0
   -2.4799   50.9017   27.0496 O   0  0  0  0  0  0
   -3.8815   50.7570   27.2213 C   0  0  0  0  0  0
    0.2513   50.4522   24.6335 N   0  0  0  0  0  0
    0.2707   51.2793   23.5601 C   0  0  0  0  0  0
   -0.5843   52.1529   23.3929 O   0  0  0  0  0  0
    1.3629   51.1586   22.7561 N   0  0  0  0  0  0
    2.0813   49.8681   22.5554 C   0  0  0  0  0  0
    1.8024   49.2999   21.1322 C   0  0  0  0  0  0
    1.9777   50.4251   20.1332 C   0  0  0  0  0  0
    2.0108   51.7676   20.4880 C   0  0  0  0  0  0
    2.2451   52.4970   19.3355 N   0  3  0  0  0  0
    2.4473   51.6226   18.2898 C   0  0  0  0  0  0
    2.3050   50.3456   18.7889 N   0  0  0  0  0  0
    2.5021   49.4997   18.2652 H   0  0  0  0  0  0
    1.7902   52.3073   21.8998 C   0  0  2  0  0  0
    0.9832   53.0424   21.8669 H   0  0  0  0  0  0
    2.9647   53.0948   22.5140 C   0  0  0  0  0  0
    4.2568   53.0531   21.9634 C   0  0  0  0  0  0
    5.3156   53.7202   22.5825 C   0  0  0  0  0  0
    5.1071   54.4229   23.7668 C   0  0  0  0  0  0
    3.8259   54.4957   24.3082 C   0  0  0  0  0  0
    2.7596   53.8561   23.6773 C   0  0  0  0  0  0
    1.5266   53.9791   24.2150 F   0  0  0  0  0  0
    6.5631   55.3008   24.6269 Br  0  0  0  0  0  0
    0.8882   51.6748   29.8694 H   0  0  0  0  0  0
   -0.0967   50.5002   29.0058 H   0  0  0  0  0  0
    1.5247   50.8903   28.4288 H   0  0  0  0  0  0
   -1.0291   52.4965   28.2539 H   0  0  0  0  0  0
    1.4384   53.7259   29.0775 H   0  0  0  0  0  0
    1.1055   54.2561   27.4461 H   0  0  0  0  0  0
   -0.0954   54.4911   28.6996 H   0  0  0  0  0  0
   -0.3248   52.8968   25.9245 H   0  0  0  0  0  0
    1.2208   52.1762   26.2559 H   0  0  0  0  0  0
   -4.4328   51.3639   26.5017 H   0  0  0  0  0  0
   -4.1810   49.7146   27.1009 H   0  0  0  0  0  0
   -4.1635   51.0754   28.2247 H   0  0  0  0  0  0
    0.8404   49.6343   24.6084 H   0  0  0  0  0  0
    3.1418   50.0932   22.6516 H   0  0  0  0  0  0
    1.9044   49.1439   23.3486 H   0  0  0  0  0  0
    2.4682   48.4630   20.9181 H   0  0  0  0  0  0
    0.7878   48.9023   21.0877 H   0  0  0  0  0  0
    2.7414   51.8780   17.2800 H   0  0  0  0  0  0
    4.4618   52.4869   21.0665 H   0  0  0  0  0  0
    6.3044   53.6901   22.1528 H   0  0  0  0  0  0
    3.6514   55.0548   25.2149 H   0  0  0  0  0  0
    2.2989   53.5099   19.2929 H   0  0  0  0  0  0
  1  2  1  0  0  0
  1 33  1  0  0  0
  1 34  1  0  0  0
  1 35  1  0  0  0
  2  3  1  0  0  0
  2  4  1  0  0  0
  2 36  1  0  0  0
  3 37  1  0  0  0
  3 38  1  0  0  0
  3 39  1  0  0  0
  4  5  1  0  0  0
  4 40  1  0  0  0
  4 41  1  0  0  0
  5  6  1  0  0  0
  5  7  1  0  0  0
  5 11  1  0  0  0
  7  8  2  0  0  0
  7  9  1  0  0  0
  9 10  1  0  0  0
 10 42  1  0  0  0
 10 43  1  0  0  0
 10 44  1  0  0  0
 11 12  1  0  0  0
 11 45  1  0  0  0
 12 13  2  0  0  0
 12 14  1  0  0  0
 14 23  1  0  0  0
 14 15  1  0  0  0
 15 16  1  0  0  0
 15 46  1  0  0  0
 15 47  1  0  0  0
 16 17  1  0  0  0
 16 48  1  0  0  0
 16 49  1  0  0  0
 17 21  1  0  0  0
 17 18  2  0  0  0
 18 19  1  0  0  0
 18 23  1  0  0  0
 19 20  2  0  0  0
 19 54  1  0  0  0
 20 21  1  0  0  0
 20 50  1  0  0  0
 21 22  1  0  0  0
 23 24  1  0  0  0
 23 25  1  0  0  0
 25 30  2  0  0  0
 25 26  1  0  0  0
 26 27  2  0  0  0
 26 51  1  0  0  0
 27 28  1  0  0  0
 27 52  1  0  0  0
 28 29  2  0  0  0
 28 32  1  0  0  0
 29 30  1  0  0  0
 29 53  1  0  0  0
 30 31  1  0  0  0
M  CHG  1  19   1
M  END
> <i_i_glide_confnum>
77

> <i_i_glide_lignum>
796

> <i_i_glide_posenum>
191

> <i_i_glide_rotatable_bonds>
8

> <i_m_Source_File_Index>
988

> <b_m_subgroup_collapsed>
0

> <r_i_docking_score>
-4.89385

> <r_i_glide_ecoul>
-6.4505

> <r_i_glide_eff_state_penalty>
0

> <r_i_glide_einternal>
7.52819

> <r_i_glide_emodel>
-49.9089

> <r_i_glide_energy>
-39.2458

> <r_i_glide_erotb>
0.552266

> <r_i_glide_esite>
-0.246493

> <r_i_glide_evdw>
-32.7952

> <r_i_glide_gscore>
-4.89385

> <r_i_glide_hbond>
-0.0196497

> <r_i_glide_ligand_efficiency>
-0.168753

> <r_i_glide_ligand_efficiency_ln>
-1.12057

> <r_i_glide_ligand_efficiency_sa>
-0.518464

> <r_i_glide_lipo>
-1.90667

> <r_i_glide_metal>
0

> <r_i_glide_rewards>
-0.665968

> <s_i_glide_gridfile>
wee1_glide-grid

> <s_m_Source_File>
wee1_decoys_glide_SP.sdf

> <s_m_Source_Path>
/Users/zhangxujun/Desktop

> <s_m_entry_id>
1263

> <s_m_entry_name>
wee1_decoys_glide_SP.988

> <s_m_subgroup_title>
wee1_decoys_glide_SP

> <s_m_subgroupid>
wee1_decoys_glide_SP


$$$$
