@<TRIPOS>MOLECULE
ZINC32957704_3126
82   84    1
SMALL
USER_CHARGES


@<TRIPOS>ATOM
      1 C1         13.4518   60.0941   19.5281 C.3       1 UNK         0.0000 
      2 C2         13.3625   58.8251   18.6646 C.3       1 UNK         0.0000 
      3 C3         12.0320   58.6683   17.9067 C.3       1 UNK         0.0000 
      4 C4         10.8071   58.4929   18.8264 C.3       1 UNK         0.0000 
      5 N5          9.5522   58.2347   18.0799 N.pl3     1 UNK         0.0000 
      6 C6          9.0793   56.9772   17.7329 C.ar      1 UNK         0.0000 
      7 C7          7.8694   56.7834   17.1395 C.ar      1 UNK         0.0000 
      8 C8          7.0218   57.9362   16.8328 C.ar      1 UNK         0.0000 
      9 O9          5.9099   57.8918   16.3124 O.2       1 UNK         0.0000 
     10 N10         7.5823   59.1107   17.2182 N.pl3     1 UNK         0.0000 
     11 H11         7.0072   59.9352   17.0745 H         1 UNK         0.0000 
     12 C12         8.7843   59.3531   17.8194 C.ar      1 UNK         0.0000 
     13 O13         9.1051   60.5093   18.0828 O.2       1 UNK         0.0000 
     14 N14         7.4086   55.5037   16.9098 N.am      1 UNK         0.0000 
     15 C15         8.0266   54.7586   15.7918 C.3       1 UNK         0.0000 
     16 C16         7.0594   54.2224   14.7046 C.3       1 UNK         0.0000 
     17 C17         6.1520   55.3151   14.1081 C.3       1 UNK         0.0000 
     18 C18         7.8464   53.5010   13.5963 C.3       1 UNK         0.0000 
     19 C19         6.5700   54.8842   17.7905 C.2       1 UNK         0.0000 
     20 O20         6.3977   53.6651   17.7660 O.2       1 UNK         0.0000 
     21 C21         5.8534   55.7469   18.8717 C.3       1 UNK         0.0000 
     22 N22         5.3485   54.9621   20.0140 N.am      1 UNK         0.0000 
     23 C23         4.3049   54.1124   19.9362 C.2       1 UNK         0.0000 
     24 O24         3.5435   53.9447   18.9809 O.2       1 UNK         0.0000 
     25 C25         4.3271   53.3211   21.2407 C.3       1 UNK         0.0000 
     26 C26         4.6954   51.8559   20.8942 C.3       1 UNK         0.0000 
     27 C27         3.5206   51.0761   20.2889 C.3       1 UNK         0.0000 
     28 C28         2.3160   51.0176   21.2567 C.3       1 UNK         0.0000 
     29 C29         1.8437   52.4865   21.4442 C.3       1 UNK         0.0000 
     30 C30         2.9647   53.4016   21.9991 C.3       1 UNK         0.0000 
     31 C31         1.1857   50.0075   20.8132 C.3       1 UNK         0.0000 
     32 C32         0.5495   50.4261   19.4618 C.3       1 UNK         0.0000 
     33 C33         1.7799   48.5854   20.6168 C.3       1 UNK         0.0000 
     34 C34         0.0365   49.9230   21.8684 C.3       1 UNK         0.0000 
     35 C35         0.4327   49.4876   23.2936 C.3       1 UNK         0.0000 
     36 N36         5.3943   53.9995   21.9224 N.am      1 UNK         0.0000 
     37 C37         5.9670   54.9766   21.2179 C.2       1 UNK         0.0000 
     38 O38         6.7298   55.8329   21.6606 O.2       1 UNK         0.0000 
     39 N39         9.9117   55.9350   18.0818 N.pl3     1 UNK         0.0000 
     40 H40        14.4344   60.1765   19.9926 H         1 UNK         0.0000 
     41 H41        13.3001   60.9910   18.9258 H         1 UNK         0.0000 
     42 H42        12.7096   60.0970   20.3264 H         1 UNK         0.0000 
     43 H43        13.5342   57.9420   19.2817 H         1 UNK         0.0000 
     44 H44        14.1781   58.8386   17.9389 H         1 UNK         0.0000 
     45 H45        12.1121   57.8015   17.2488 H         1 UNK         0.0000 
     46 H46        11.8841   59.5328   17.2571 H         1 UNK         0.0000 
     47 H47        10.7177   59.3764   19.4605 H         1 UNK         0.0000 
     48 H48        10.9876   57.6966   19.5444 H         1 UNK         0.0000 
     49 H49         8.7544   55.4043   15.2984 H         1 UNK         0.0000 
     50 H50         8.6040   53.9305   16.2046 H         1 UNK         0.0000 
     51 H51         6.4135   53.4706   15.1627 H         1 UNK         0.0000 
     52 H52         6.7351   56.1377   13.6919 H         1 UNK         0.0000 
     53 H53         5.5224   54.9171   13.3106 H         1 UNK         0.0000 
     54 H54         5.4824   55.7276   14.8631 H         1 UNK         0.0000 
     55 H55         8.5170   54.1833   13.0720 H         1 UNK         0.0000 
     56 H56         8.4518   52.6902   14.0041 H         1 UNK         0.0000 
     57 H57         7.1773   53.0627   12.8548 H         1 UNK         0.0000 
     58 H58         5.0000   56.2238   18.3878 H         1 UNK         0.0000 
     59 H59         6.4959   56.5491   19.2314 H         1 UNK         0.0000 
     60 H60         5.1001   51.3614   21.7786 H         1 UNK         0.0000 
     61 H61         5.5645   51.8198   20.2328 H         1 UNK         0.0000 
     62 H62         3.9044   50.0961   20.0795 H         1 UNK         0.0000 
     63 H63         3.2319   51.4467   19.3054 H         1 UNK         0.0000 
     64 H64         2.7044   50.6760   22.2167 H         1 UNK         0.0000 
     65 H65         1.4619   52.8843   20.5040 H         1 UNK         0.0000 
     66 H66         0.9964   52.5299   22.1257 H         1 UNK         0.0000 
     67 H67         2.6354   54.4391   22.0827 H         1 UNK         0.0000 
     68 H68         3.1490   53.1656   23.0489 H         1 UNK         0.0000 
     69 H69         1.2859   50.4827   18.6587 H         1 UNK         0.0000 
     70 H70        -0.2077   49.7097   19.1404 H         1 UNK         0.0000 
     71 H71         0.0556   51.3960   19.5209 H         1 UNK         0.0000 
     72 H72         2.4195   48.5186   19.7348 H         1 UNK         0.0000 
     73 H73         2.3865   48.2792   21.4701 H         1 UNK         0.0000 
     74 H74         0.9975   47.8365   20.4803 H         1 UNK         0.0000 
     75 H75        -0.7208   49.2223   21.5121 H         1 UNK         0.0000 
     76 H76        -0.4885   50.8757   21.9283 H         1 UNK         0.0000 
     77 H77        -0.4453   49.4317   23.9368 H         1 UNK         0.0000 
     78 H78         1.1226   50.1896   23.7583 H         1 UNK         0.0000 
     79 H79         0.8975   48.5009   23.3044 H         1 UNK         0.0000 
     80 H80         5.8398   53.5802   22.7242 H         1 UNK         0.0000 
     81 H81         9.6555   54.9817   17.8693 H         1 UNK         0.0000 
     82 H82        10.6852   56.0634   18.7258 H         1 UNK         0.0000 
@<TRIPOS>BOND
     1    1    2 1    
     2    1   40 1    
     3    1   41 1    
     4    1   42 1    
     5    2    3 1    
     6    2   43 1    
     7    2   44 1    
     8    3    4 1    
     9    3   45 1    
    10    3   46 1    
    11    4    5 1    
    12    4   47 1    
    13    4   48 1    
    14    5   12 ar   
    15    5    6 ar   
    16    6    7 ar   
    17    6   39 1    
    18    7    8 ar   
    19    7   14 1    
    20    8    9 2    
    21    8   10 ar   
    22   10   11 1    
    23   10   12 ar   
    24   12   13 2    
    25   14   15 1    
    26   14   19 am   BACKBONE|DICT|INTERRES
    27   15   16 1    
    28   15   49 1    
    29   15   50 1    
    30   16   17 1    
    31   16   18 1    
    32   16   51 1    
    33   17   52 1    
    34   17   53 1    
    35   17   54 1    
    36   18   55 1    
    37   18   56 1    
    38   18   57 1    
    39   19   20 2    
    40   19   21 1    
    41   21   22 1    
    42   21   58 1    
    43   21   59 1    
    44   22   37 am   BACKBONE|DICT|INTERRES
    45   22   23 am   BACKBONE|DICT|INTERRES
    46   23   24 2    
    47   23   25 1    
    48   25   30 1    
    49   25   26 1    
    50   25   36 1    
    51   26   27 1    
    52   26   60 1    
    53   26   61 1    
    54   27   28 1    
    55   27   62 1    
    56   27   63 1    
    57   28   29 1    
    58   28   31 1    
    59   28   64 1    
    60   29   30 1    
    61   29   65 1    
    62   29   66 1    
    63   30   67 1    
    64   30   68 1    
    65   31   32 1    
    66   31   33 1    
    67   31   34 1    
    68   32   69 1    
    69   32   70 1    
    70   32   71 1    
    71   33   72 1    
    72   33   73 1    
    73   33   74 1    
    74   34   35 1    
    75   34   75 1    
    76   34   76 1    
    77   35   77 1    
    78   35   78 1    
    79   35   79 1    
    80   36   37 am   BACKBONE|DICT|INTERRES
    81   36   80 1    
    82   37   38 2    
    83   39   81 1    
    84   39   82 1    
@<TRIPOS>SUBSTRUCTURE
     1 UNK         1 GROUP             0       ****    0 ROOT    
