@<TRIPOS>MOLECULE
ZINC22707748_4558
59   62    1
SMALL
USER_CHARGES


@<TRIPOS>ATOM
      1 C1          3.7517   52.9742   28.7098 C.3       1 UNK         0.0000 
      2 C2          2.7848   53.6256   27.6830 C.3       1 UNK         0.0000 
      3 C3          1.5918   52.6442   27.5209 C.3       1 UNK         0.0000 
      4 C4          2.2455   54.9401   28.2918 C.3       1 UNK         0.0000 
      5 C5          3.5097   53.9169   26.3366 C.ar      1 UNK         0.0000 
      6 C6          2.8929   53.6962   25.0935 C.ar      1 UNK         0.0000 
      7 C7          3.5805   53.9073   23.8974 C.ar      1 UNK         0.0000 
      8 C8          4.9140   54.3488   23.9075 C.ar      1 UNK         0.0000 
      9 C9          5.5162   54.6039   25.1475 C.ar      1 UNK         0.0000 
     10 C10         4.8248   54.4013   26.3375 C.ar      1 UNK         0.0000 
     11 C11         5.7124   54.5776   22.6335 C.2       1 UNK         0.0000 
     12 O12         6.8981   54.8949   22.7166 O.2       1 UNK         0.0000 
     13 N13         5.0496   54.4708   21.4574 N.am      1 UNK         0.0000 
     14 C14         5.5070   54.7370   20.1449 C.ar      1 UNK         0.0000 
     15 C15         6.8467   54.9612   19.7839 C.ar      1 UNK         0.0000 
     16 C16         7.1868   55.2563   18.4649 C.ar      1 UNK         0.0000 
     17 C17         6.1980   55.3318   17.4864 C.ar      1 UNK         0.0000 
     18 C18         4.8632   55.0886   17.8130 C.ar      1 UNK         0.0000 
     19 C19         4.5307   54.7915   19.1463 C.ar      1 UNK         0.0000 
     20 N20         3.9201   55.2151   16.7711 N.pl3     1 UNK         0.0000 
     21 C21         2.6355   54.7673   16.6601 C.2       1 UNK         0.0000 
     22 S22         1.6849   55.4935   15.4944 S.2       1 UNK         0.0000 
     23 N23         2.3030   53.7018   17.4553 N.am      1 UNK         0.0000 
     24 C24         1.1108   53.2351   17.8938 C.2       1 UNK         0.0000 
     25 O25        -0.0085   53.5219   17.4606 O.2       1 UNK         0.0000 
     26 C26         1.2757   52.4262   19.0683 C.2       1 UNK         0.0000 
     27 C27         2.2650   51.5056   19.4209 C.2       1 UNK         0.0000 
     28 C28         1.9441   51.0702   20.7410 C.ar      1 UNK         0.0000 
     29 C29         2.5241   50.2205   21.6904 C.ar      1 UNK         0.0000 
     30 C30         1.8959   50.0748   22.9309 C.ar      1 UNK         0.0000 
     31 C31         0.7028   50.7357   23.2298 C.ar      1 UNK         0.0000 
     32 C32         0.0867   51.5718   22.2974 C.ar      1 UNK         0.0000 
     33 C33         0.7311   51.7211   21.0634 C.ar      1 UNK         0.0000 
     34 O34         0.3039   52.4967   20.0271 O.3       1 UNK         0.0000 
     35 H35         3.2277   52.6503   29.6104 H         1 UNK         0.0000 
     36 H36         4.5304   53.6597   29.0452 H         1 UNK         0.0000 
     37 H37         4.2453   52.0972   28.2927 H         1 UNK         0.0000 
     38 H38         0.7891   53.0653   26.9144 H         1 UNK         0.0000 
     39 H39         1.9000   51.7040   27.0628 H         1 UNK         0.0000 
     40 H40         1.1424   52.3942   28.4830 H         1 UNK         0.0000 
     41 H41         1.4506   55.3654   27.6823 H         1 UNK         0.0000 
     42 H42         1.8194   54.7763   29.2827 H         1 UNK         0.0000 
     43 H43         3.0242   55.6961   28.3997 H         1 UNK         0.0000 
     44 H44         1.8771   53.3398   25.0290 H         1 UNK         0.0000 
     45 H45         3.0582   53.7010   22.9745 H         1 UNK         0.0000 
     46 H46         6.5350   54.9617   25.2032 H         1 UNK         0.0000 
     47 H47         5.3362   54.6142   27.2632 H         1 UNK         0.0000 
     48 H48         4.0731   54.2318   21.5207 H         1 UNK         0.0000 
     49 H49         7.6512   54.9057   20.4991 H         1 UNK         0.0000 
     50 H50         8.2205   55.4288   18.2020 H         1 UNK         0.0000 
     51 H51         6.4805   55.5714   16.4711 H         1 UNK         0.0000 
     52 H52         3.5047   54.6508   19.4369 H         1 UNK         0.0000 
     53 H53         4.2132   55.8468   16.0395 H         1 UNK         0.0000 
     54 H54         3.0962   53.2466   17.8821 H         1 UNK         0.0000 
     55 H55         3.1218   51.2168   18.8219 H         1 UNK         0.0000 
     56 H56         3.4390   49.6965   21.4639 H         1 UNK         0.0000 
     57 H57         2.3333   49.4280   23.6782 H         1 UNK         0.0000 
     58 H58         0.2480   50.5874   24.1999 H         1 UNK         0.0000 
     59 H59        -0.8383   52.0826   22.5173 H         1 UNK         0.0000 
@<TRIPOS>BOND
     1    1    2 1    
     2    1   35 1    
     3    1   36 1    
     4    1   37 1    
     5    2    3 1    
     6    2    4 1    
     7    2    5 1    
     8    3   38 1    
     9    3   39 1    
    10    3   40 1    
    11    4   41 1    
    12    4   42 1    
    13    4   43 1    
    14    5   10 ar   
    15    5    6 ar   
    16    6    7 ar   
    17    6   44 1    
    18    7    8 ar   
    19    7   45 1    
    20    8    9 ar   
    21    8   11 1    
    22    9   10 ar   
    23    9   46 1    
    24   10   47 1    
    25   11   12 2    
    26   11   13 am   BACKBONE|DICT|INTERRES
    27   13   14 1    
    28   13   48 1    
    29   14   19 ar   
    30   14   15 ar   
    31   15   16 ar   
    32   15   49 1    
    33   16   17 ar   
    34   16   50 1    
    35   17   18 ar   
    36   17   51 1    
    37   18   19 ar   
    38   18   20 1    
    39   19   52 1    
    40   20   21 1    
    41   20   53 1    
    42   21   22 2    
    43   21   23 am   BACKBONE|DICT|INTERRES
    44   23   24 am   BACKBONE|DICT|INTERRES
    45   23   54 1    
    46   24   25 2    
    47   24   26 1    
    48   26   34 1    
    49   26   27 2    
    50   27   28 1    
    51   27   55 1    
    52   28   33 ar   
    53   28   29 ar   
    54   29   30 ar   
    55   29   56 1    
    56   30   31 ar   
    57   30   57 1    
    58   31   32 ar   
    59   31   58 1    
    60   32   33 ar   
    61   32   59 1    
    62   33   34 1    
@<TRIPOS>SUBSTRUCTURE
     1 UNK         1 GROUP             0       ****    0 ROOT    
