ZINC27569784_2272
                    3D
 Schrodinger Suite 2024-2.
 56 58  0  0  1  0            999 V2000
    2.5862   52.3310   22.0439 C   0  0  0  0  0  0
    1.8033   51.2710   22.8477 C   0  0  0  0  0  0
    1.3874   50.1373   22.3848 N   0  0  0  0  0  0
    1.6243   49.8011   21.1364 N   0  0  0  0  0  0
    0.9042   50.2750   20.1805 C   0  0  0  0  0  0
   -0.2430   51.0124   20.2807 N   0  0  0  0  0  0
   -1.1233   51.5006   19.3820 C   0  0  0  0  0  0
   -2.1292   52.0964   19.7613 O   0  0  0  0  0  0
   -0.8272   51.2205   17.8877 C   0  0  0  0  0  0
    0.6883   51.1461   17.5452 C   0  0  2  0  0  0
    0.8313   50.8790   16.4986 H   0  0  0  0  0  0
    1.5050   49.8582   18.5373 S   0  0  0  0  0  0
    1.4242   52.5150   17.6729 C   0  0  0  0  0  0
    0.7468   53.5451   17.6727 O   0  0  0  0  0  0
    2.7760   52.5195   17.7573 N   0  0  0  0  0  0
    3.6169   53.6423   17.8934 C   0  0  0  0  0  0
    3.3250   54.9003   17.3407 C   0  0  0  0  0  0
    4.2016   55.9665   17.5287 C   0  0  0  0  0  0
    5.3756   55.7750   18.2500 C   0  0  0  0  0  0
    5.6879   54.5244   18.7782 C   0  0  0  0  0  0
    4.8090   53.4591   18.5966 C   0  0  0  0  0  0
    1.5069   51.5438   24.2323 C   0  0  0  0  0  0
    1.8376   52.6557   24.9273 C   0  0  0  0  0  0
    1.5808   52.8981   26.3625 C   0  0  0  0  0  0
    0.7046   52.1165   27.1228 C   0  0  0  0  0  0
    0.5010   52.4010   28.4707 C   0  0  0  0  0  0
    1.1562   53.4768   29.0886 C   0  0  0  0  0  0
    2.0500   54.2354   28.3226 C   0  0  0  0  0  0
    2.2684   53.9423   26.9814 C   0  0  0  0  0  0
    0.9418   53.7948   30.4560 N   0  0  0  0  0  0
    0.9897   55.1983   30.8674 C   0  0  0  0  0  0
    0.1539   52.8929   31.2940 C   0  0  0  0  0  0
    3.3159   52.8698   22.6490 H   0  0  0  0  0  0
    3.1662   51.8844   21.2334 H   0  0  0  0  0  0
    1.9088   53.0592   21.5958 H   0  0  0  0  0  0
   -0.5171   51.2134   21.2289 H   0  0  0  0  0  0
   -1.2999   50.2690   17.6493 H   0  0  0  0  0  0
   -1.3298   51.9807   17.2903 H   0  0  0  0  0  0
    3.2406   51.6194   17.8231 H   0  0  0  0  0  0
    2.4258   55.0645   16.7677 H   0  0  0  0  0  0
    3.9746   56.9372   17.1122 H   0  0  0  0  0  0
    6.0553   56.6029   18.3928 H   0  0  0  0  0  0
    6.6089   54.3812   19.3217 H   0  0  0  0  0  0
    5.0605   52.4949   19.0093 H   0  0  0  0  0  0
    0.9921   50.7359   24.7350 H   0  0  0  0  0  0
    2.3373   53.4697   24.4218 H   0  0  0  0  0  0
    0.1659   51.2897   26.6848 H   0  0  0  0  0  0
   -0.1920   51.7776   29.0154 H   0  0  0  0  0  0
    2.5975   55.0551   28.7584 H   0  0  0  0  0  0
    2.9695   54.5460   26.4234 H   0  0  0  0  0  0
    1.9770   55.6369   30.7294 H   0  0  0  0  0  0
    0.7041   55.3157   31.9129 H   0  0  0  0  0  0
    0.3057   55.7961   30.2707 H   0  0  0  0  0  0
    0.5098   51.8663   31.1987 H   0  0  0  0  0  0
    0.2122   53.1626   32.3502 H   0  0  0  0  0  0
   -0.8952   52.8989   30.9992 H   0  0  0  0  0  0
  1  2  1  0  0  0
  1 33  1  0  0  0
  1 34  1  0  0  0
  1 35  1  0  0  0
  2  3  2  0  0  0
  2 22  1  0  0  0
  3  4  1  0  0  0
  4  5  2  0  0  0
  5 12  1  0  0  0
  5  6  1  0  0  0
  6  7  1  0  0  0
  6 36  1  0  0  0
  7  8  2  0  0  0
  7  9  1  0  0  0
  9 10  1  0  0  0
  9 37  1  0  0  0
  9 38  1  0  0  0
 10 11  1  0  0  0
 10 12  1  0  0  0
 10 13  1  0  0  0
 13 14  2  0  0  0
 13 15  1  0  0  0
 15 16  1  0  0  0
 15 39  1  0  0  0
 16 21  2  0  0  0
 16 17  1  0  0  0
 17 18  2  0  0  0
 17 40  1  0  0  0
 18 19  1  0  0  0
 18 41  1  0  0  0
 19 20  2  0  0  0
 19 42  1  0  0  0
 20 21  1  0  0  0
 20 43  1  0  0  0
 21 44  1  0  0  0
 22 23  2  0  0  0
 22 45  1  0  0  0
 23 24  1  0  0  0
 23 46  1  0  0  0
 24 29  2  0  0  0
 24 25  1  0  0  0
 25 26  2  0  0  0
 25 47  1  0  0  0
 26 27  1  0  0  0
 26 48  1  0  0  0
 27 28  2  0  0  0
 27 30  1  0  0  0
 28 29  1  0  0  0
 28 49  1  0  0  0
 29 50  1  0  0  0
 30 31  1  0  0  0
 30 32  1  0  0  0
 31 51  1  0  0  0
 31 52  1  0  0  0
 31 53  1  0  0  0
 32 54  1  0  0  0
 32 55  1  0  0  0
 32 56  1  0  0  0
M  END
> <i_i_glide_confnum>
195

> <i_i_glide_lignum>
2273

> <i_i_glide_posenum>
316

> <i_i_glide_rotatable_bonds>
7

> <i_m_Source_File_Index>
4154

> <b_m_subgroup_collapsed>
0

> <r_i_docking_score>
-4.73349

> <r_i_glide_ecoul>
-5.43986

> <r_i_glide_eff_state_penalty>
0

> <r_i_glide_einternal>
7.71139

> <r_i_glide_emodel>
-49.7484

> <r_i_glide_energy>
-41.3386

> <r_i_glide_erotb>
0.63022

> <r_i_glide_esite>
-0.0855372

> <r_i_glide_evdw>
-35.8988

> <r_i_glide_gscore>
-4.73349

> <r_i_glide_hbond>
-0.32

> <r_i_glide_ligand_efficiency>
-0.152693

> <r_i_glide_ligand_efficiency_ln>
-1.06755

> <r_i_glide_ligand_efficiency_sa>
-0.479668

> <r_i_glide_lipo>
-1.68719

> <r_i_glide_metal>
0

> <r_i_glide_rewards>
-0.660072

> <s_i_glide_gridfile>
wee1_glide-grid

> <s_m_Source_File>
wee1_decoys_glide_SP.sdf

> <s_m_Source_Path>
/Users/zhangxujun/Desktop

> <s_m_entry_id>
4429

> <s_m_entry_name>
wee1_decoys_glide_SP.4154

> <s_m_subgroup_title>
wee1_decoys_glide_SP

> <s_m_subgroupid>
wee1_decoys_glide_SP


$$$$
