@<TRIPOS>MOLECULE
ZINC09601196_924
61   64    1
SMALL
USER_CHARGES


@<TRIPOS>ATOM
      1 C1          2.5327   51.5068   17.7593 C.3       1 UNK         0.0000 
      2 C2          1.8224   51.4807   19.0977 C.ar      1 UNK         0.0000 
      3 C3          0.5446   52.0194   19.2072 C.ar      1 UNK         0.0000 
      4 C4         -0.0813   52.0629   20.4465 C.ar      1 UNK         0.0000 
      5 C5          0.5613   51.5845   21.5937 C.ar      1 UNK         0.0000 
      6 C6          1.8367   51.0149   21.4683 C.ar      1 UNK         0.0000 
      7 C7          2.4630   50.9611   20.2230 C.ar      1 UNK         0.0000 
      8 C8         -0.1311   51.7202   22.9210 C.2       1 UNK         0.0000 
      9 C9         -1.4946   51.9867   23.0876 C.2       1 UNK         0.0000 
     10 S10        -1.8929   52.1002   24.7641 S.3       1 UNK         0.0000 
     11 C11        -0.2194   51.7614   25.1269 C.2       1 UNK         0.0000 
     12 N12         0.5355   51.5955   24.0645 N.2       1 UNK         0.0000 
     13 N13         0.3000   51.6363   26.4157 N.am      1 UNK         0.0000 
     14 C14        -0.3689   51.7758   27.5831 C.2       1 UNK         0.0000 
     15 O15        -1.5517   52.0908   27.6781 O.2       1 UNK         0.0000 
     16 C16         0.4035   51.4977   28.8717 C.3       1 UNK         0.0000 
     17 S17         0.8042   52.9974   29.8276 S.3       1 UNK         0.0000 
     18 C18         2.5285   53.0363   29.4744 C.ar      1 UNK         0.0000 
     19 N19         3.3768   52.1271   29.8851 N.2       1 UNK         0.0000 
     20 N20         4.6130   52.4387   29.3389 N.2       1 UNK         0.0000 
     21 C21         4.4798   53.5447   28.6500 C.ar      1 UNK         0.0000 
     22 N22         3.1687   53.9741   28.6930 N.pl3     1 UNK         0.0000 
     23 C23         2.5777   55.1288   28.0366 C.3       1 UNK         0.0000 
     24 C24         5.5983   54.2247   27.8648 C.3       1 UNK         0.0000 
     25 H25         5.6061   55.2897   28.1204 H         1 UNK         0.0000 
     26 C26         7.0069   53.6966   28.2191 C.3       1 UNK         0.0000 
     27 N27         5.3274   54.0741   26.4348 N.am      1 UNK         0.0000 
     28 C28         5.8817   54.8107   25.4608 C.2       1 UNK         0.0000 
     29 O29         6.7059   55.6968   25.6817 O.2       1 UNK         0.0000 
     30 C30         5.4360   54.5070   24.0561 C.ar      1 UNK         0.0000 
     31 C31         6.3239   54.7229   22.9960 C.ar      1 UNK         0.0000 
     32 C32         5.9044   54.5434   21.6838 C.ar      1 UNK         0.0000 
     33 C33         4.6023   54.1308   21.4181 C.ar      1 UNK         0.0000 
     34 C34         3.7088   53.9062   22.4665 C.ar      1 UNK         0.0000 
     35 C35         4.1230   54.0958   23.7818 C.ar      1 UNK         0.0000 
     36 C36         4.1682   53.9552   19.9775 C.3       1 UNK         0.0000 
     37 H37         2.7016   50.4966   17.4023 H         1 UNK         0.0000 
     38 H38         3.5122   51.9733   17.8547 H         1 UNK         0.0000 
     39 H39         1.9768   52.0560   16.9994 H         1 UNK         0.0000 
     40 H40         0.0425   52.4225   18.3398 H         1 UNK         0.0000 
     41 H41        -1.0662   52.4961   20.5028 H         1 UNK         0.0000 
     42 H42         2.3560   50.6269   22.3328 H         1 UNK         0.0000 
     43 H43         3.4560   50.5424   20.1327 H         1 UNK         0.0000 
     44 H44        -2.2630   52.1116   22.3421 H         1 UNK         0.0000 
     45 H45         1.2755   51.3883   26.4730 H         1 UNK         0.0000 
     46 H46        -0.2516   50.8963   29.5019 H         1 UNK         0.0000 
     47 H47         1.2905   50.8965   28.6752 H         1 UNK         0.0000 
     48 H48         3.0672   55.2967   27.0783 H         1 UNK         0.0000 
     49 H49         1.5117   54.9657   27.8687 H         1 UNK         0.0000 
     50 H50         2.7027   56.0046   28.6741 H         1 UNK         0.0000 
     51 H51         7.2208   53.8169   29.2808 H         1 UNK         0.0000 
     52 H52         7.1166   52.6403   27.9708 H         1 UNK         0.0000 
     53 H53         7.7783   54.2445   27.6795 H         1 UNK         0.0000 
     54 H54         4.8928   53.2065   26.1582 H         1 UNK         0.0000 
     55 H55         7.3375   55.0533   23.1812 H         1 UNK         0.0000 
     56 H56         6.5908   54.7298   20.8705 H         1 UNK         0.0000 
     57 H57         2.6908   53.6086   22.2650 H         1 UNK         0.0000 
     58 H58         3.4061   53.9467   24.5766 H         1 UNK         0.0000 
     59 H59         4.3421   54.8706   19.4107 H         1 UNK         0.0000 
     60 H60         4.7475   53.1607   19.5051 H         1 UNK         0.0000 
     61 H61         3.1089   53.7132   19.8992 H         1 UNK         0.0000 
@<TRIPOS>BOND
     1    1    2 1    
     2    1   37 1    
     3    1   38 1    
     4    1   39 1    
     5    2    7 ar   
     6    2    3 ar   
     7    3    4 ar   
     8    3   40 1    
     9    4    5 ar   
    10    4   41 1    
    11    5    6 ar   
    12    5    8 1    
    13    6    7 ar   
    14    6   42 1    
    15    7   43 1    
    16    8   12 1    
    17    8    9 2    
    18    9   10 1    
    19    9   44 1    
    20   10   11 1    
    21   11   12 2    
    22   11   13 am   BACKBONE|DICT|INTERRES
    23   13   14 am   BACKBONE|DICT|INTERRES
    24   13   45 1    
    25   14   15 2    
    26   14   16 1    
    27   16   17 1    
    28   16   46 1    
    29   16   47 1    
    30   17   18 1    
    31   18   22 ar   
    32   18   19 ar   
    33   19   20 ar   
    34   20   21 ar   
    35   21   22 ar   
    36   21   24 1    
    37   22   23 1    
    38   23   48 1    
    39   23   49 1    
    40   23   50 1    
    41   24   25 1    
    42   24   26 1    
    43   24   27 1    
    44   26   51 1    
    45   26   52 1    
    46   26   53 1    
    47   27   28 am   BACKBONE|DICT|INTERRES
    48   27   54 1    
    49   28   29 2    
    50   28   30 1    
    51   30   35 ar   
    52   30   31 ar   
    53   31   32 ar   
    54   31   55 1    
    55   32   33 ar   
    56   32   56 1    
    57   33   34 ar   
    58   33   36 1    
    59   34   35 ar   
    60   34   57 1    
    61   35   58 1    
    62   36   59 1    
    63   36   60 1    
    64   36   61 1    
@<TRIPOS>SUBSTRUCTURE
     1 UNK         1 GROUP             0       ****    0 ROOT    
