@<TRIPOS>MOLECULE
ZINC19104012_1524
37   40    1
SMALL
USER_CHARGES


@<TRIPOS>ATOM
      1 C1          4.9925   54.6733   21.2361 C.ar      1 UNK         0.0000 
      2 C2          6.3058   54.8967   21.6290 C.ar      1 UNK         0.0000 
      3 C3          6.6383   54.8324   22.9771 C.ar      1 UNK         0.0000 
      4 C4          5.6810   54.5023   23.9309 C.ar      1 UNK         0.0000 
      5 C5          4.3462   54.2381   23.5459 C.ar      1 UNK         0.0000 
      6 C6          4.0154   54.3956   22.1908 C.ar      1 UNK         0.0000 
      7 N7          3.3853   53.9166   24.5428 N.pl3     1 UNK         0.0000 
      8 C8          3.7746   54.3128   25.9076 C.3       1 UNK         0.0000 
      9 C9          5.2397   53.9179   26.1628 C.3       1 UNK         0.0000 
     10 H10         5.3569   52.8504   26.0816 H         1 UNK         0.0000 
     11 O11         6.1076   54.5805   25.2446 O.3       1 UNK         0.0000 
     12 C12         5.7149   54.2171   27.5979 C.2       1 UNK         0.0000 
     13 O13         4.9285   54.5093   28.4957 O.2       1 UNK         0.0000 
     14 N14         7.0157   54.0956   27.8481 N.am      1 UNK         0.0000 
     15 S15         1.6826   53.4113   24.2465 S.o2      1 UNK         0.0000 
     16 O16         1.1036   53.2743   25.5844 O.2       1 UNK         0.0000 
     17 O17         1.1143   54.3763   23.3005 O.2       1 UNK         0.0000 
     18 C18         1.6091   51.7848   23.4314 C.ar      1 UNK         0.0000 
     19 C19         2.1260   51.6188   22.1366 C.ar      1 UNK         0.0000 
     20 C20         1.9644   50.4472   21.4025 C.ar      1 UNK         0.0000 
     21 C21         1.2412   49.3742   21.9090 C.ar      1 UNK         0.0000 
     22 C22         0.7061   49.4986   23.1960 C.ar      1 UNK         0.0000 
     23 C23         0.8922   50.6789   23.9546 C.ar      1 UNK         0.0000 
     24 N24         0.3039   50.6377   25.1745 N.2       1 UNK         0.0000 
     25 S25        -0.4170   49.1357   25.2826 S.3       1 UNK         0.0000 
     26 N26        -0.0303   48.5256   23.7808 N.2       1 UNK         0.0000 
     27 H27         4.7161   54.7713   20.1960 H         1 UNK         0.0000 
     28 H28         7.0573   55.1520   20.8963 H         1 UNK         0.0000 
     29 H29         7.6314   55.0718   23.2922 H         1 UNK         0.0000 
     30 H30         2.9973   54.3567   21.8453 H         1 UNK         0.0000 
     31 H31         3.1239   53.8501   26.6500 H         1 UNK         0.0000 
     32 H32         3.6240   55.3867   26.0212 H         1 UNK         0.0000 
     33 H33         7.6439   53.7716   27.1295 H         1 UNK         0.0000 
     34 H34         7.3565   54.3431   28.7681 H         1 UNK         0.0000 
     35 H35         2.6446   52.4040   21.6294 H         1 UNK         0.0000 
     36 H36         2.3828   50.3841   20.4073 H         1 UNK         0.0000 
     37 H37         1.0887   48.4942   21.3086 H         1 UNK         0.0000 
@<TRIPOS>BOND
     1    1    6 ar   
     2    1    2 ar   
     3    1   27 1    
     4    2    3 ar   
     5    2   28 1    
     6    3    4 ar   
     7    3   29 1    
     8    4   11 1    
     9    4    5 ar   
    10    5    6 ar   
    11    5    7 1    
    12    6   30 1    
    13    7    8 1    
    14    7   15 1    
    15    8    9 1    
    16    8   31 1    
    17    8   32 1    
    18    9   10 1    
    19    9   11 1    
    20    9   12 1    
    21   12   13 2    
    22   12   14 am   BACKBONE|DICT|INTERRES
    23   14   33 1    
    24   14   34 1    
    25   15   16 2    
    26   15   17 2    
    27   15   18 1    
    28   18   23 ar   
    29   18   19 ar   
    30   19   20 ar   
    31   19   35 1    
    32   20   21 ar   
    33   20   36 1    
    34   21   22 ar   
    35   21   37 1    
    36   22   26 2    
    37   22   23 ar   
    38   23   24 2    
    39   24   25 1    
    40   25   26 1    
@<TRIPOS>SUBSTRUCTURE
     1 UNK         1 GROUP             0       ****    0 ROOT    
