ZINC14667004_2960
                    3D
 Schrodinger Suite 2024-2.
 50 51  0  0  1  0            999 V2000
   -2.3952   52.7171   23.6327 C   0  0  0  0  0  0
   -1.4343   51.9524   24.5301 C   0  0  0  0  0  0
   -1.4239   52.2143   25.9053 C   0  0  0  0  0  0
   -0.5481   51.5344   26.7484 C   0  0  0  0  0  0
    0.3045   50.5688   26.2236 C   0  0  0  0  0  0
    0.3046   50.3024   24.8550 C   0  0  0  0  0  0
   -0.5588   50.9958   23.9879 C   0  0  0  0  0  0
   -0.6127   50.7830   22.6168 O   0  0  0  0  0  0
    0.3124   49.8933   21.9765 C   0  0  0  0  0  0
    1.6860   50.5591   21.7947 C   0  0  0  0  0  0
    2.7044   49.9314   22.0915 O   0  0  0  0  0  0
    1.6868   51.8096   21.2857 N   0  0  0  0  0  0
    2.8903   52.4973   21.1035 N   0  0  0  0  0  0
    3.3700   53.2907   22.0911 C   0  0  0  0  0  0
    2.8126   53.4396   23.1813 O   0  0  0  0  0  0
    4.6379   54.0514   21.7561 C   0  0  0  0  0  0
    4.8514   54.4966   20.4393 C   0  0  0  0  0  0
    5.9795   55.2390   20.1047 C   0  0  0  0  0  0
    6.9247   55.5412   21.0750 C   0  0  0  0  0  0
    6.7341   55.1149   22.3844 C   0  0  0  0  0  0
    5.5912   54.3768   22.7490 C   0  0  0  0  0  0
    5.3811   53.9440   24.0466 O   0  0  0  0  0  0
    6.1620   54.4804   25.1098 C   0  0  0  0  0  0
    5.6242   53.9765   26.4654 C   0  0  0  0  0  0
    6.4263   54.5703   27.6356 C   0  0  0  0  0  0
    4.1155   54.2323   26.6433 C   0  0  0  0  0  0
    6.2187   55.8516   18.3218 Br  0  0  0  0  0  0
   -0.4958   51.9387   28.6078 Br  0  0  0  0  0  0
   -3.0419   53.3965   24.1911 H   0  0  0  0  0  0
   -1.8373   53.2948   22.8967 H   0  0  0  0  0  0
   -3.0274   52.0207   23.0826 H   0  0  0  0  0  0
   -2.0886   52.9561   26.3246 H   0  0  0  0  0  0
    0.9686   50.0254   26.8805 H   0  0  0  0  0  0
    0.9960   49.5555   24.4956 H   0  0  0  0  0  0
   -0.0793   49.6426   20.9908 H   0  0  0  0  0  0
    0.3905   48.9368   22.4962 H   0  0  0  0  0  0
    0.8694   52.3363   21.0099 H   0  0  0  0  0  0
    3.4274   52.1614   20.3180 H   0  0  0  0  0  0
    4.1281   54.2965   19.6608 H   0  0  0  0  0  0
    7.8141   56.0964   20.8110 H   0  0  0  0  0  0
    7.5032   55.3612   23.1005 H   0  0  0  0  0  0
    6.1323   55.5733   25.0837 H   0  0  0  0  0  0
    7.2014   54.1689   24.9904 H   0  0  0  0  0  0
    5.7709   52.8966   26.4836 H   0  0  0  0  0  0
    6.3082   55.6531   27.6814 H   0  0  0  0  0  0
    7.4906   54.3514   27.5471 H   0  0  0  0  0  0
    6.0917   54.1653   28.5919 H   0  0  0  0  0  0
    3.8848   55.2972   26.6074 H   0  0  0  0  0  0
    3.5313   53.7429   25.8637 H   0  0  0  0  0  0
    3.7581   53.8453   27.5990 H   0  0  0  0  0  0
  1  2  1  0  0  0
  1 29  1  0  0  0
  1 30  1  0  0  0
  1 31  1  0  0  0
  2  7  2  0  0  0
  2  3  1  0  0  0
  3  4  2  0  0  0
  3 32  1  0  0  0
  4  5  1  0  0  0
  4 28  1  0  0  0
  5  6  2  0  0  0
  5 33  1  0  0  0
  6  7  1  0  0  0
  6 34  1  0  0  0
  7  8  1  0  0  0
  8  9  1  0  0  0
  9 10  1  0  0  0
  9 35  1  0  0  0
  9 36  1  0  0  0
 10 11  2  0  0  0
 10 12  1  0  0  0
 12 13  1  0  0  0
 12 37  1  0  0  0
 13 14  1  0  0  0
 13 38  1  0  0  0
 14 15  2  0  0  0
 14 16  1  0  0  0
 16 21  2  0  0  0
 16 17  1  0  0  0
 17 18  2  0  0  0
 17 39  1  0  0  0
 18 19  1  0  0  0
 18 27  1  0  0  0
 19 20  2  0  0  0
 19 40  1  0  0  0
 20 21  1  0  0  0
 20 41  1  0  0  0
 21 22  1  0  0  0
 22 23  1  0  0  0
 23 24  1  0  0  0
 23 42  1  0  0  0
 23 43  1  0  0  0
 24 25  1  0  0  0
 24 26  1  0  0  0
 24 44  1  0  0  0
 25 45  1  0  0  0
 25 46  1  0  0  0
 25 47  1  0  0  0
 26 48  1  0  0  0
 26 49  1  0  0  0
 26 50  1  0  0  0
M  END
> <i_i_glide_confnum>
141

> <i_i_glide_lignum>
2961

> <i_i_glide_posenum>
223

> <i_i_glide_rotatable_bonds>
10

> <i_m_Source_File_Index>
61

> <b_m_subgroup_collapsed>
0

> <r_i_docking_score>
-4.01342

> <r_i_glide_ecoul>
-0.834663

> <r_i_glide_eff_state_penalty>
0

> <r_i_glide_einternal>
3.32571

> <r_i_glide_emodel>
-53.7984

> <r_i_glide_energy>
-43.8534

> <r_i_glide_erotb>
0.69816

> <r_i_glide_esite>
-0.00714797

> <r_i_glide_evdw>
-43.0187

> <r_i_glide_gscore>
-4.01342

> <r_i_glide_hbond>
0

> <r_i_glide_ligand_efficiency>
-0.143336

> <r_i_glide_ligand_efficiency_ln>
-0.926414

> <r_i_glide_ligand_efficiency_sa>
-0.435253

> <r_i_glide_lipo>
-2.11164

> <r_i_glide_metal>
0

> <r_i_glide_rewards>
-0.316652

> <s_i_glide_gridfile>
wee1_glide-grid

> <s_m_Source_File>
wee1_decoys_glide_SP.sdf

> <s_m_Source_Path>
/Users/zhangxujun/Desktop

> <s_m_entry_id>
336

> <s_m_entry_name>
wee1_decoys_glide_SP.61

> <s_m_subgroup_title>
wee1_decoys_glide_SP

> <s_m_subgroupid>
wee1_decoys_glide_SP


$$$$
