@<TRIPOS>MOLECULE
ZINC18180816_1201
62   66    1
SMALL
USER_CHARGES


@<TRIPOS>ATOM
      1 C1          4.9441   54.5440   28.8795 C.3       1 UNK         0.0000 
      2 C2          4.9007   54.4735   27.3647 C.ar      1 UNK         0.0000 
      3 C3          6.0613   54.6428   26.6076 C.ar      1 UNK         0.0000 
      4 C4          6.0049   54.5583   25.2159 C.ar      1 UNK         0.0000 
      5 C5          4.7855   54.2949   24.5719 C.ar      1 UNK         0.0000 
      6 C6          3.6263   54.1503   25.3473 C.ar      1 UNK         0.0000 
      7 C7          3.6822   54.2395   26.7327 C.ar      1 UNK         0.0000 
      8 C8          4.7137   54.0951   23.1073 C.2       1 UNK         0.0000 
      9 N9          3.6786   53.7423   22.4655 N.2       1 UNK         0.0000 
     10 N10         4.0024   53.4474   21.1699 N.pl3     1 UNK         0.0000 
     11 C11         5.3765   53.8350   20.8217 C.3       1 UNK         0.0000 
     12 H12         5.8576   52.9160   20.4890 H         1 UNK         0.0000 
     13 C13         5.9045   54.2570   22.1989 C.3       1 UNK         0.0000 
     14 C14         5.5596   54.8685   19.7009 C.ar      1 UNK         0.0000 
     15 C15         4.4990   55.2788   18.8817 C.ar      1 UNK         0.0000 
     16 C16         4.7035   56.2400   17.8959 C.ar      1 UNK         0.0000 
     17 C17         5.9722   56.7842   17.7132 C.ar      1 UNK         0.0000 
     18 C18         7.0411   56.3639   18.5007 C.ar      1 UNK         0.0000 
     19 C19         6.8353   55.4042   19.4876 C.ar      1 UNK         0.0000 
     20 Cl20        6.2221   57.9864   16.5013 Cl        1 UNK         0.0000 
     21 C21         3.1553   52.6997   20.4220 C.2       1 UNK         0.0000 
     22 N22         3.5044   52.0967   19.2832 N.pl3     1 UNK         0.0000 
     23 S23         1.4713   52.4937   20.8691 S.3       1 UNK         0.0000 
     24 C24         1.5739   51.4487   22.3639 C.3       1 UNK         0.0000 
     25 H25         2.6113   51.4600   22.6938 H         1 UNK         0.0000 
     26 C26         1.1386   50.0232   22.1865 C.3       1 UNK         0.0000 
     27 C27         0.2679   49.7489   23.3992 C.2       1 UNK         0.0000 
     28 O28        -0.1729   48.6344   23.6814 O.2       1 UNK         0.0000 
     29 N29         0.0871   50.9186   24.0778 N.am      1 UNK         0.0000 
     30 C30         0.7038   51.9783   23.4876 C.2       1 UNK         0.0000 
     31 O31         0.6107   53.1673   23.8000 O.2       1 UNK         0.0000 
     32 C32        -0.6766   51.0392   25.2623 C.ar      1 UNK         0.0000 
     33 C33        -2.0182   50.6323   25.2942 C.ar      1 UNK         0.0000 
     34 C34        -2.7643   50.7653   26.4651 C.ar      1 UNK         0.0000 
     35 C35        -2.1776   51.2967   27.6133 C.ar      1 UNK         0.0000 
     36 C36        -0.8398   51.6979   27.5989 C.ar      1 UNK         0.0000 
     37 C37        -0.0953   51.5742   26.4236 C.ar      1 UNK         0.0000 
     38 C38        -0.1881   52.2500   28.8533 C.3       1 UNK         0.0000 
     39 H39         4.1799   55.2310   29.2452 H         1 UNK         0.0000 
     40 H40         5.9044   54.8969   29.2518 H         1 UNK         0.0000 
     41 H41         4.7377   53.5621   29.3055 H         1 UNK         0.0000 
     42 H42         7.0054   54.8252   27.1003 H         1 UNK         0.0000 
     43 H43         6.9227   54.6728   24.6568 H         1 UNK         0.0000 
     44 H44         2.6716   53.9538   24.8857 H         1 UNK         0.0000 
     45 H45         2.7786   54.1144   27.3111 H         1 UNK         0.0000 
     46 H46         6.2510   55.2917   22.2166 H         1 UNK         0.0000 
     47 H47         6.7122   53.6065   22.5252 H         1 UNK         0.0000 
     48 H48         3.5044   54.8793   19.0134 H         1 UNK         0.0000 
     49 H49         3.8789   56.5678   17.2795 H         1 UNK         0.0000 
     50 H50         8.0266   56.7797   18.3462 H         1 UNK         0.0000 
     51 H51         7.6726   55.0857   20.0918 H         1 UNK         0.0000 
     52 H52         2.8138   51.5784   18.7581 H         1 UNK         0.0000 
     53 H53         0.5527   49.8616   21.2803 H         1 UNK         0.0000 
     54 H54         1.9823   49.3302   22.1903 H         1 UNK         0.0000 
     55 H55        -2.4854   50.2091   24.4165 H         1 UNK         0.0000 
     56 H56        -3.7926   50.4365   26.4900 H         1 UNK         0.0000 
     57 H57        -2.7574   51.3637   28.5222 H         1 UNK         0.0000 
     58 H58         0.9401   51.8844   26.4187 H         1 UNK         0.0000 
     59 H59        -0.8948   52.3420   29.6800 H         1 UNK         0.0000 
     60 H60         0.6262   51.5957   29.1681 H         1 UNK         0.0000 
     61 H61         0.2373   53.2346   28.6561 H         1 UNK         0.0000 
     62 H62         4.4684   52.0157   18.9718 H         1 UNK         0.0000 
@<TRIPOS>BOND
     1    1    2 1    
     2    1   39 1    
     3    1   40 1    
     4    1   41 1    
     5    2    7 ar   
     6    2    3 ar   
     7    3    4 ar   
     8    3   42 1    
     9    4    5 ar   
    10    4   43 1    
    11    5    6 ar   
    12    5    8 1    
    13    6    7 ar   
    14    6   44 1    
    15    7   45 1    
    16    8   13 1    
    17    8    9 2    
    18    9   10 1    
    19   10   11 1    
    20   10   21 1    
    21   11   12 1    
    22   11   13 1    
    23   11   14 1    
    24   13   46 1    
    25   13   47 1    
    26   14   19 ar   
    27   14   15 ar   
    28   15   16 ar   
    29   15   48 1    
    30   16   17 ar   
    31   16   49 1    
    32   17   18 ar   
    33   17   20 1    
    34   18   19 ar   
    35   18   50 1    
    36   19   51 1    
    37   21   22 2    
    38   21   23 1    
    39   22   52 1    
    40   22   62 1    
    41   23   24 1    
    42   24   25 1    
    43   24   30 1    
    44   24   26 1    
    45   26   27 1    
    46   26   53 1    
    47   26   54 1    
    48   27   28 2    
    49   27   29 am   BACKBONE|DICT|INTERRES
    50   29   30 am   BACKBONE|DICT|INTERRES
    51   29   32 1    
    52   30   31 2    
    53   32   37 ar   
    54   32   33 ar   
    55   33   34 ar   
    56   33   55 1    
    57   34   35 ar   
    58   34   56 1    
    59   35   36 ar   
    60   35   57 1    
    61   36   37 ar   
    62   36   38 1    
    63   37   58 1    
    64   38   59 1    
    65   38   60 1    
    66   38   61 1    
@<TRIPOS>SUBSTRUCTURE
     1 UNK         1 GROUP             0       ****    0 ROOT    
