@<TRIPOS>MOLECULE
ZINC59660416_5221
72   76    1
SMALL
USER_CHARGES


@<TRIPOS>ATOM
      1 C1          5.2145   58.0093   14.2109 C.3       1 UNK         0.0000 
      2 C2          4.6801   57.0776   15.3147 C.3       1 UNK         0.0000 
      3 N3          5.5640   57.1291   16.5845 N.4       1 UNK         0.0000 
      4 C4          5.4668   58.4985   17.3047 C.3       1 UNK         0.0000 
      5 C5          6.4531   58.5945   18.4838 C.3       1 UNK         0.0000 
      6 C6          5.3845   55.9600   17.4934 C.ar      1 UNK         0.0000 
      7 C7          6.5359   55.3566   17.9886 C.ar      1 UNK         0.0000 
      8 C8          6.4043   54.3002   18.8840 C.ar      1 UNK         0.0000 
      9 C9          5.1387   53.8442   19.2721 C.ar      1 UNK         0.0000 
     10 C10         3.9950   54.4392   18.7295 C.ar      1 UNK         0.0000 
     11 C11         4.1081   55.5131   17.8472 C.ar      1 UNK         0.0000 
     12 C12         5.0352   52.6937   20.2825 C.3       1 UNK         0.0000 
     13 H13         5.9053   52.0704   20.0854 H         1 UNK         0.0000 
     14 C14         5.0817   53.1521   21.7699 C.3       1 UNK         0.0000 
     15 H15         5.2474   52.2227   22.3251 H         1 UNK         0.0000 
     16 C16         6.1126   54.1395   22.3301 C.3       1 UNK         0.0000 
     17 C17         5.4457   54.4963   23.6486 C.2       1 UNK         0.0000 
     18 C18         4.1277   54.2200   23.6040 C.2       1 UNK         0.0000 
     19 C19         3.7626   53.7668   22.2032 C.3       1 UNK         0.0000 
     20 H20         3.5012   54.6335   21.5900 H         1 UNK         0.0000 
     21 C21         2.6594   52.7425   22.0039 C.ar      1 UNK         0.0000 
     22 C22         1.5094   52.7483   22.7955 C.ar      1 UNK         0.0000 
     23 C23         0.4951   51.8108   22.6116 C.ar      1 UNK         0.0000 
     24 C24         0.6327   50.8389   21.6166 C.ar      1 UNK         0.0000 
     25 C25         1.7606   50.8412   20.7907 C.ar      1 UNK         0.0000 
     26 C26         2.7653   51.7964   20.9606 C.ar      1 UNK         0.0000 
     27 N27         3.8931   51.7712   20.1009 N.pl3     1 UNK         0.0000 
     28 S28        -0.9751   51.8977   23.6453 S.o2      1 UNK         0.0000 
     29 O29        -2.0453   51.2086   22.9154 O.2       1 UNK         0.0000 
     30 O30        -1.1315   53.2950   24.0616 O.2       1 UNK         0.0000 
     31 N31        -0.6282   50.9439   25.1196 N.pl3     1 UNK         0.0000 
     32 C32        -0.6828   49.4838   25.0373 C.3       1 UNK         0.0000 
     33 C33         0.7046   48.8484   24.9566 C.3       1 UNK         0.0000 
     34 C34        -0.2316   51.5322   26.3371 C.ar      1 UNK         0.0000 
     35 C35        -0.9714   51.2964   27.5008 C.ar      1 UNK         0.0000 
     36 C36        -0.5665   51.8486   28.7123 C.ar      1 UNK         0.0000 
     37 C37         0.5750   52.6454   28.7602 C.ar      1 UNK         0.0000 
     38 C38         1.3198   52.8883   27.6099 C.ar      1 UNK         0.0000 
     39 C39         0.9196   52.3295   26.3991 C.ar      1 UNK         0.0000 
     40 H40         4.6828   57.8348   13.2748 H         1 UNK         0.0000 
     41 H41         5.0771   59.0634   14.4566 H         1 UNK         0.0000 
     42 H42         6.2755   57.8403   14.0177 H         1 UNK         0.0000 
     43 H43         4.7157   56.0346   14.9881 H         1 UNK         0.0000 
     44 H44         3.6582   57.3198   15.6193 H         1 UNK         0.0000 
     45 H45         5.6822   59.2732   16.5668 H         1 UNK         0.0000 
     46 H46         4.4270   58.5928   17.6194 H         1 UNK         0.0000 
     47 H47         6.4058   59.5842   18.9355 H         1 UNK         0.0000 
     48 H48         6.2158   57.8764   19.2675 H         1 UNK         0.0000 
     49 H49         7.4803   58.4280   18.1620 H         1 UNK         0.0000 
     50 H50         7.5207   55.7051   17.7107 H         1 UNK         0.0000 
     51 H51         7.2960   53.8381   19.2828 H         1 UNK         0.0000 
     52 H52         3.0173   54.0673   19.0070 H         1 UNK         0.0000 
     53 H53         3.2127   55.9784   17.4619 H         1 UNK         0.0000 
     54 H54         7.0907   53.6990   22.5003 H         1 UNK         0.0000 
     55 H55         6.2651   55.0063   21.6843 H         1 UNK         0.0000 
     56 H56         5.9906   54.9128   24.4837 H         1 UNK         0.0000 
     57 H57         3.3994   54.4011   24.3796 H         1 UNK         0.0000 
     58 H58         1.3909   53.5124   23.5491 H         1 UNK         0.0000 
     59 H59        -0.1433   50.1035   21.4664 H         1 UNK         0.0000 
     60 H60         1.8485   50.1027   20.0061 H         1 UNK         0.0000 
     61 H61         4.0031   51.1161   19.3293 H         1 UNK         0.0000 
     62 H62        -1.2123   49.0773   25.9011 H         1 UNK         0.0000 
     63 H63        -1.2443   49.1867   24.1496 H         1 UNK         0.0000 
     64 H64         0.6276   47.7799   24.7602 H         1 UNK         0.0000 
     65 H65         1.3146   49.2914   24.1680 H         1 UNK         0.0000 
     66 H66         1.2392   48.9591   25.9016 H         1 UNK         0.0000 
     67 H67        -1.8487   50.6633   27.4781 H         1 UNK         0.0000 
     68 H68        -1.1319   51.6426   29.6115 H         1 UNK         0.0000 
     69 H69         0.8897   53.0673   29.7024 H         1 UNK         0.0000 
     70 H70         2.2136   53.4949   27.6589 H         1 UNK         0.0000 
     71 H71         1.5211   52.4945   25.5216 H         1 UNK         0.0000 
     72 H72         6.5051   57.0911   16.2213 H         1 UNK         0.0000 
@<TRIPOS>BOND
     1    1    2 1    
     2    1   40 1    
     3    1   41 1    
     4    1   42 1    
     5    2    3 1    
     6    2   43 1    
     7    2   44 1    
     8    3    4 1    
     9    3    6 1    
    10    3   72 1    
    11    4    5 1    
    12    4   45 1    
    13    4   46 1    
    14    5   47 1    
    15    5   48 1    
    16    5   49 1    
    17    6   11 ar   
    18    6    7 ar   
    19    7    8 ar   
    20    7   50 1    
    21    8    9 ar   
    22    8   51 1    
    23    9   10 ar   
    24    9   12 1    
    25   10   11 ar   
    26   10   52 1    
    27   11   53 1    
    28   12   13 1    
    29   12   27 1    
    30   12   14 1    
    31   14   15 1    
    32   14   19 1    
    33   14   16 1    
    34   16   17 1    
    35   16   54 1    
    36   16   55 1    
    37   17   18 2    
    38   17   56 1    
    39   18   19 1    
    40   18   57 1    
    41   19   20 1    
    42   19   21 1    
    43   21   26 ar   
    44   21   22 ar   
    45   22   23 ar   
    46   22   58 1    
    47   23   24 ar   
    48   23   28 1    
    49   24   25 ar   
    50   24   59 1    
    51   25   26 ar   
    52   25   60 1    
    53   26   27 1    
    54   27   61 1    
    55   28   29 2    
    56   28   30 2    
    57   28   31 1    
    58   31   32 1    
    59   31   34 1    
    60   32   33 1    
    61   32   62 1    
    62   32   63 1    
    63   33   64 1    
    64   33   65 1    
    65   33   66 1    
    66   34   39 ar   
    67   34   35 ar   
    68   35   36 ar   
    69   35   67 1    
    70   36   37 ar   
    71   36   68 1    
    72   37   38 ar   
    73   37   69 1    
    74   38   39 ar   
    75   38   70 1    
    76   39   71 1    
@<TRIPOS>SUBSTRUCTURE
     1 UNK         1 GROUP             0       ****    0 ROOT    
