ZINC13121889_5171
                    3D
 Schrodinger Suite 2024-2.
 54 57  0  0  1  0            999 V2000
    5.4477   53.6963   26.9291 C   0  0  0  0  0  0
    4.5209   54.4992   26.0031 C   0  0  0  0  0  0
    4.5960   54.1365   24.6219 O   0  0  0  0  0  0
    5.6566   54.4969   23.8473 C   0  0  0  0  0  0
    6.7019   54.9635   24.3065 O   0  0  0  0  0  0
    5.3840   54.3574   22.3912 C   0  0  0  0  0  0
    6.2345   54.8967   21.3662 C   0  0  0  0  0  0
    5.7896   54.6387   20.0621 C   0  0  0  0  0  0
    4.3217   53.7444   20.0681 S   0  0  0  0  0  0
    4.2764   53.6983   21.8066 C   0  0  0  0  0  0
    3.2101   53.0931   22.4816 N   0  0  0  0  0  0
    2.3033   52.2151   21.9935 C   0  0  0  0  0  0
    2.3153   51.7313   20.8606 O   0  0  0  0  0  0
    1.2864   51.8165   22.9345 C   0  0  0  0  0  0
    0.6695   52.6173   23.9144 C   0  0  0  0  0  0
   -0.3341   51.8416   24.4704 C   0  0  0  0  0  0
   -0.3096   50.6521   23.7646 N   0  0  0  0  0  0
    0.7042   50.6369   22.8865 N   0  0  0  0  0  0
   -1.1302   49.4585   24.0282 C   0  0  1  0  0  0
   -0.5266   48.7944   24.6506 H   0  0  0  0  0  0
   -2.3501   49.9239   24.8575 C   0  0  0  0  0  0
   -2.0017   50.9264   25.9784 C   0  0  1  0  0  0
   -1.3080   50.4449   26.6716 H   0  0  0  0  0  0
   -1.3287   52.0960   25.3980 N   0  0  0  0  0  0
   -3.2698   51.3015   26.7257 C   0  0  0  0  0  0
   -3.7493   50.7999   27.9364 C   0  0  0  0  0  0
   -5.0295   51.2415   28.2812 C   0  0  0  0  0  0
   -5.5673   52.0969   27.3349 C   0  0  0  0  0  0
   -4.4579   52.3907   26.0418 S   0  0  0  0  0  0
   -1.5542   48.6666   22.7605 C   0  0  0  0  0  0
   -2.2629   47.5870   23.0934 F   0  0  0  0  0  0
   -2.3217   49.4020   21.9543 F   0  0  0  0  0  0
   -0.5208   48.2428   22.0370 F   0  0  0  0  0  0
    6.4018   55.0228   18.7313 C   0  0  0  0  0  0
    7.5041   55.6961   21.6078 C   0  0  0  0  0  0
    5.3244   54.0127   27.9649 H   0  0  0  0  0  0
    6.4992   53.8235   26.6714 H   0  0  0  0  0  0
    5.2196   52.6325   26.8826 H   0  0  0  0  0  0
    3.4920   54.3536   26.3261 H   0  0  0  0  0  0
    4.7219   55.5652   26.1070 H   0  0  0  0  0  0
    3.2031   53.2430   23.4801 H   0  0  0  0  0  0
    0.8992   53.6432   24.1629 H   0  0  0  0  0  0
   -3.0934   50.3655   24.1904 H   0  0  0  0  0  0
   -2.8492   49.0497   25.2808 H   0  0  0  0  0  0
   -1.1745   52.8067   26.0978 H   0  0  0  0  0  0
   -3.1884   50.0971   28.5382 H   0  0  0  0  0  0
   -5.5473   50.9297   29.1774 H   0  0  0  0  0  0
   -6.5378   52.5700   27.3420 H   0  0  0  0  0  0
    7.4840   55.1359   18.7814 H   0  0  0  0  0  0
    6.2139   54.2688   17.9647 H   0  0  0  0  0  0
    5.9934   55.9625   18.3582 H   0  0  0  0  0  0
    7.9163   56.1666   20.7177 H   0  0  0  0  0  0
    7.3377   56.4965   22.3214 H   0  0  0  0  0  0
    8.2794   55.0684   22.0420 H   0  0  0  0  0  0
  1  2  1  0  0  0
  1 36  1  0  0  0
  1 37  1  0  0  0
  1 38  1  0  0  0
  2  3  1  0  0  0
  2 39  1  0  0  0
  2 40  1  0  0  0
  3  4  1  0  0  0
  4  5  2  0  0  0
  4  6  1  0  0  0
  6 10  2  0  0  0
  6  7  1  0  0  0
  7  8  2  0  0  0
  7 35  1  0  0  0
  8  9  1  0  0  0
  8 34  1  0  0  0
  9 10  1  0  0  0
 10 11  1  0  0  0
 11 12  1  0  0  0
 11 41  1  0  0  0
 12 13  2  0  0  0
 12 14  1  0  0  0
 14 18  2  0  0  0
 14 15  1  0  0  0
 15 16  2  0  0  0
 15 42  1  0  0  0
 16 24  1  0  0  0
 16 17  1  0  0  0
 17 18  1  0  0  0
 17 19  1  0  0  0
 19 20  1  0  0  0
 19 21  1  0  0  0
 19 30  1  0  0  0
 21 22  1  0  0  0
 21 43  1  0  0  0
 21 44  1  0  0  0
 22 23  1  0  0  0
 22 24  1  0  0  0
 22 25  1  0  0  0
 24 45  1  0  0  0
 25 29  1  0  0  0
 25 26  2  0  0  0
 26 27  1  0  0  0
 26 46  1  0  0  0
 27 28  2  0  0  0
 27 47  1  0  0  0
 28 29  1  0  0  0
 28 48  1  0  0  0
 30 31  1  0  0  0
 30 32  1  0  0  0
 30 33  1  0  0  0
 34 49  1  0  0  0
 34 50  1  0  0  0
 34 51  1  0  0  0
 35 52  1  0  0  0
 35 53  1  0  0  0
 35 54  1  0  0  0
M  END
> <i_i_glide_confnum>
2

> <i_i_glide_lignum>
5172

> <i_i_glide_posenum>
382

> <i_i_glide_rotatable_bonds>
8

> <i_m_Source_File_Index>
2999

> <b_m_subgroup_collapsed>
0

> <r_i_docking_score>
-3.87522

> <r_i_glide_ecoul>
-1.19749

> <r_i_glide_eff_state_penalty>
0

> <r_i_glide_einternal>
6.73868

> <r_i_glide_emodel>
-50.8483

> <r_i_glide_energy>
-42.0683

> <r_i_glide_erotb>
0.492627

> <r_i_glide_esite>
-0.0120875

> <r_i_glide_evdw>
-40.8708

> <r_i_glide_gscore>
-3.87522

> <r_i_glide_hbond>
0

> <r_i_glide_ligand_efficiency>
-0.117431

> <r_i_glide_ligand_efficiency_ln>
-0.86183

> <r_i_glide_ligand_efficiency_sa>
-0.376664

> <r_i_glide_lipo>
-1.63637

> <r_i_glide_metal>
0

> <r_i_glide_rewards>
-0.496232

> <s_i_glide_gridfile>
wee1_glide-grid

> <s_m_Source_File>
wee1_decoys_glide_SP.sdf

> <s_m_Source_Path>
/Users/zhangxujun/Desktop

> <s_m_entry_id>
3274

> <s_m_entry_name>
wee1_decoys_glide_SP.2999

> <s_m_subgroup_title>
wee1_decoys_glide_SP

> <s_m_subgroupid>
wee1_decoys_glide_SP


$$$$
