@<TRIPOS>MOLECULE
ZINC12428645_1982
57   62    1
SMALL
USER_CHARGES


@<TRIPOS>ATOM
      1 C1          3.2209   54.1120   27.6728 C.ar      1 UNK         0.0000 
      2 C2          2.2881   53.7441   26.7057 C.ar      1 UNK         0.0000 
      3 C3          2.6305   53.6967   25.3492 C.ar      1 UNK         0.0000 
      4 C4          3.9359   54.0840   24.9923 C.ar      1 UNK         0.0000 
      5 C5          4.8887   54.4746   25.9464 C.ar      1 UNK         0.0000 
      6 C6          4.5146   54.4673   27.2970 C.ar      1 UNK         0.0000 
      7 C7          6.2659   54.8979   25.5256 C.2       1 UNK         0.0000 
      8 O8          6.5000   54.9989   24.2996 O.co2     1 UNK         0.0000 
      9 C9          1.5851   53.3019   24.2793 C.3       1 UNK         0.0000 
     10 H10         0.8181   54.0747   24.3527 H         1 UNK         0.0000 
     11 C11         0.9010   51.9067   24.4899 C.3       1 UNK         0.0000 
     12 H12         1.7322   51.1981   24.4319 H         1 UNK         0.0000 
     13 C13         0.0030   51.4226   25.6816 C.3       1 UNK         0.0000 
     14 H14         0.1711   51.8799   26.6518 H         1 UNK         0.0000 
     15 C15         0.0901   49.8764   25.7553 C.3       1 UNK         0.0000 
     16 C16        -0.5844   49.4242   24.4397 C.3       1 UNK         0.0000 
     17 C17        -1.1561   50.7472   23.8793 C.3       1 UNK         0.0000 
     18 H18        -2.0185   50.6228   23.2231 H         1 UNK         0.0000 
     19 C19        -1.4378   51.5350   25.1678 C.3       1 UNK         0.0000 
     20 C20        -0.0736   51.6894   23.3195 C.3       1 UNK         0.0000 
     21 H21        -0.5949   52.6192   23.0688 H         1 UNK         0.0000 
     22 C22         0.7740   51.4531   22.0938 C.ar      1 UNK         0.0000 
     23 C23         0.5807   50.4151   21.1817 C.ar      1 UNK         0.0000 
     24 C24         1.4586   50.2464   20.1105 C.ar      1 UNK         0.0000 
     25 C25         2.5357   51.1199   19.9450 C.ar      1 UNK         0.0000 
     26 C26         2.7225   52.1739   20.8416 C.ar      1 UNK         0.0000 
     27 C27         1.8377   52.3589   21.9054 C.ar      1 UNK         0.0000 
     28 N28         2.1090   53.3595   22.8793 N.pl3     1 UNK         0.0000 
     29 S29         1.2198   48.8855   18.9768 S.o2      1 UNK         0.0000 
     30 O30         2.3036   47.9357   19.2364 O.2       1 UNK         0.0000 
     31 O31        -0.1809   48.4544   19.0612 O.2       1 UNK         0.0000 
     32 N32         1.5043   49.5380   17.3570 N.pl3     1 UNK         0.0000 
     33 C33         0.6610   50.4513   16.7176 C.ar      1 UNK         0.0000 
     34 N34         1.1365   50.9676   15.5547 N.ar      1 UNK         0.0000 
     35 C35         0.3531   51.8801   14.9221 C.ar      1 UNK         0.0000 
     36 C36        -0.8870   52.2783   15.4257 C.ar      1 UNK         0.0000 
     37 C37        -1.2946   51.6897   16.6241 C.ar      1 UNK         0.0000 
     38 N38        -0.5339   50.7778   17.2835 N.ar      1 UNK         0.0000 
     39 H39         2.9356   54.1392   28.7145 H         1 UNK         0.0000 
     40 H40         1.2823   53.5412   27.0308 H         1 UNK         0.0000 
     41 H41         4.2332   54.0795   23.9542 H         1 UNK         0.0000 
     42 H42         5.2215   54.7594   28.0625 H         1 UNK         0.0000 
     43 H43         1.1045   49.4951   25.8532 H         1 UNK         0.0000 
     44 H44        -0.4668   49.4996   26.6149 H         1 UNK         0.0000 
     45 H45        -1.3762   48.7023   24.6430 H         1 UNK         0.0000 
     46 H46         0.1227   48.9565   23.7530 H         1 UNK         0.0000 
     47 H47        -1.7594   52.5679   25.0096 H         1 UNK         0.0000 
     48 H48        -2.1757   51.0582   25.8179 H         1 UNK         0.0000 
     49 H49        -0.2392   49.7259   21.3234 H         1 UNK         0.0000 
     50 H50         3.2318   50.9791   19.1285 H         1 UNK         0.0000 
     51 H51         3.5645   52.8380   20.7125 H         1 UNK         0.0000 
     52 H52         2.7147   54.1382   22.6696 H         1 UNK         0.0000 
     53 H53         2.4443   49.4014   16.9764 H         1 UNK         0.0000 
     54 H54         0.7379   52.2902   14.0000 H         1 UNK         0.0000 
     55 H55        -1.5004   53.0045   14.9122 H         1 UNK         0.0000 
     56 H56        -2.2418   51.9421   17.0765 H         1 UNK         0.0000 
     57 O57         7.1042   55.1532   26.4190 O.co2     1 UNK         0.0000 
@<TRIPOS>BOND
     1    1    6 ar   
     2    1    2 ar   
     3    1   39 1    
     4    2    3 ar   
     5    2   40 1    
     6    3    4 ar   
     7    3    9 1    
     8    4    5 ar   
     9    4   41 1    
    10    5    6 ar   
    11    5    7 1    
    12    6   42 1    
    13    7    8 2    
    14    7   57 1    
    15    9   10 1    
    16    9   28 1    
    17    9   11 1    
    18   11   12 1    
    19   11   20 1    
    20   11   13 1    
    21   13   14 1    
    22   13   19 1    
    23   13   15 1    
    24   15   16 1    
    25   15   43 1    
    26   15   44 1    
    27   16   17 1    
    28   16   45 1    
    29   16   46 1    
    30   17   18 1    
    31   17   19 1    
    32   17   20 1    
    33   19   47 1    
    34   19   48 1    
    35   20   21 1    
    36   20   22 1    
    37   22   27 ar   
    38   22   23 ar   
    39   23   24 ar   
    40   23   49 1    
    41   24   25 ar   
    42   24   29 1    
    43   25   26 ar   
    44   25   50 1    
    45   26   27 ar   
    46   26   51 1    
    47   27   28 1    
    48   28   52 1    
    49   29   30 2    
    50   29   31 2    
    51   29   32 1    
    52   32   33 1    
    53   32   53 1    
    54   33   38 ar   
    55   33   34 ar   
    56   34   35 ar   
    57   35   36 ar   
    58   35   54 1    
    59   36   37 ar   
    60   36   55 1    
    61   37   38 ar   
    62   37   56 1    
@<TRIPOS>SUBSTRUCTURE
     1 UNK         1 GROUP             0       ****    0 ROOT    
