@<TRIPOS>MOLECULE
ZINC04093087_3259
63   68    1
SMALL
USER_CHARGES


@<TRIPOS>ATOM
      1 C1          1.9126   45.3915   16.1206 C.ar      1 UNK         0.0000 
      2 C2          0.7559   44.7499   16.5611 C.ar      1 UNK         0.0000 
      3 C3         -0.0401   45.3443   17.5402 C.ar      1 UNK         0.0000 
      4 C4          0.3172   46.5773   18.0883 C.ar      1 UNK         0.0000 
      5 C5          1.5065   47.2098   17.6757 C.ar      1 UNK         0.0000 
      6 C6          2.2835   46.6172   16.6742 C.ar      1 UNK         0.0000 
      7 N7          1.9047   48.4836   18.1146 N.am      1 UNK         0.0000 
      8 C8          1.8999   48.9507   19.3817 C.2       1 UNK         0.0000 
      9 O9          1.6273   48.2621   20.3662 O.2       1 UNK         0.0000 
     10 C10         2.2401   50.4542   19.5372 C.3       1 UNK         0.0000 
     11 H11         3.1042   50.6478   18.8964 H         1 UNK         0.0000 
     12 C12         1.0191   51.3236   19.1122 C.3       1 UNK         0.0000 
     13 H13         0.8870   51.4660   18.0383 H         1 UNK         0.0000 
     14 C14        -0.2488   51.0516   19.9236 C.2       1 UNK         0.0000 
     15 C15        -0.0144   51.5435   21.1526 C.2       1 UNK         0.0000 
     16 C16         1.4225   52.0386   21.0959 C.3       1 UNK         0.0000 
     17 C17         2.4717   50.9590   20.9987 C.3       1 UNK         0.0000 
     18 H18         2.3688   50.1782   21.7526 H         1 UNK         0.0000 
     19 C19         3.7809   51.7140   21.2746 C.2       1 UNK         0.0000 
     20 O20         4.8934   51.2969   20.9789 O.2       1 UNK         0.0000 
     21 N21         3.4800   52.8768   21.9268 N.am      1 UNK         0.0000 
     22 C22         2.0197   53.0888   22.0494 C.3       1 UNK         0.0000 
     23 H23         1.7780   54.0934   21.7071 H         1 UNK         0.0000 
     24 C24         1.4404   52.9991   23.4738 C.2       1 UNK         0.0000 
     25 O25         0.9174   53.9974   23.9631 O.2       1 UNK         0.0000 
     26 N26         1.4606   51.7993   24.0813 N.am      1 UNK         0.0000 
     27 C27         0.6995   51.4415   25.2775 C.3       1 UNK         0.0000 
     28 C28         1.0061   52.2468   26.5700 C.3       1 UNK         0.0000 
     29 C29         0.1883   51.7719   27.7863 C.3       1 UNK         0.0000 
     30 C30        -1.3153   51.6968   27.4768 C.3       1 UNK         0.0000 
     31 C31        -1.6009   50.8050   26.2579 C.3       1 UNK         0.0000 
     32 C32        -0.8160   51.2559   25.0160 C.3       1 UNK         0.0000 
     33 C33         4.4956   53.6975   22.4793 C.ar      1 UNK         0.0000 
     34 C34         5.5026   54.2253   21.6561 C.ar      1 UNK         0.0000 
     35 C35         6.5883   54.8971   22.2227 C.ar      1 UNK         0.0000 
     36 C36         6.6367   55.0374   23.6094 C.ar      1 UNK         0.0000 
     37 N37         5.6522   54.5816   24.4265 N.ar      1 UNK         0.0000 
     38 C38         4.5986   53.9348   23.8583 C.ar      1 UNK         0.0000 
     39 O39         1.4376   52.4967   19.7571 O.3       1 UNK         0.0000 
     40 F40        -0.5195   47.1512   18.9850 F         1 UNK         0.0000 
     41 H41         2.5247   44.9405   15.3533 H         1 UNK         0.0000 
     42 H42         0.4696   43.8010   16.1317 H         1 UNK         0.0000 
     43 H43        -0.9505   44.8609   17.8616 H         1 UNK         0.0000 
     44 H44         3.1782   47.1090   16.3183 H         1 UNK         0.0000 
     45 H45         2.5156   48.9800   17.4694 H         1 UNK         0.0000 
     46 H46        -1.1232   50.5429   19.5458 H         1 UNK         0.0000 
     47 H47        -0.6452   51.5286   22.0277 H         1 UNK         0.0000 
     48 H48         1.7879   51.0179   23.5334 H         1 UNK         0.0000 
     49 H49         1.0615   50.4373   25.5076 H         1 UNK         0.0000 
     50 H50         2.0700   52.2030   26.8043 H         1 UNK         0.0000 
     51 H51         0.7694   53.2970   26.4087 H         1 UNK         0.0000 
     52 H52         0.5386   50.7868   28.0942 H         1 UNK         0.0000 
     53 H53         0.3618   52.4332   28.6361 H         1 UNK         0.0000 
     54 H54        -1.8553   51.3194   28.3466 H         1 UNK         0.0000 
     55 H55        -1.6963   52.6996   27.2814 H         1 UNK         0.0000 
     56 H56        -1.3395   49.7693   26.4827 H         1 UNK         0.0000 
     57 H57        -2.6703   50.8014   26.0436 H         1 UNK         0.0000 
     58 H58        -1.2366   52.2044   24.6777 H         1 UNK         0.0000 
     59 H59        -0.9736   50.5329   24.2147 H         1 UNK         0.0000 
     60 H60         5.4686   54.0712   20.5869 H         1 UNK         0.0000 
     61 H61         7.3873   55.2764   21.6027 H         1 UNK         0.0000 
     62 H62         7.4846   55.5213   24.0783 H         1 UNK         0.0000 
     63 H63         3.8738   53.5434   24.5556 H         1 UNK         0.0000 
@<TRIPOS>BOND
     1    1    6 ar   
     2    1    2 ar   
     3    1   41 1    
     4    2    3 ar   
     5    2   42 1    
     6    3    4 ar   
     7    3   43 1    
     8    4    5 ar   
     9    4   40 1    
    10    5    6 ar   
    11    5    7 1    
    12    6   44 1    
    13    7    8 am   BACKBONE|DICT|INTERRES
    14    7   45 1    
    15    8    9 2    
    16    8   10 1    
    17   10   11 1    
    18   10   17 1    
    19   10   12 1    
    20   12   13 1    
    21   12   39 1    
    22   12   14 1    
    23   14   15 2    
    24   14   46 1    
    25   15   16 1    
    26   15   47 1    
    27   16   22 1    
    28   16   17 1    
    29   16   39 1    
    30   17   18 1    
    31   17   19 1    
    32   19   20 2    
    33   19   21 am   BACKBONE|DICT|INTERRES
    34   21   22 1    
    35   21   33 1    
    36   22   23 1    
    37   22   24 1    
    38   24   25 2    
    39   24   26 am   BACKBONE|DICT|INTERRES
    40   26   27 1    
    41   26   48 1    
    42   27   32 1    
    43   27   28 1    
    44   27   49 1    
    45   28   29 1    
    46   28   50 1    
    47   28   51 1    
    48   29   30 1    
    49   29   52 1    
    50   29   53 1    
    51   30   31 1    
    52   30   54 1    
    53   30   55 1    
    54   31   32 1    
    55   31   56 1    
    56   31   57 1    
    57   32   58 1    
    58   32   59 1    
    59   33   38 ar   
    60   33   34 ar   
    61   34   35 ar   
    62   34   60 1    
    63   35   36 ar   
    64   35   61 1    
    65   36   37 ar   
    66   36   62 1    
    67   37   38 ar   
    68   38   63 1    
@<TRIPOS>SUBSTRUCTURE
     1 UNK         1 GROUP             0       ****    0 ROOT    
