@<TRIPOS>MOLECULE
ZINC00106530_3756
43   45    1
SMALL
USER_CHARGES


@<TRIPOS>ATOM
      1 C1         -2.4806   48.6373   24.9850 C.3       1 UNK         0.0000 
      2 C2         -2.8454   50.1415   24.9440 C.3       1 UNK         0.0000 
      3 C3         -3.3896   50.4539   23.5242 C.3       1 UNK         0.0000 
      4 C4         -3.9905   50.4098   25.9499 C.3       1 UNK         0.0000 
      5 C5         -1.6101   50.9919   25.3251 C.ar      1 UNK         0.0000 
      6 C6         -1.0509   51.9354   24.4556 C.ar      1 UNK         0.0000 
      7 C7          0.0613   52.6783   24.8373 C.ar      1 UNK         0.0000 
      8 C8          0.6524   52.4970   26.0964 C.ar      1 UNK         0.0000 
      9 C9          0.0981   51.5506   26.9637 C.ar      1 UNK         0.0000 
     10 C10        -1.0201   50.8203   26.5821 C.ar      1 UNK         0.0000 
     11 C11         1.8806   53.3487   26.4948 C.3       1 UNK         0.0000 
     12 H12         1.5040   54.3597   26.6511 H         1 UNK         0.0000 
     13 C13         2.8853   53.4798   25.3143 C.3       1 UNK         0.0000 
     14 C14         4.2244   54.0813   25.6971 C.ar      1 UNK         0.0000 
     15 C15         4.6419   54.1674   27.0404 C.ar      1 UNK         0.0000 
     16 C16         5.8911   54.7628   27.2569 C.ar      1 UNK         0.0000 
     17 N17         6.7054   55.1490   26.2452 N.ar      1 UNK         0.0000 
     18 C18         6.2417   54.9615   24.9912 C.ar      1 UNK         0.0000 
     19 N19         5.0180   54.4964   24.6725 N.ar      1 UNK         0.0000 
     20 N20         7.0980   55.2143   23.9304 N.pl3     1 UNK         0.0000 
     21 C21         3.7697   53.7756   28.1827 C.2       1 UNK         0.0000 
     22 O22         4.0164   54.1103   29.3418 O.2       1 UNK         0.0000 
     23 C23         2.5784   52.8915   27.8041 C.3       1 UNK         0.0000 
     24 H24        -3.3294   48.0111   24.7040 H         1 UNK         0.0000 
     25 H25        -2.1719   48.3152   25.9807 H         1 UNK         0.0000 
     26 H26        -1.6652   48.4061   24.3010 H         1 UNK         0.0000 
     27 H27        -3.7037   51.4946   23.4318 H         1 UNK         0.0000 
     28 H28        -2.6431   50.2580   22.7531 H         1 UNK         0.0000 
     29 H29        -4.2592   49.8404   23.2827 H         1 UNK         0.0000 
     30 H30        -4.2654   51.4657   25.9648 H         1 UNK         0.0000 
     31 H31        -4.8879   49.8427   25.6982 H         1 UNK         0.0000 
     32 H32        -3.7183   50.1276   26.9673 H         1 UNK         0.0000 
     33 H33        -1.4664   52.1164   23.4764 H         1 UNK         0.0000 
     34 H34         0.4432   53.4057   24.1359 H         1 UNK         0.0000 
     35 H35         0.5118   51.3678   27.9459 H         1 UNK         0.0000 
     36 H36        -1.4218   50.1020   27.2803 H         1 UNK         0.0000 
     37 H37         3.1037   52.4966   24.9142 H         1 UNK         0.0000 
     38 H38         2.4717   54.0728   24.4977 H         1 UNK         0.0000 
     39 H39         6.2855   54.9108   28.2548 H         1 UNK         0.0000 
     40 H40         8.1039   55.3180   24.0764 H         1 UNK         0.0000 
     41 H41         6.7525   55.0017   23.0068 H         1 UNK         0.0000 
     42 H42         1.8604   52.9710   28.6203 H         1 UNK         0.0000 
     43 H43         2.9225   51.8666   27.6814 H         1 UNK         0.0000 
@<TRIPOS>BOND
     1    1    2 1    
     2    1   24 1    
     3    1   25 1    
     4    1   26 1    
     5    2    3 1    
     6    2    4 1    
     7    2    5 1    
     8    3   27 1    
     9    3   28 1    
    10    3   29 1    
    11    4   30 1    
    12    4   31 1    
    13    4   32 1    
    14    5   10 ar   
    15    5    6 ar   
    16    6    7 ar   
    17    6   33 1    
    18    7    8 ar   
    19    7   34 1    
    20    8    9 ar   
    21    8   11 1    
    22    9   10 ar   
    23    9   35 1    
    24   10   36 1    
    25   11   12 1    
    26   11   23 1    
    27   11   13 1    
    28   13   14 1    
    29   13   37 1    
    30   13   38 1    
    31   14   19 ar   
    32   14   15 ar   
    33   15   16 ar   
    34   15   21 1    
    35   16   17 ar   
    36   16   39 1    
    37   17   18 ar   
    38   18   19 ar   
    39   18   20 1    
    40   20   40 1    
    41   20   41 1    
    42   21   22 2    
    43   21   23 1    
    44   23   42 1    
    45   23   43 1    
@<TRIPOS>SUBSTRUCTURE
     1 UNK         1 GROUP             0       ****    0 ROOT    
