@<TRIPOS>MOLECULE
ZINC06296790_4623
50   53    1
SMALL
USER_CHARGES


@<TRIPOS>ATOM
      1 C1          5.7051   54.0443   24.2119 C.ar      1 UNK         0.0000 
      2 C2          6.2199   54.0972   25.5009 C.ar      1 UNK         0.0000 
      3 C3          5.3698   54.2711   26.5971 C.ar      1 UNK         0.0000 
      4 C4          4.0080   54.4962   26.3657 C.ar      1 UNK         0.0000 
      5 C5          3.5018   54.4662   25.0702 C.ar      1 UNK         0.0000 
      6 C6          4.3302   54.1820   23.9821 C.ar      1 UNK         0.0000 
      7 C7          3.7104   54.0065   22.5751 C.3       1 UNK         0.0000 
      8 H8          3.0169   54.8349   22.4217 H         1 UNK         0.0000 
      9 C9          4.6839   53.9324   21.4227 C.2       1 UNK         0.0000 
     10 C10         4.6336   52.6848   20.9628 C.2       1 UNK         0.0000 
     11 C11         3.5618   51.9057   21.5373 C.2       1 UNK         0.0000 
     12 O12         3.2266   50.7494   21.2558 O.2       1 UNK         0.0000 
     13 N13         2.9743   52.7232   22.4557 N.am      1 UNK         0.0000 
     14 C14         1.8189   52.3450   23.1961 C.ar      1 UNK         0.0000 
     15 C15         0.8287   53.2965   23.4453 C.ar      1 UNK         0.0000 
     16 C16        -0.3080   52.9570   24.1743 C.ar      1 UNK         0.0000 
     17 C17        -0.4503   51.6748   24.6987 C.ar      1 UNK         0.0000 
     18 C18         0.5151   50.7057   24.4400 C.ar      1 UNK         0.0000 
     19 C19         1.6334   51.0368   23.6813 C.ar      1 UNK         0.0000 
     20 S20        -1.8579   51.2683   25.7264 S.o2      1 UNK         0.0000 
     21 O21        -2.6626   52.4846   25.8880 O.2       1 UNK         0.0000 
     22 O22        -2.4332   50.0327   25.1877 O.2       1 UNK         0.0000 
     23 N23        -1.1704   50.8967   27.2823 N.pl3     1 UNK         0.0000 
     24 O24         5.3828   52.1367   20.0819 O.co2     1 UNK         0.0000 
     25 C25         5.5525   55.0175   20.9357 C.2       1 UNK         0.0000 
     26 O26         6.3046   55.6148   21.7077 O.2       1 UNK         0.0000 
     27 C27         5.5049   55.3939   19.4797 C.ar      1 UNK         0.0000 
     28 C28         4.4381   55.0038   18.6529 C.ar      1 UNK         0.0000 
     29 C29         4.3930   55.4051   17.3212 C.ar      1 UNK         0.0000 
     30 C30         5.4084   56.2050   16.8046 C.ar      1 UNK         0.0000 
     31 C31         6.4696   56.6068   17.6114 C.ar      1 UNK         0.0000 
     32 C32         6.5172   56.2038   18.9431 C.ar      1 UNK         0.0000 
     33 Cl33        5.3492   56.7040   15.1538 Cl        1 UNK         0.0000 
     34 N34         5.8956   54.1641   27.9768 N.pl3     1 UNK         0.0000 
     35 O35         5.1644   54.4967   28.9059 O.co2     1 UNK         0.0000 
     36 O36         7.0271   53.7114   28.1313 O.co2     1 UNK         0.0000 
     37 H37         6.3879   53.8201   23.4071 H         1 UNK         0.0000 
     38 H38         7.2762   53.9321   25.6415 H         1 UNK         0.0000 
     39 H39         3.3273   54.6541   27.1902 H         1 UNK         0.0000 
     40 H40         2.4456   54.6121   24.9253 H         1 UNK         0.0000 
     41 H41         0.9365   54.3020   23.0683 H         1 UNK         0.0000 
     42 H42        -1.0702   53.6968   24.3541 H         1 UNK         0.0000 
     43 H43         0.4082   49.7053   24.8361 H         1 UNK         0.0000 
     44 H44         2.3734   50.2681   23.5141 H         1 UNK         0.0000 
     45 H45        -1.4013   51.5626   28.0196 H         1 UNK         0.0000 
     46 H46        -1.2957   49.9116   27.5794 H         1 UNK         0.0000 
     47 H47         3.6266   54.3966   19.0298 H         1 UNK         0.0000 
     48 H48         3.5692   55.0973   16.6934 H         1 UNK         0.0000 
     49 H49         7.2526   57.2305   17.2063 H         1 UNK         0.0000 
     50 H50         7.3515   56.5242   19.5507 H         1 UNK         0.0000 
@<TRIPOS>BOND
     1    1    6 ar   
     2    1    2 ar   
     3    1   37 1    
     4    2    3 ar   
     5    2   38 1    
     6    3    4 ar   
     7    3   34 1    
     8    4    5 ar   
     9    4   39 1    
    10    5    6 ar   
    11    5   40 1    
    12    6    7 1    
    13    7    8 1    
    14    7   13 1    
    15    7    9 1    
    16    9   10 2    
    17    9   25 1    
    18   10   11 1    
    19   10   24 1    
    20   11   12 2    
    21   11   13 am   BACKBONE|DICT|INTERRES
    22   13   14 1    
    23   14   19 ar   
    24   14   15 ar   
    25   15   16 ar   
    26   15   41 1    
    27   16   17 ar   
    28   16   42 1    
    29   17   18 ar   
    30   17   20 1    
    31   18   19 ar   
    32   18   43 1    
    33   19   44 1    
    34   20   21 2    
    35   20   22 2    
    36   20   23 1    
    37   23   45 1    
    38   23   46 1    
    39   25   26 2    
    40   25   27 1    
    41   27   32 ar   
    42   27   28 ar   
    43   28   29 ar   
    44   28   47 1    
    45   29   30 ar   
    46   29   48 1    
    47   30   31 ar   
    48   30   33 1    
    49   31   32 ar   
    50   31   49 1    
    51   32   50 1    
    52   34   35 2    
    53   34   36 1    
@<TRIPOS>SUBSTRUCTURE
     1 UNK         1 GROUP             0       ****    0 ROOT    
