ZINC32127725_2055
                    3D
 Schrodinger Suite 2024-2.
 56 59  0  0  1  0            999 V2000
   -5.5043   51.3216   24.2980 C   0  0  0  0  0  0
   -4.2668   51.3380   25.1905 C   0  0  0  0  0  0
   -4.4429   51.5020   26.5682 C   0  0  0  0  0  0
   -3.3460   51.5387   27.4275 C   0  0  0  0  0  0
   -2.0467   51.3945   26.9353 C   0  0  0  0  0  0
   -1.8828   51.1747   25.5606 C   0  0  0  0  0  0
   -2.9663   51.2000   24.6714 C   0  0  0  0  0  0
   -2.7959   51.0590   23.2750 N   0  0  0  0  0  0
   -1.8054   51.4667   22.4236 C   0  0  0  0  0  0
   -2.0830   51.1544   20.8055 S   0  0  0  0  0  0
   -0.7173   52.0959   22.9814 N   0  0  0  0  0  0
    0.4854   52.4975   22.4849 C   0  0  0  0  0  0
    0.8137   52.4216   21.2993 O   0  0  0  0  0  0
    1.4690   53.0487   23.5062 C   0  0  0  0  0  0
    1.1038   53.2689   24.8400 C   0  0  0  0  0  0
    2.0342   53.6966   25.7795 C   0  0  0  0  0  0
    3.3645   53.9499   25.4242 C   0  0  0  0  0  0
    3.7208   53.7727   24.0776 C   0  0  0  0  0  0
    2.7909   53.3303   23.1353 C   0  0  0  0  0  0
    4.4085   54.3984   26.4884 C   0  0  0  0  0  0
    5.3612   55.4780   25.9334 C   0  0  0  0  0  0
    5.3093   53.2367   26.9122 C   0  0  0  0  0  0
    3.7461   54.9066   27.7969 C   0  0  0  0  0  0
   -0.8475   51.5137   27.8362 C   0  0  0  0  0  0
   -0.8470   52.0969   29.0155 N   0  0  0  0  0  0
    0.4498   52.1540   29.4670 N   0  0  0  0  0  0
    1.1303   52.6812   30.5562 C   0  0  0  0  0  0
    2.4119   52.4092   30.4351 N   0  0  0  0  0  0
    2.6156   51.6970   29.2591 N   0  0  0  0  0  0
    1.4319   51.5810   28.7078 C   0  0  0  0  0  0
    0.7081   50.8969   27.2811 S   0  0  0  0  0  0
    0.5338   53.4840   31.6814 C   0  0  0  0  0  0
   -6.3238   51.8853   24.7460 H   0  0  0  0  0  0
   -5.3153   51.7821   23.3290 H   0  0  0  0  0  0
   -5.8363   50.2969   24.1305 H   0  0  0  0  0  0
   -5.4360   51.6064   26.9806 H   0  0  0  0  0  0
   -3.5094   51.6827   28.4854 H   0  0  0  0  0  0
   -0.8956   50.9822   25.1775 H   0  0  0  0  0  0
   -3.5951   50.6447   22.8179 H   0  0  0  0  0  0
   -0.8140   52.2650   23.9690 H   0  0  0  0  0  0
    0.0975   53.1013   25.1884 H   0  0  0  0  0  0
    1.6873   53.8208   26.7929 H   0  0  0  0  0  0
    4.7331   53.9387   23.7445 H   0  0  0  0  0  0
    3.1182   53.1851   22.1142 H   0  0  0  0  0  0
    6.1328   55.7003   26.6709 H   0  0  0  0  0  0
    4.8308   56.3910   25.6817 H   0  0  0  0  0  0
    5.9026   55.1601   25.0431 H   0  0  0  0  0  0
    4.7132   52.4183   27.2981 H   0  0  0  0  0  0
    5.9180   52.8967   26.0811 H   0  0  0  0  0  0
    6.0034   53.5184   27.7062 H   0  0  0  0  0  0
    3.2319   54.1105   28.3302 H   0  0  0  0  0  0
    4.4859   55.2966   28.4964 H   0  0  0  0  0  0
    3.0087   55.6887   27.6159 H   0  0  0  0  0  0
    1.0427   53.2968   32.6262 H   0  0  0  0  0  0
    0.5727   54.5555   31.4841 H   0  0  0  0  0  0
   -0.5004   53.2265   31.8488 H   0  0  0  0  0  0
  1  2  1  0  0  0
  1 33  1  0  0  0
  1 34  1  0  0  0
  1 35  1  0  0  0
  2  7  2  0  0  0
  2  3  1  0  0  0
  3  4  2  0  0  0
  3 36  1  0  0  0
  4  5  1  0  0  0
  4 37  1  0  0  0
  5  6  2  0  0  0
  5 24  1  0  0  0
  6  7  1  0  0  0
  6 38  1  0  0  0
  7  8  1  0  0  0
  8  9  1  0  0  0
  8 39  1  0  0  0
  9 10  2  0  0  0
  9 11  1  0  0  0
 11 12  1  0  0  0
 11 40  1  0  0  0
 12 13  2  0  0  0
 12 14  1  0  0  0
 14 19  2  0  0  0
 14 15  1  0  0  0
 15 16  2  0  0  0
 15 41  1  0  0  0
 16 17  1  0  0  0
 16 42  1  0  0  0
 17 18  2  0  0  0
 17 20  1  0  0  0
 18 19  1  0  0  0
 18 43  1  0  0  0
 19 44  1  0  0  0
 20 21  1  0  0  0
 20 22  1  0  0  0
 20 23  1  0  0  0
 21 45  1  0  0  0
 21 46  1  0  0  0
 21 47  1  0  0  0
 22 48  1  0  0  0
 22 49  1  0  0  0
 22 50  1  0  0  0
 23 51  1  0  0  0
 23 52  1  0  0  0
 23 53  1  0  0  0
 24 31  1  0  0  0
 24 25  2  0  0  0
 25 26  1  0  0  0
 26 30  1  0  0  0
 26 27  1  0  0  0
 27 28  2  0  0  0
 27 32  1  0  0  0
 28 29  1  0  0  0
 29 30  2  0  0  0
 30 31  1  0  0  0
 32 54  1  0  0  0
 32 55  1  0  0  0
 32 56  1  0  0  0
M  END
> <i_i_glide_confnum>
40

> <i_i_glide_lignum>
2056

> <i_i_glide_posenum>
340

> <i_i_glide_rotatable_bonds>
7

> <i_m_Source_File_Index>
3680

> <b_m_subgroup_collapsed>
0

> <r_i_docking_score>
-4.24456

> <r_i_glide_ecoul>
-2.71589

> <r_i_glide_eff_state_penalty>
0

> <r_i_glide_einternal>
8.10936

> <r_i_glide_emodel>
-49.6942

> <r_i_glide_energy>
-39.7676

> <r_i_glide_erotb>
0.560381

> <r_i_glide_esite>
-0.056531

> <r_i_glide_evdw>
-37.0517

> <r_i_glide_gscore>
-4.24456

> <r_i_glide_hbond>
0

> <r_i_glide_ligand_efficiency>
-0.132643

> <r_i_glide_ligand_efficiency_ln>
-0.950474

> <r_i_glide_ligand_efficiency_sa>
-0.421114

> <r_i_glide_lipo>
-1.84912

> <r_i_glide_metal>
0

> <r_i_glide_rewards>
-0.639326

> <s_i_glide_gridfile>
wee1_glide-grid

> <s_m_Source_File>
wee1_decoys_glide_SP.sdf

> <s_m_Source_Path>
/Users/zhangxujun/Desktop

> <s_m_entry_id>
3955

> <s_m_entry_name>
wee1_decoys_glide_SP.3680

> <s_m_subgroup_title>
wee1_decoys_glide_SP

> <s_m_subgroupid>
wee1_decoys_glide_SP


$$$$
