ZINC16847568_477
                    3D
 Schrodinger Suite 2024-2.
 51 53  0  0  1  0            999 V2000
    1.4570   48.7466   20.7643 C   0  0  0  0  0  0
    2.1229   50.0706   21.0813 C   0  0  0  0  0  0
    3.1045   50.5626   20.2222 C   0  0  0  0  0  0
    3.7554   51.7578   20.5147 C   0  0  0  0  0  0
    3.3938   52.4807   21.6537 C   0  0  0  0  0  0
    2.3839   52.0070   22.4954 C   0  0  0  0  0  0
    1.7595   50.7934   22.2188 C   0  0  0  0  0  0
    4.1603   54.0620   22.0003 S   0  0  0  0  0  0
    3.1041   54.8967   22.5679 O   0  0  0  0  0  0
    4.9089   54.4728   20.8081 O   0  0  0  0  0  0
    5.3768   53.8151   23.2702 N   0  0  0  0  0  0
    5.2506   54.0854   24.6155 C   0  0  0  0  0  0
    6.2814   54.1301   25.4191 N   0  0  0  0  0  0
    5.9460   54.2484   26.6927 C   0  0  0  0  0  0
    4.5717   54.3618   26.9540 C   0  0  0  0  0  0
    3.7206   54.2123   25.4287 S   0  0  0  0  0  0
    3.8949   54.4969   28.2284 C   0  0  0  0  0  0
    4.5146   54.4970   29.2924 O   0  0  0  0  0  0
    2.5547   54.5829   28.1636 N   0  0  0  0  0  0
    1.7610   54.5784   29.2973 N   0  0  0  0  0  0
    1.4299   52.9734   29.9693 S   0  0  0  0  0  0
    0.5707   53.1804   31.1386 O   0  0  0  0  0  0
    2.6912   52.2338   30.1023 O   0  0  0  0  0  0
    0.4720   52.1551   28.7017 C   0  0  0  0  0  0
   -0.8673   51.8527   28.9325 C   0  0  0  0  0  0
   -1.6344   51.2966   27.9140 C   0  0  0  0  0  0
   -1.0489   51.0001   26.6821 C   0  0  0  0  0  0
    0.3010   51.2762   26.4618 C   0  0  0  0  0  0
    1.0644   51.8486   27.4750 C   0  0  0  0  0  0
   -1.8819   50.3624   25.5869 C   0  0  0  0  0  0
    7.1042   54.1984   27.6636 C   0  0  0  0  0  0
    1.0539   48.7633   19.7509 H   0  0  0  0  0  0
    2.1970   47.9468   20.8084 H   0  0  0  0  0  0
    0.6404   48.5164   21.4493 H   0  0  0  0  0  0
    3.3821   50.0155   19.3303 H   0  0  0  0  0  0
    4.5185   52.1197   19.8381 H   0  0  0  0  0  0
    2.0881   52.5723   23.3671 H   0  0  0  0  0  0
    0.9938   50.4215   22.8837 H   0  0  0  0  0  0
    6.2807   53.5869   22.8870 H   0  0  0  0  0  0
    2.0724   54.7774   27.2986 H   0  0  0  0  0  0
    2.1055   55.2583   29.9797 H   0  0  0  0  0  0
   -1.3033   52.0489   29.8995 H   0  0  0  0  0  0
   -2.6698   51.0501   28.0992 H   0  0  0  0  0  0
    0.7595   51.0375   25.5138 H   0  0  0  0  0  0
    2.1104   52.0534   27.3023 H   0  0  0  0  0  0
   -1.4904   50.6017   24.5972 H   0  0  0  0  0  0
   -2.9091   50.7282   25.6190 H   0  0  0  0  0  0
   -1.8968   49.2786   25.7129 H   0  0  0  0  0  0
    7.5129   53.1906   27.7271 H   0  0  0  0  0  0
    7.9041   54.8747   27.3829 H   0  0  0  0  0  0
    6.8326   54.4819   28.6758 H   0  0  0  0  0  0
  1  2  1  0  0  0
  1 32  1  0  0  0
  1 33  1  0  0  0
  1 34  1  0  0  0
  2  7  2  0  0  0
  2  3  1  0  0  0
  3  4  2  0  0  0
  3 35  1  0  0  0
  4  5  1  0  0  0
  4 36  1  0  0  0
  5  6  2  0  0  0
  5  8  1  0  0  0
  6  7  1  0  0  0
  6 37  1  0  0  0
  7 38  1  0  0  0
  8  9  2  0  0  0
  8 10  2  0  0  0
  8 11  1  0  0  0
 11 12  1  0  0  0
 11 39  1  0  0  0
 12 16  1  0  0  0
 12 13  2  0  0  0
 13 14  1  0  0  0
 14 15  2  0  0  0
 14 31  1  0  0  0
 15 16  1  0  0  0
 15 17  1  0  0  0
 17 18  2  0  0  0
 17 19  1  0  0  0
 19 20  1  0  0  0
 19 40  1  0  0  0
 20 21  1  0  0  0
 20 41  1  0  0  0
 21 22  2  0  0  0
 21 23  2  0  0  0
 21 24  1  0  0  0
 24 29  2  0  0  0
 24 25  1  0  0  0
 25 26  2  0  0  0
 25 42  1  0  0  0
 26 27  1  0  0  0
 26 43  1  0  0  0
 27 28  2  0  0  0
 27 30  1  0  0  0
 28 29  1  0  0  0
 28 44  1  0  0  0
 29 45  1  0  0  0
 30 46  1  0  0  0
 30 47  1  0  0  0
 30 48  1  0  0  0
 31 49  1  0  0  0
 31 50  1  0  0  0
 31 51  1  0  0  0
M  END
> <i_i_glide_confnum>
215

> <i_i_glide_lignum>
478

> <i_i_glide_posenum>
204

> <i_i_glide_rotatable_bonds>
8

> <i_m_Source_File_Index>
4449

> <b_m_subgroup_collapsed>
0

> <r_i_docking_score>
-4.3416

> <r_i_glide_ecoul>
-2.08027

> <r_i_glide_eff_state_penalty>
0

> <r_i_glide_einternal>
5.39512

> <r_i_glide_emodel>
-62.6111

> <r_i_glide_energy>
-53.3681

> <r_i_glide_erotb>
0.70246

> <r_i_glide_esite>
-0.0587577

> <r_i_glide_evdw>
-51.2878

> <r_i_glide_gscore>
-4.3416

> <r_i_glide_hbond>
0

> <r_i_glide_ligand_efficiency>
-0.140052

> <r_i_glide_ligand_efficiency_ln>
-0.979165

> <r_i_glide_ligand_efficiency_sa>
-0.439956

> <r_i_glide_lipo>
-1.74431

> <r_i_glide_metal>
0

> <r_i_glide_rewards>
-0.36457

> <s_i_glide_gridfile>
wee1_glide-grid

> <s_m_Source_File>
wee1_decoys_glide_SP.sdf

> <s_m_Source_Path>
/Users/zhangxujun/Desktop

> <s_m_entry_id>
4724

> <s_m_entry_name>
wee1_decoys_glide_SP.4449

> <s_m_subgroup_title>
wee1_decoys_glide_SP

> <s_m_subgroupid>
wee1_decoys_glide_SP


$$$$
