@<TRIPOS>MOLECULE
ZINC13142603_5674
58   62    1
SMALL
USER_CHARGES


@<TRIPOS>ATOM
      1 C1         -1.3686   47.9320   25.3231 C.3       1 UNK         0.0000 
      2 C2         -1.5004   48.8514   24.1114 C.2       1 UNK         0.0000 
      3 C3         -0.8153   50.0037   23.8900 C.2       1 UNK         0.0000 
      4 C4         -1.0183   50.7959   22.5743 C.3       1 UNK         0.0000 
      5 H5         -1.3382   51.8033   22.8498 H         1 UNK         0.0000 
      6 C6         -2.2247   50.2316   21.7690 C.2       1 UNK         0.0000 
      7 C7         -2.7596   50.8988   20.7146 C.2       1 UNK         0.0000 
      8 C8         -3.8750   50.3858   19.8105 C.3       1 UNK         0.0000 
      9 C9         -4.7046   49.3273   20.5600 C.3       1 UNK         0.0000 
     10 C10        -3.8419   48.2739   21.2938 C.3       1 UNK         0.0000 
     11 C11        -2.7638   48.9313   22.1662 C.2       1 UNK         0.0000 
     12 N12        -2.3609   48.3063   23.2092 N.2       1 UNK         0.0000 
     13 O13        -2.3190   52.0311   20.2835 O.co2     1 UNK         0.0000 
     14 C14         0.2703   50.9655   21.7360 C.ar      1 UNK         0.0000 
     15 C15         0.6670   49.9268   20.8843 C.ar      1 UNK         0.0000 
     16 C16         1.8462   50.0118   20.1314 C.ar      1 UNK         0.0000 
     17 C17         2.6247   51.1624   20.2369 C.ar      1 UNK         0.0000 
     18 C18         2.2524   52.2011   21.0877 C.ar      1 UNK         0.0000 
     19 C19         1.0809   52.1131   21.8555 C.ar      1 UNK         0.0000 
     20 O20         0.7042   53.0837   22.7682 O.3       1 UNK         0.0000 
     21 C21         1.6500   54.0528   23.2105 C.3       1 UNK         0.0000 
     22 O22         2.3042   49.0246   19.2826 O.3       1 UNK         0.0000 
     23 C23         1.5560   47.8252   19.1358 C.3       1 UNK         0.0000 
     24 C24         0.1135   50.5856   24.8355 C.2       1 UNK         0.0000 
     25 O25         1.2535   50.8576   24.4816 O.2       1 UNK         0.0000 
     26 N26        -0.3871   50.8847   26.0535 N.am      1 UNK         0.0000 
     27 C27         0.1844   51.7384   26.9904 C.2       1 UNK         0.0000 
     28 N28        -0.3117   51.8117   28.1920 N.2       1 UNK         0.0000 
     29 C29         0.2582   52.8210   28.9041 C.ar      1 UNK         0.0000 
     30 C30        -0.0766   53.1587   30.2225 C.ar      1 UNK         0.0000 
     31 C31         0.5257   54.2820   30.7917 C.ar      1 UNK         0.0000 
     32 C32         1.4534   55.0468   30.0816 C.ar      1 UNK         0.0000 
     33 C33         1.8428   54.7032   28.7896 C.ar      1 UNK         0.0000 
     34 C34         1.2354   53.5838   28.2087 C.ar      1 UNK         0.0000 
     35 S35         1.4727   52.8928   26.6201 S.3       1 UNK         0.0000 
     36 H36        -2.2547   48.0096   25.9552 H         1 UNK         0.0000 
     37 H37        -1.2622   46.8892   25.0188 H         1 UNK         0.0000 
     38 H38        -0.5020   48.1603   25.9432 H         1 UNK         0.0000 
     39 H39        -3.4434   49.9720   18.8985 H         1 UNK         0.0000 
     40 H40        -4.5349   51.1904   19.4796 H         1 UNK         0.0000 
     41 H41        -5.3796   48.8298   19.8628 H         1 UNK         0.0000 
     42 H42        -5.3450   49.8303   21.2878 H         1 UNK         0.0000 
     43 H43        -3.3638   47.6015   20.5817 H         1 UNK         0.0000 
     44 H44        -4.4961   47.6611   21.9162 H         1 UNK         0.0000 
     45 H45         0.0482   49.0451   20.8284 H         1 UNK         0.0000 
     46 H46         3.5309   51.2455   19.6536 H         1 UNK         0.0000 
     47 H47         2.8875   53.0716   21.1433 H         1 UNK         0.0000 
     48 H48         1.2518   54.5407   24.0988 H         1 UNK         0.0000 
     49 H49         2.6010   53.5982   23.4912 H         1 UNK         0.0000 
     50 H50         1.8268   54.8361   22.4761 H         1 UNK         0.0000 
     51 H51         2.0642   47.1705   18.4277 H         1 UNK         0.0000 
     52 H52         1.4741   47.2891   20.0820 H         1 UNK         0.0000 
     53 H53         0.5561   48.0216   18.7456 H         1 UNK         0.0000 
     54 H54        -1.2615   50.4598   26.3236 H         1 UNK         0.0000 
     55 H55        -0.7946   52.5726   30.7811 H         1 UNK         0.0000 
     56 H56         0.2673   54.5668   31.8017 H         1 UNK         0.0000 
     57 H57         1.8880   55.9180   30.5515 H         1 UNK         0.0000 
     58 H58         2.5733   55.2889   28.2500 H         1 UNK         0.0000 
@<TRIPOS>BOND
     1    1    2 1    
     2    1   36 1    
     3    1   37 1    
     4    1   38 1    
     5    2   12 1    
     6    2    3 2    
     7    3    4 1    
     8    3   24 1    
     9    4    5 1    
    10    4    6 1    
    11    4   14 1    
    12    6   11 1    
    13    6    7 2    
    14    7    8 1    
    15    7   13 1    
    16    8    9 1    
    17    8   39 1    
    18    8   40 1    
    19    9   10 1    
    20    9   41 1    
    21    9   42 1    
    22   10   11 1    
    23   10   43 1    
    24   10   44 1    
    25   11   12 2    
    26   14   19 ar   
    27   14   15 ar   
    28   15   16 ar   
    29   15   45 1    
    30   16   17 ar   
    31   16   22 1    
    32   17   18 ar   
    33   17   46 1    
    34   18   19 ar   
    35   18   47 1    
    36   19   20 1    
    37   20   21 1    
    38   21   48 1    
    39   21   49 1    
    40   21   50 1    
    41   22   23 1    
    42   23   51 1    
    43   23   52 1    
    44   23   53 1    
    45   24   25 2    
    46   24   26 am   BACKBONE|DICT|INTERRES
    47   26   27 am   BACKBONE|DICT|INTERRES
    48   26   54 1    
    49   27   35 1    
    50   27   28 2    
    51   28   29 1    
    52   29   34 ar   
    53   29   30 ar   
    54   30   31 ar   
    55   30   55 1    
    56   31   32 ar   
    57   31   56 1    
    58   32   33 ar   
    59   32   57 1    
    60   33   34 ar   
    61   33   58 1    
    62   34   35 1    
@<TRIPOS>SUBSTRUCTURE
     1 UNK         1 GROUP             0       ****    0 ROOT    
