@<TRIPOS>MOLECULE
ZINC33633865_939
56   60    1
SMALL
USER_CHARGES


@<TRIPOS>ATOM
      1 C1          4.5810   53.6930   28.5215 C.ar      1 UNK         0.0000 
      2 C2          3.8270   53.2818   29.6204 C.ar      1 UNK         0.0000 
      3 C3          2.4555   53.0782   29.4823 C.ar      1 UNK         0.0000 
      4 C4          1.8275   53.2899   28.2593 C.ar      1 UNK         0.0000 
      5 C5          2.5791   53.6954   27.1610 C.ar      1 UNK         0.0000 
      6 C6          3.9604   53.8915   27.2842 C.ar      1 UNK         0.0000 
      7 C7          4.7719   54.2611   26.0867 C.2       1 UNK         0.0000 
      8 C8          6.1060   54.5874   25.8715 C.2       1 UNK         0.0000 
      9 C9          6.2717   54.7430   24.4912 C.2       1 UNK         0.0000 
     10 C10         5.0348   54.4941   23.9081 C.2       1 UNK         0.0000 
     11 O11         4.1315   54.2478   24.8897 O.3       1 UNK         0.0000 
     12 C12         4.4857   54.4517   22.4884 C.3       1 UNK         0.0000 
     13 H13         3.8065   55.2942   22.3415 H         1 UNK         0.0000 
     14 C14         5.5170   54.3666   21.3882 C.3       1 UNK         0.0000 
     15 H15         6.3041   53.6967   21.7422 H         1 UNK         0.0000 
     16 C16         4.6790   53.9003   20.2733 C.3       1 UNK         0.0000 
     17 H17         3.8257   54.5449   20.0306 H         1 UNK         0.0000 
     18 C18         5.6686   53.9913   19.1294 C.2       1 UNK         0.0000 
     19 O19         5.6980   53.2970   18.1181 O.2       1 UNK         0.0000 
     20 N20         6.4175   55.0921   19.4377 N.am      1 UNK         0.0000 
     21 C21         6.2560   55.5052   20.7275 C.2       1 UNK         0.0000 
     22 O22         6.7077   56.4980   21.2817 O.2       1 UNK         0.0000 
     23 C23         7.3845   55.7263   18.5208 C.3       1 UNK         0.0000 
     24 C24         8.6665   54.8850   18.2719 C.3       1 UNK         0.0000 
     25 C25         9.6783   55.5668   17.3333 C.3       1 UNK         0.0000 
     26 C26         9.0278   56.0370   16.0208 C.3       1 UNK         0.0000 
     27 C27         7.8273   56.9605   16.2925 C.3       1 UNK         0.0000 
     28 C28         6.7809   56.3008   17.2100 C.3       1 UNK         0.0000 
     29 O29         4.2124   52.7277   20.9144 O.3       1 UNK         0.0000 
     30 N30         3.8014   53.1598   22.2652 N.3       1 UNK         0.0000 
     31 C31         2.3355   53.2466   22.2744 C.3       1 UNK         0.0000 
     32 C32         1.6812   51.8720   22.5105 C.2       1 UNK         0.0000 
     33 O33         2.3043   50.8142   22.4816 O.2       1 UNK         0.0000 
     34 N34         0.3726   51.8767   22.7553 N.am      1 UNK         0.0000 
     35 Br35        1.4288   52.4967   30.9743 Br        1 UNK         0.0000 
     36 H36         5.6464   53.8358   28.6319 H         1 UNK         0.0000 
     37 H37         4.3041   53.1086   30.5717 H         1 UNK         0.0000 
     38 H38         0.7642   53.1261   28.1597 H         1 UNK         0.0000 
     39 H39         2.0815   53.8385   26.2115 H         1 UNK         0.0000 
     40 H40         6.8707   54.6757   26.6291 H         1 UNK         0.0000 
     41 H41         7.1873   54.9868   23.9714 H         1 UNK         0.0000 
     42 H42         7.7595   56.6154   19.0342 H         1 UNK         0.0000 
     43 H43         8.3907   53.9246   17.8314 H         1 UNK         0.0000 
     44 H44         9.1588   54.6635   19.2213 H         1 UNK         0.0000 
     45 H45        10.5006   54.8820   17.1161 H         1 UNK         0.0000 
     46 H46        10.1262   56.4210   17.8452 H         1 UNK         0.0000 
     47 H47         8.6995   55.1705   15.4434 H         1 UNK         0.0000 
     48 H48         9.7635   56.5530   15.4027 H         1 UNK         0.0000 
     49 H49         7.3608   57.2509   15.3489 H         1 UNK         0.0000 
     50 H50         8.1788   57.8863   16.7531 H         1 UNK         0.0000 
     51 H51         6.0032   57.0291   17.4471 H         1 UNK         0.0000 
     52 H52         6.2980   55.4990   16.6483 H         1 UNK         0.0000 
     53 H53         2.0241   53.8995   23.0905 H         1 UNK         0.0000 
     54 H54         1.9471   53.6958   21.3647 H         1 UNK         0.0000 
     55 H55        -0.0864   50.9947   22.9207 H         1 UNK         0.0000 
     56 H56        -0.1441   52.7387   22.8049 H         1 UNK         0.0000 
@<TRIPOS>BOND
     1    1    6 ar   
     2    1    2 ar   
     3    1   36 1    
     4    2    3 ar   
     5    2   37 1    
     6    3    4 ar   
     7    3   35 1    
     8    4    5 ar   
     9    4   38 1    
    10    5    6 ar   
    11    5   39 1    
    12    6    7 1    
    13    7   11 1    
    14    7    8 2    
    15    8    9 1    
    16    8   40 1    
    17    9   10 2    
    18    9   41 1    
    19   10   11 1    
    20   10   12 1    
    21   12   13 1    
    22   12   30 1    
    23   12   14 1    
    24   14   15 1    
    25   14   21 1    
    26   14   16 1    
    27   16   17 1    
    28   16   18 1    
    29   16   29 1    
    30   18   19 2    
    31   18   20 am   BACKBONE|DICT|INTERRES
    32   20   21 am   BACKBONE|DICT|INTERRES
    33   20   23 1    
    34   21   22 2    
    35   23   28 1    
    36   23   24 1    
    37   23   42 1    
    38   24   25 1    
    39   24   43 1    
    40   24   44 1    
    41   25   26 1    
    42   25   45 1    
    43   25   46 1    
    44   26   27 1    
    45   26   47 1    
    46   26   48 1    
    47   27   28 1    
    48   27   49 1    
    49   27   50 1    
    50   28   51 1    
    51   28   52 1    
    52   29   30 1    
    53   30   31 1    
    54   31   32 1    
    55   31   53 1    
    56   31   54 1    
    57   32   33 2    
    58   32   34 am   BACKBONE|DICT|INTERRES
    59   34   55 1    
    60   34   56 1    
@<TRIPOS>SUBSTRUCTURE
     1 UNK         1 GROUP             0       ****    0 ROOT    
