@<TRIPOS>MOLECULE
ZINC35057845_3319
62   66    1
SMALL
USER_CHARGES


@<TRIPOS>ATOM
      1 C1         -4.2028   50.9088   28.3403 C.3       1 UNK         0.0000 
      2 C2         -3.8664   51.3890   26.9326 C.2       1 UNK         0.0000 
      3 O3         -4.3583   52.4268   26.4900 O.2       1 UNK         0.0000 
      4 N4         -3.0066   50.6238   26.2532 N.am      1 UNK         0.0000 
      5 C5         -2.4954   50.8780   24.9030 C.3       1 UNK         0.0000 
      6 H6         -3.2660   51.4157   24.3450 H         1 UNK         0.0000 
      7 C7         -2.2001   49.5769   24.1002 C.3       1 UNK         0.0000 
      8 H8         -3.1451   49.0718   23.8859 H         1 UNK         0.0000 
      9 C9         -1.5092   49.8679   22.7558 C.3       1 UNK         0.0000 
     10 H10        -1.1474   48.9158   22.3609 H         1 UNK         0.0000 
     11 C11        -0.3328   50.8469   22.9402 C.3       1 UNK         0.0000 
     12 H12         0.4644   50.3353   23.4831 H         1 UNK         0.0000 
     13 C13         0.1796   51.2932   21.5576 C.3       1 UNK         0.0000 
     14 O14        -0.8901   51.6448   20.6769 O.3       1 UNK         0.0000 
     15 C15        -1.8459   50.6192   20.5770 C.3       1 UNK         0.0000 
     16 H16        -1.3809   49.6958   20.2145 H         1 UNK         0.0000 
     17 O17        -2.4515   50.4184   21.8302 O.3       1 UNK         0.0000 
     18 C18        -2.9072   51.0095   19.5307 C.ar      1 UNK         0.0000 
     19 C19        -2.5447   51.7943   18.4289 C.ar      1 UNK         0.0000 
     20 C20        -3.4915   52.1289   17.4654 C.ar      1 UNK         0.0000 
     21 C21        -4.8041   51.6840   17.6035 C.ar      1 UNK         0.0000 
     22 C22        -5.1751   50.8965   18.6932 C.ar      1 UNK         0.0000 
     23 C23        -4.2256   50.5562   19.6538 C.ar      1 UNK         0.0000 
     24 O24        -0.7921   52.0268   23.6077 O.3       1 UNK         0.0000 
     25 C25        -1.2601   51.8012   24.9120 C.3       1 UNK         0.0000 
     26 H26        -1.5163   52.7959   25.2849 H         1 UNK         0.0000 
     27 O27        -0.2990   51.2276   25.7572 O.3       1 UNK         0.0000 
     28 C28         0.7042   52.0175   26.2671 C.ar      1 UNK         0.0000 
     29 C29         1.4207   52.9293   25.4880 C.ar      1 UNK         0.0000 
     30 C30         2.4671   53.6673   26.0293 C.ar      1 UNK         0.0000 
     31 C31         2.8350   53.4923   27.3845 C.ar      1 UNK         0.0000 
     32 C32         3.9167   54.2016   27.9591 C.ar      1 UNK         0.0000 
     33 C33         4.2708   53.9837   29.2869 C.ar      1 UNK         0.0000 
     34 C34         3.5641   53.0799   30.0720 C.ar      1 UNK         0.0000 
     35 C35         2.4792   52.3838   29.5446 C.ar      1 UNK         0.0000 
     36 C36         2.1050   52.5639   28.1898 C.ar      1 UNK         0.0000 
     37 C37         1.0414   51.8327   27.6058 C.ar      1 UNK         0.0000 
     38 O38        -1.3722   48.6690   24.8453 O.3       1 UNK         0.0000 
     39 C39        -2.0268   47.6537   25.6240 C.3       1 UNK         0.0000 
     40 C40        -2.5383   46.4968   24.7442 C.2       1 UNK         0.0000 
     41 O41        -3.3408   45.6974   25.2816 O.co2     1 UNK         0.0000 
     42 O42        -2.1158   46.3751   23.5744 O.co2     1 UNK         0.0000 
     43 H43        -3.2927   50.6461   28.8879 H         1 UNK         0.0000 
     44 H44        -4.7300   51.6797   28.9020 H         1 UNK         0.0000 
     45 H45        -4.8388   50.0223   28.2904 H         1 UNK         0.0000 
     46 H46        -2.5970   49.8256   26.7271 H         1 UNK         0.0000 
     47 H47         0.8551   52.1448   21.6571 H         1 UNK         0.0000 
     48 H48         0.7661   50.5070   21.0840 H         1 UNK         0.0000 
     49 H49        -1.5273   52.1381   18.3138 H         1 UNK         0.0000 
     50 H50        -3.2094   52.7313   16.6135 H         1 UNK         0.0000 
     51 H51        -5.5401   51.9391   16.8531 H         1 UNK         0.0000 
     52 H52        -6.1932   50.5476   18.7913 H         1 UNK         0.0000 
     53 H53        -4.5159   49.9397   20.4941 H         1 UNK         0.0000 
     54 H54         1.1845   53.0593   24.4432 H         1 UNK         0.0000 
     55 H55         3.0161   54.3659   25.4127 H         1 UNK         0.0000 
     56 H56         4.4778   54.9003   27.3557 H         1 UNK         0.0000 
     57 H57         5.1106   54.5210   29.7028 H         1 UNK         0.0000 
     58 H58         3.8607   52.9043   31.0955 H         1 UNK         0.0000 
     59 H59         1.9204   51.6948   30.1579 H         1 UNK         0.0000 
     60 H60         0.4963   51.1139   28.2019 H         1 UNK         0.0000 
     61 H61        -1.2963   47.2400   26.3120 H         1 UNK         0.0000 
     62 H62        -2.8403   48.0625   26.2202 H         1 UNK         0.0000 
@<TRIPOS>BOND
     1    1    2 1    
     2    1   43 1    
     3    1   44 1    
     4    1   45 1    
     5    2    3 2    
     6    2    4 am   BACKBONE|DICT|INTERRES
     7    4    5 1    
     8    4   46 1    
     9    5    6 1    
    10    5   25 1    
    11    5    7 1    
    12    7    8 1    
    13    7    9 1    
    14    7   38 1    
    15    9   10 1    
    16    9   17 1    
    17    9   11 1    
    18   11   12 1    
    19   11   13 1    
    20   11   24 1    
    21   13   14 1    
    22   13   47 1    
    23   13   48 1    
    24   14   15 1    
    25   15   16 1    
    26   15   17 1    
    27   15   18 1    
    28   18   23 ar   
    29   18   19 ar   
    30   19   20 ar   
    31   19   49 1    
    32   20   21 ar   
    33   20   50 1    
    34   21   22 ar   
    35   21   51 1    
    36   22   23 ar   
    37   22   52 1    
    38   23   53 1    
    39   24   25 1    
    40   25   26 1    
    41   25   27 1    
    42   27   28 1    
    43   28   37 ar   
    44   28   29 ar   
    45   29   30 ar   
    46   29   54 1    
    47   30   31 ar   
    48   30   55 1    
    49   31   36 ar   
    50   31   32 ar   
    51   32   33 ar   
    52   32   56 1    
    53   33   34 ar   
    54   33   57 1    
    55   34   35 ar   
    56   34   58 1    
    57   35   36 ar   
    58   35   59 1    
    59   36   37 ar   
    60   37   60 1    
    61   38   39 1    
    62   39   40 1    
    63   39   61 1    
    64   39   62 1    
    65   40   41 2    
    66   40   42 1    
@<TRIPOS>SUBSTRUCTURE
     1 UNK         1 GROUP             0       ****    0 ROOT    
