@<TRIPOS>MOLECULE
ZINC00622878_2381
52   56    1
SMALL
USER_CHARGES


@<TRIPOS>ATOM
      1 C1          0.6472   54.1369   30.5108 C.ar      1 UNK         0.0000 
      2 C2          1.1703   55.3404   30.0437 C.ar      1 UNK         0.0000 
      3 C3          2.3154   55.3338   29.2534 C.ar      1 UNK         0.0000 
      4 C4          2.9464   54.1234   28.9548 C.ar      1 UNK         0.0000 
      5 C5          2.4223   52.9189   29.4351 C.ar      1 UNK         0.0000 
      6 C6          1.2627   52.9255   30.2069 C.ar      1 UNK         0.0000 
      7 C7          4.2020   54.1113   28.1649 C.ar      1 UNK         0.0000 
      8 C8          4.4408   54.2124   26.7589 C.ar      1 UNK         0.0000 
      9 C9          5.8279   54.1798   26.7175 C.ar      1 UNK         0.0000 
     10 N10         6.3084   54.0899   27.9814 N.pl3     1 UNK         0.0000 
     11 H11         7.2820   54.0694   28.2466 H         1 UNK         0.0000 
     12 N12         5.3192   54.0506   28.8667 N.2       1 UNK         0.0000 
     13 O13         6.6630   54.2552   25.6360 O.3       1 UNK         0.0000 
     14 C14         6.0038   54.3457   24.4525 C.2       1 UNK         0.0000 
     15 C15         4.6588   54.3829   24.2657 C.2       1 UNK         0.0000 
     16 C16         3.6303   54.3067   25.4337 C.3       1 UNK         0.0000 
     17 H17         3.1147   55.2664   25.4521 H         1 UNK         0.0000 
     18 C18         2.4387   53.3286   25.2687 C.ar      1 UNK         0.0000 
     19 C19         2.2897   52.4961   24.1505 C.ar      1 UNK         0.0000 
     20 C20         1.2134   51.6184   24.0366 C.ar      1 UNK         0.0000 
     21 C21         0.2495   51.5623   25.0381 C.ar      1 UNK         0.0000 
     22 C22         0.3375   52.4177   26.1444 C.ar      1 UNK         0.0000 
     23 C23         1.4221   53.2942   26.2279 C.ar      1 UNK         0.0000 
     24 O24        -0.6042   52.4948   27.1539 O.3       1 UNK         0.0000 
     25 C25        -1.6682   51.5390   27.2377 C.3       1 UNK         0.0000 
     26 C26        -2.9356   51.9857   26.4988 C.ar      1 UNK         0.0000 
     27 C27        -2.8908   52.8966   25.4343 C.ar      1 UNK         0.0000 
     28 C28        -4.0607   53.2983   24.7897 C.ar      1 UNK         0.0000 
     29 C29        -5.2918   52.7878   25.1963 C.ar      1 UNK         0.0000 
     30 C30        -5.3481   51.8746   26.2494 C.ar      1 UNK         0.0000 
     31 C31        -4.1797   51.4757   26.8978 C.ar      1 UNK         0.0000 
     32 F32        -4.2672   50.6024   27.9277 F         1 UNK         0.0000 
     33 C33         4.1970   54.4879   22.9176 C.1       1 UNK         0.0000 
     34 N34         3.9047   54.4953   21.8014 N.1       1 UNK         0.0000 
     35 N35         6.9531   54.4073   23.4693 N.pl3     1 UNK         0.0000 
     36 H36        -0.2407   54.1404   31.1255 H         1 UNK         0.0000 
     37 H37         0.6984   56.2771   30.2977 H         1 UNK         0.0000 
     38 H38         2.7148   56.2683   28.8901 H         1 UNK         0.0000 
     39 H39         2.9061   51.9816   29.1985 H         1 UNK         0.0000 
     40 H40         0.8423   52.0015   30.5732 H         1 UNK         0.0000 
     41 H41         3.0172   52.4720   23.3587 H         1 UNK         0.0000 
     42 H42         1.1358   50.9736   23.1746 H         1 UNK         0.0000 
     43 H43        -0.5737   50.8759   24.9205 H         1 UNK         0.0000 
     44 H44         1.4311   53.9911   27.0422 H         1 UNK         0.0000 
     45 H45        -1.3718   50.5311   26.9400 H         1 UNK         0.0000 
     46 H46        -1.9033   51.4638   28.2996 H         1 UNK         0.0000 
     47 H47        -1.9496   53.2967   25.0953 H         1 UNK         0.0000 
     48 H48        -4.0098   54.0044   23.9734 H         1 UNK         0.0000 
     49 H49        -6.1975   53.0940   24.6920 H         1 UNK         0.0000 
     50 H50        -6.2984   51.4730   26.5655 H         1 UNK         0.0000 
     51 H51         6.6760   54.4219   22.4984 H         1 UNK         0.0000 
     52 H52         7.8958   54.7079   23.6817 H         1 UNK         0.0000 
@<TRIPOS>BOND
     1    1    6 ar   
     2    1    2 ar   
     3    1   36 1    
     4    2    3 ar   
     5    2   37 1    
     6    3    4 ar   
     7    3   38 1    
     8    4    5 ar   
     9    4    7 1    
    10    5    6 ar   
    11    5   39 1    
    12    6   40 1    
    13    7   12 ar   
    14    7    8 ar   
    15    8   16 1    
    16    8    9 ar   
    17    9   10 ar   
    18    9   13 1    
    19   10   11 1    
    20   10   12 ar   
    21   13   14 1    
    22   14   15 2    
    23   14   35 1    
    24   15   16 1    
    25   15   33 1    
    26   16   17 1    
    27   16   18 1    
    28   18   23 ar   
    29   18   19 ar   
    30   19   20 ar   
    31   19   41 1    
    32   20   21 ar   
    33   20   42 1    
    34   21   22 ar   
    35   21   43 1    
    36   22   23 ar   
    37   22   24 1    
    38   23   44 1    
    39   24   25 1    
    40   25   26 1    
    41   25   45 1    
    42   25   46 1    
    43   26   31 ar   
    44   26   27 ar   
    45   27   28 ar   
    46   27   47 1    
    47   28   29 ar   
    48   28   48 1    
    49   29   30 ar   
    50   29   49 1    
    51   30   31 ar   
    52   30   50 1    
    53   31   32 1    
    54   33   34 3    
    55   35   51 1    
    56   35   52 1    
@<TRIPOS>SUBSTRUCTURE
     1 UNK         1 GROUP             0       ****    0 ROOT    
