@<TRIPOS>MOLECULE
ZINC63830752_4101
69   73    1
SMALL
USER_CHARGES


@<TRIPOS>ATOM
      1 C1         -0.9245   47.4999   19.9640 C.3       1 UNK         0.0000 
      2 C2         -2.2285   46.6928   19.7530 C.3       1 UNK         0.0000 
      3 H3         -1.9589   45.6346   19.7624 H         1 UNK         0.0000 
      4 C4         -2.7678   46.9798   18.3262 C.3       1 UNK         0.0000 
      5 C5         -4.0037   46.1343   17.9589 C.3       1 UNK         0.0000 
      6 C6         -5.1239   46.2879   19.0013 C.3       1 UNK         0.0000 
      7 C7         -4.5953   45.9816   20.4134 C.3       1 UNK         0.0000 
      8 C8         -3.3810   46.8775   20.8046 C.3       1 UNK         0.0000 
      9 C9         -2.8786   46.4329   22.1782 C.2       1 UNK         0.0000 
     10 O10        -2.4957   45.2977   22.4815 O.2       1 UNK         0.0000 
     11 N11        -2.8870   47.5505   22.9405 N.am      1 UNK         0.0000 
     12 C12        -3.4719   48.6261   22.3453 C.2       1 UNK         0.0000 
     13 O13        -3.9160   49.6366   22.8943 O.2       1 UNK         0.0000 
     14 N14        -3.7125   48.2470   21.0865 N.am      1 UNK         0.0000 
     15 C15        -2.3096   47.5790   24.3066 C.3       1 UNK         0.0000 
     16 C16        -1.0950   48.5232   24.4270 C.2       1 UNK         0.0000 
     17 O17        -0.5703   49.0476   23.4446 O.2       1 UNK         0.0000 
     18 N18        -0.6994   48.7638   25.6816 N.am      1 UNK         0.0000 
     19 C19         0.2747   49.7651   26.1168 C.3       1 UNK         0.0000 
     20 C20        -0.4229   50.9500   26.8372 C.3       1 UNK         0.0000 
     21 H21        -1.0396   50.4967   27.6121 H         1 UNK         0.0000 
     22 C22         0.5444   51.8627   27.5939 C.ar      1 UNK         0.0000 
     23 C23         0.4012   52.0235   28.9758 C.ar      1 UNK         0.0000 
     24 C24         1.3224   52.7790   29.6948 C.ar      1 UNK         0.0000 
     25 C25         2.4061   53.3742   29.0522 C.ar      1 UNK         0.0000 
     26 C26         2.5287   53.2471   27.6593 C.ar      1 UNK         0.0000 
     27 C27         1.6015   52.4993   26.9360 C.ar      1 UNK         0.0000 
     28 O28         3.3027   54.0518   29.8583 O.3       1 UNK         0.0000 
     29 C29         4.5305   54.5028   29.2920 C.3       1 UNK         0.0000 
     30 C30        -1.4166   51.6911   25.9493 C.2       1 UNK         0.0000 
     31 C31        -2.7541   51.8083   26.0621 C.2       1 UNK         0.0000 
     32 C32        -3.6777   51.2915   27.0843 C.2       1 UNK         0.0000 
     33 C33        -5.0019   51.5199   26.9945 C.2       1 UNK         0.0000 
     34 C34        -5.4866   52.2931   25.8578 C.2       1 UNK         0.0000 
     35 C35        -4.6472   52.7680   24.9005 C.2       1 UNK         0.0000 
     36 C36        -3.2710   52.5228   24.9778 C.2       1 UNK         0.0000 
     37 N37        -2.3114   52.8642   24.1534 N.pl3     1 UNK         0.0000 
     38 C38        -1.0167   52.3695   24.6510 C.3       1 UNK         0.0000 
     39 H39        -1.0976   48.5752   19.8897 H         1 UNK         0.0000 
     40 H40        -0.4990   47.3075   20.9487 H         1 UNK         0.0000 
     41 H41        -0.1640   47.2361   19.2253 H         1 UNK         0.0000 
     42 H42        -1.9813   46.7904   17.5929 H         1 UNK         0.0000 
     43 H43        -2.9919   48.0418   18.2179 H         1 UNK         0.0000 
     44 H44        -3.7170   45.0852   17.8836 H         1 UNK         0.0000 
     45 H45        -4.3706   46.4214   16.9737 H         1 UNK         0.0000 
     46 H46        -5.9517   45.6197   18.7588 H         1 UNK         0.0000 
     47 H47        -5.5293   47.2996   18.9647 H         1 UNK         0.0000 
     48 H48        -5.4148   46.1637   21.1128 H         1 UNK         0.0000 
     49 H49        -4.3737   44.9214   20.5417 H         1 UNK         0.0000 
     50 H50        -3.8611   48.9096   20.3396 H         1 UNK         0.0000 
     51 H51        -3.0785   47.9128   25.0045 H         1 UNK         0.0000 
     52 H52        -1.9956   46.5853   24.6294 H         1 UNK         0.0000 
     53 H53        -1.1177   48.2360   26.4446 H         1 UNK         0.0000 
     54 H54         0.9674   49.2701   26.7979 H         1 UNK         0.0000 
     55 H55         0.8824   50.1220   25.2828 H         1 UNK         0.0000 
     56 H56        -0.4082   51.5433   29.5055 H         1 UNK         0.0000 
     57 H57         1.2083   52.8767   30.7654 H         1 UNK         0.0000 
     58 H58         3.3474   53.7039   27.1244 H         1 UNK         0.0000 
     59 H59         1.7281   52.3896   25.8687 H         1 UNK         0.0000 
     60 H60         5.1541   54.9199   30.0815 H         1 UNK         0.0000 
     61 H61         5.0889   53.6842   28.8341 H         1 UNK         0.0000 
     62 H62         4.3646   55.2827   28.5484 H         1 UNK         0.0000 
     63 H63        -3.3243   50.7019   27.9198 H         1 UNK         0.0000 
     64 H64        -5.6860   51.1278   27.7332 H         1 UNK         0.0000 
     65 H65        -6.5470   52.4883   25.7725 H         1 UNK         0.0000 
     66 H66        -5.0719   53.3304   24.0815 H         1 UNK         0.0000 
     67 H67        -0.3448   53.2170   24.7719 H         1 UNK         0.0000 
     68 H68        -0.6118   51.6781   23.9098 H         1 UNK         0.0000 
     69 H69        -2.4329   53.3796   23.2857 H         1 UNK         0.0000 
@<TRIPOS>BOND
     1    1    2 1    
     2    1   39 1    
     3    1   40 1    
     4    1   41 1    
     5    2    3 1    
     6    2    8 1    
     7    2    4 1    
     8    4    5 1    
     9    4   42 1    
    10    4   43 1    
    11    5    6 1    
    12    5   44 1    
    13    5   45 1    
    14    6    7 1    
    15    6   46 1    
    16    6   47 1    
    17    7    8 1    
    18    7   48 1    
    19    7   49 1    
    20    8   14 1    
    21    8    9 1    
    22    9   10 2    
    23    9   11 am   BACKBONE|DICT|INTERRES
    24   11   12 am   BACKBONE|DICT|INTERRES
    25   11   15 1    
    26   12   13 2    
    27   12   14 am   BACKBONE|DICT|INTERRES
    28   14   50 1    
    29   15   16 1    
    30   15   51 1    
    31   15   52 1    
    32   16   17 2    
    33   16   18 am   BACKBONE|DICT|INTERRES
    34   18   19 1    
    35   18   53 1    
    36   19   20 1    
    37   19   54 1    
    38   19   55 1    
    39   20   21 1    
    40   20   22 1    
    41   20   30 1    
    42   22   27 ar   
    43   22   23 ar   
    44   23   24 ar   
    45   23   56 1    
    46   24   25 ar   
    47   24   57 1    
    48   25   26 ar   
    49   25   28 1    
    50   26   27 ar   
    51   26   58 1    
    52   27   59 1    
    53   28   29 1    
    54   29   60 1    
    55   29   61 1    
    56   29   62 1    
    57   30   38 1    
    58   30   31 2    
    59   31   36 1    
    60   31   32 1    
    61   32   33 2    
    62   32   63 1    
    63   33   34 1    
    64   33   64 1    
    65   34   35 2    
    66   34   65 1    
    67   35   36 1    
    68   35   66 1    
    69   36   37 2    
    70   37   38 1    
    71   37   69 1    
    72   38   67 1    
    73   38   68 1    
@<TRIPOS>SUBSTRUCTURE
     1 UNK         1 GROUP             0       ****    0 ROOT    
