ZINC38651538_5212
                    3D
 Schrodinger Suite 2024-2.
 44 47  0  0  1  0            999 V2000
    3.0205   54.6868   29.4091 C   0  0  0  0  0  0
    2.0935   54.1576   28.5153 C   0  0  0  0  0  0
    2.5167   53.4767   27.3658 C   0  0  0  0  0  0
    3.8928   53.3658   27.1230 C   0  0  0  0  0  0
    4.8231   53.8737   28.0278 C   0  0  0  0  0  0
    4.3864   54.5259   29.1776 C   0  0  0  0  0  0
    6.6863   53.6968   27.6813 Br  0  0  0  0  0  0
    1.4684   52.9447   26.3744 C   0  0  1  0  0  0
    0.7045   53.6967   26.4245 H   0  0  0  0  0  0
    1.8500   52.9315   24.8888 C   0  0  0  0  0  0
    2.5087   54.0100   24.2859 C   0  0  0  0  0  0
    2.8493   53.9793   22.9385 C   0  0  0  0  0  0
    2.5594   52.8538   22.1556 C   0  0  0  0  0  0
    1.8628   51.7898   22.7329 C   0  0  0  0  0  0
    1.5041   51.8318   24.0813 C   0  0  0  0  0  0
    0.7917   50.7490   24.5673 O   0  0  0  0  0  0
    0.3962   50.7356   25.8684 C   0  0  0  0  0  0
    0.6949   51.6909   26.7746 C   0  0  0  0  0  0
    0.1872   51.6331   28.1075 C   0  0  0  0  0  0
   -0.2172   51.6967   29.1889 N   0  0  0  0  0  0
   -0.2987   49.5762   26.0817 N   0  0  0  0  0  0
    2.8909   52.7824   20.8169 O   0  0  0  0  0  0
    4.1407   53.1324   20.3661 C   0  0  0  0  0  0
    5.1044   53.3539   21.1069 O   0  0  0  0  0  0
    4.2184   53.2458   18.8742 C   0  0  0  0  0  0
    3.1412   52.8966   18.0416 C   0  0  0  0  0  0
    3.2556   52.9903   16.6543 C   0  0  0  0  0  0
    4.4451   53.4333   16.0789 C   0  0  0  0  0  0
    5.5204   53.7876   16.8920 C   0  0  0  0  0  0
    5.4070   53.6968   18.2790 C   0  0  0  0  0  0
    6.9958   54.3340   16.1824 Cl  0  0  0  0  0  0
    2.6715   55.2303   30.2736 H   0  0  0  0  0  0
    1.0393   54.2884   28.7159 H   0  0  0  0  0  0
    4.2547   52.8967   26.2230 H   0  0  0  0  0  0
    5.1096   54.9328   29.8684 H   0  0  0  0  0  0
    2.7606   54.8880   24.8639 H   0  0  0  0  0  0
    3.3513   54.8306   22.5025 H   0  0  0  0  0  0
    1.6016   50.9291   22.1348 H   0  0  0  0  0  0
   -0.7198   49.3642   26.9859 H   0  0  0  0  0  0
   -0.1406   48.7853   25.4759 H   0  0  0  0  0  0
    2.2090   52.5390   18.4552 H   0  0  0  0  0  0
    2.4245   52.7067   16.0258 H   0  0  0  0  0  0
    4.5355   53.4966   15.0047 H   0  0  0  0  0  0
    6.2593   53.9664   18.8868 H   0  0  0  0  0  0
  1  6  2  0  0  0
  1  2  1  0  0  0
  1 32  1  0  0  0
  2  3  2  0  0  0
  2 33  1  0  0  0
  3  4  1  0  0  0
  3  8  1  0  0  0
  4  5  2  0  0  0
  4 34  1  0  0  0
  5  6  1  0  0  0
  5  7  1  0  0  0
  6 35  1  0  0  0
  8  9  1  0  0  0
  8 18  1  0  0  0
  8 10  1  0  0  0
 10 15  2  0  0  0
 10 11  1  0  0  0
 11 12  2  0  0  0
 11 36  1  0  0  0
 12 13  1  0  0  0
 12 37  1  0  0  0
 13 14  2  0  0  0
 13 22  1  0  0  0
 14 15  1  0  0  0
 14 38  1  0  0  0
 15 16  1  0  0  0
 16 17  1  0  0  0
 17 18  2  0  0  0
 17 21  1  0  0  0
 18 19  1  0  0  0
 19 20  3  0  0  0
 21 39  1  0  0  0
 21 40  1  0  0  0
 22 23  1  0  0  0
 23 24  2  0  0  0
 23 25  1  0  0  0
 25 30  2  0  0  0
 25 26  1  0  0  0
 26 27  2  0  0  0
 26 41  1  0  0  0
 27 28  1  0  0  0
 27 42  1  0  0  0
 28 29  2  0  0  0
 28 43  1  0  0  0
 29 30  1  0  0  0
 29 31  1  0  0  0
 30 44  1  0  0  0
M  END
> <i_i_glide_confnum>
6

> <i_i_glide_lignum>
5213

> <i_i_glide_posenum>
284

> <i_i_glide_rotatable_bonds>
5

> <i_m_Source_File_Index>
2073

> <b_m_subgroup_collapsed>
0

> <r_i_docking_score>
-4.75578

> <r_i_glide_ecoul>
-3.66162

> <r_i_glide_eff_state_penalty>
0

> <r_i_glide_einternal>
3.06153

> <r_i_glide_emodel>
-52.6627

> <r_i_glide_energy>
-43.7525

> <r_i_glide_erotb>
0.34971

> <r_i_glide_esite>
-0.117146

> <r_i_glide_evdw>
-40.0908

> <r_i_glide_gscore>
-4.75578

> <r_i_glide_hbond>
-0.16

> <r_i_glide_ligand_efficiency>
-0.158526

> <r_i_glide_ligand_efficiency_ln>
-1.08056

> <r_i_glide_ligand_efficiency_sa>
-0.492577

> <r_i_glide_lipo>
-2.71686

> <r_i_glide_metal>
0

> <r_i_glide_rewards>
0.442309

> <s_i_glide_gridfile>
wee1_glide-grid

> <s_m_Source_File>
wee1_decoys_glide_SP.sdf

> <s_m_Source_Path>
/Users/zhangxujun/Desktop

> <s_m_entry_id>
2348

> <s_m_entry_name>
wee1_decoys_glide_SP.2073

> <s_m_subgroup_title>
wee1_decoys_glide_SP

> <s_m_subgroupid>
wee1_decoys_glide_SP


$$$$
