ZINC13002436_4672
                    3D
 Schrodinger Suite 2024-2.
 31 32  0  0  1  0            999 V2000
    1.4397   50.4952   16.7568 C   0  0  0  0  0  0
    1.4800   51.2512   18.0808 C   0  0  0  0  0  0
    0.4283   51.6830   18.5604 O   0  0  0  0  0  0
    2.7040   51.4036   18.6221 N   0  0  0  0  0  0
    3.0284   52.0612   19.8173 C   0  0  0  0  0  0
    4.2883   52.6526   19.8868 C   0  0  0  0  0  0
    4.6993   53.2907   21.0529 C   0  0  0  0  0  0
    3.8566   53.3144   22.1759 C   0  0  0  0  0  0
    2.5861   52.7394   22.0975 C   0  0  0  0  0  0
    2.1743   52.1070   20.9285 C   0  0  0  0  0  0
    4.2145   53.8520   23.4251 N   0  0  0  0  0  0
    5.4515   54.0980   23.9058 C   0  0  0  0  0  0
    6.4928   54.1119   23.2471 O   0  0  0  0  0  0
    5.4954   54.2844   25.3311 C   0  0  0  0  0  0
    4.4824   54.3911   26.2924 C   0  0  0  0  0  0
    5.0666   54.4957   27.5618 C   0  0  0  0  0  0
    6.4388   54.4882   27.3649 C   0  0  0  0  0  0
    6.6793   54.3672   26.0227 N   0  0  0  0  0  0
    7.5869   54.2907   25.5854 H   0  0  0  0  0  0
    4.1682   54.6316   29.2347 Br  0  0  0  0  0  0
    1.9877   51.0499   15.9947 H   0  0  0  0  0  0
    0.4113   50.3583   16.4198 H   0  0  0  0  0  0
    1.9039   49.5138   16.8707 H   0  0  0  0  0  0
    3.4902   51.0449   18.0880 H   0  0  0  0  0  0
    4.9584   52.6165   19.0397 H   0  0  0  0  0  0
    5.6771   53.7469   21.0604 H   0  0  0  0  0  0
    1.9220   52.7496   22.9506 H   0  0  0  0  0  0
    1.1996   51.6475   20.9032 H   0  0  0  0  0  0
    3.4696   53.8893   24.1021 H   0  0  0  0  0  0
    3.4172   54.3698   26.1091 H   0  0  0  0  0  0
    7.2527   54.5399   28.0740 H   0  0  0  0  0  0
  1  2  1  0  0  0
  1 21  1  0  0  0
  1 22  1  0  0  0
  1 23  1  0  0  0
  2  3  2  0  0  0
  2  4  1  0  0  0
  4  5  1  0  0  0
  4 24  1  0  0  0
  5 10  2  0  0  0
  5  6  1  0  0  0
  6  7  2  0  0  0
  6 25  1  0  0  0
  7  8  1  0  0  0
  7 26  1  0  0  0
  8  9  2  0  0  0
  8 11  1  0  0  0
  9 10  1  0  0  0
  9 27  1  0  0  0
 10 28  1  0  0  0
 11 12  1  0  0  0
 11 29  1  0  0  0
 12 13  2  0  0  0
 12 14  1  0  0  0
 14 18  1  0  0  0
 14 15  2  0  0  0
 15 16  1  0  0  0
 15 30  1  0  0  0
 16 17  2  0  0  0
 16 20  1  0  0  0
 17 18  1  0  0  0
 17 31  1  0  0  0
 18 19  1  0  0  0
M  END
> <i_i_glide_confnum>
26

> <i_i_glide_lignum>
4673

> <i_i_glide_posenum>
355

> <i_i_glide_rotatable_bonds>
5

> <i_m_Source_File_Index>
5605

> <b_m_subgroup_collapsed>
0

> <r_i_docking_score>
-4.62421

> <r_i_glide_ecoul>
-2.07943

> <r_i_glide_eff_state_penalty>
0

> <r_i_glide_einternal>
8.14145

> <r_i_glide_emodel>
-39.6046

> <r_i_glide_energy>
-32.4842

> <r_i_glide_erotb>
0.720583

> <r_i_glide_esite>
-0.124114

> <r_i_glide_evdw>
-30.4048

> <r_i_glide_gscore>
-4.62421

> <r_i_glide_hbond>
-0.152142

> <r_i_glide_ligand_efficiency>
-0.24338

> <r_i_glide_ligand_efficiency_ln>
-1.17234

> <r_i_glide_ligand_efficiency_sa>
-0.649434

> <r_i_glide_lipo>
-1.68706

> <r_i_glide_metal>
0

> <r_i_glide_rewards>
-1.54932

> <s_i_glide_gridfile>
wee1_glide-grid

> <s_m_Source_File>
wee1_decoys_glide_SP.sdf

> <s_m_Source_Path>
/Users/zhangxujun/Desktop

> <s_m_entry_id>
5880

> <s_m_entry_name>
wee1_decoys_glide_SP.5605

> <s_m_subgroup_title>
wee1_decoys_glide_SP

> <s_m_subgroupid>
wee1_decoys_glide_SP


$$$$
