@<TRIPOS>MOLECULE
ZINC63137374_1149
69   74    1
SMALL
USER_CHARGES


@<TRIPOS>ATOM
      1 C1          9.9453   49.6905   16.6038 C.3       1 UNK         0.0000 
      2 C2         10.4782   51.0493   16.1206 C.3       1 UNK         0.0000 
      3 C3         11.1631   50.9309   14.7418 C.3       1 UNK         0.0000 
      4 C4          9.3851   52.1215   16.1698 C.ar      1 UNK         0.0000 
      5 C5          8.4542   52.2500   15.1330 C.ar      1 UNK         0.0000 
      6 C6          7.4675   53.2300   15.1949 C.ar      1 UNK         0.0000 
      7 C7          7.3929   54.0828   16.2992 C.ar      1 UNK         0.0000 
      8 C8          8.3078   53.9359   17.3463 C.ar      1 UNK         0.0000 
      9 C9          9.3064   52.9751   17.2735 C.ar      1 UNK         0.0000 
     10 C10         6.2906   55.1543   16.3589 C.3       1 UNK         0.0000 
     11 H11         5.6462   54.9831   15.4935 H         1 UNK         0.0000 
     12 C12         6.8610   56.5973   16.1910 C.3       1 UNK         0.0000 
     13 H13         6.0837   57.2785   15.8389 H         1 UNK         0.0000 
     14 C14         7.4666   57.0893   17.4729 C.2       1 UNK         0.0000 
     15 C15         8.7785   57.3183   17.2974 C.2       1 UNK         0.0000 
     16 C16         9.8371   57.7292   18.2277 C.2       1 UNK         0.0000 
     17 C17        11.1005   57.9098   17.7930 C.2       1 UNK         0.0000 
     18 C18        11.3763   57.6944   16.3786 C.2       1 UNK         0.0000 
     19 C19        10.4058   57.3173   15.5044 C.2       1 UNK         0.0000 
     20 C20         9.0923   57.1175   15.9498 C.2       1 UNK         0.0000 
     21 N21         8.0204   56.7494   15.2780 N.pl3     1 UNK         0.0000 
     22 C22         6.5224   57.1834   18.6446 C.3       1 UNK         0.0000 
     23 C23         5.5847   55.9379   18.8009 C.3       1 UNK         0.0000 
     24 H24         4.5846   56.3394   18.9651 H         1 UNK         0.0000 
     25 N25         5.4570   55.0568   17.5869 N.am      1 UNK         0.0000 
     26 C26         4.5295   54.0512   17.6612 C.2       1 UNK         0.0000 
     27 O27         4.1993   53.3313   16.7184 O.2       1 UNK         0.0000 
     28 C28         3.9646   53.8462   19.0906 C.3       1 UNK         0.0000 
     29 N29         4.9597   54.0594   20.1789 N.am      1 UNK         0.0000 
     30 C30         5.8679   55.0763   20.0721 C.2       1 UNK         0.0000 
     31 O31         6.7905   55.2977   20.8577 O.2       1 UNK         0.0000 
     32 C32         4.9081   53.1649   21.3543 C.3       1 UNK         0.0000 
     33 C33         4.0352   53.5940   22.5743 C.3       1 UNK         0.0000 
     34 H34         3.5050   52.6892   22.8760 H         1 UNK         0.0000 
     35 C35         4.7466   54.0503   23.8556 C.ar      1 UNK         0.0000 
     36 C36         3.9861   54.1425   25.0297 C.ar      1 UNK         0.0000 
     37 C37         4.5813   54.4974   26.2358 C.ar      1 UNK         0.0000 
     38 C38         5.9439   54.7783   26.2722 C.ar      1 UNK         0.0000 
     39 C39         6.7072   54.6961   25.1116 C.ar      1 UNK         0.0000 
     40 C40         6.1170   54.3305   23.9081 C.ar      1 UNK         0.0000 
     41 O41         3.0190   54.4966   22.2158 O.3       1 UNK         0.0000 
     42 H42        10.7435   48.9498   16.6554 H         1 UNK         0.0000 
     43 H43         9.5047   49.7665   17.5989 H         1 UNK         0.0000 
     44 H44         9.1823   49.2999   15.9274 H         1 UNK         0.0000 
     45 H45        11.2629   51.3592   16.8151 H         1 UNK         0.0000 
     46 H46        10.5004   50.5038   13.9861 H         1 UNK         0.0000 
     47 H47        11.4974   51.9026   14.3765 H         1 UNK         0.0000 
     48 H48        12.0396   50.2846   14.7946 H         1 UNK         0.0000 
     49 H49         8.4859   51.5893   14.2784 H         1 UNK         0.0000 
     50 H50         6.7526   53.3127   14.3885 H         1 UNK         0.0000 
     51 H51         8.2560   54.5686   18.2185 H         1 UNK         0.0000 
     52 H52        10.0149   52.8967   18.0817 H         1 UNK         0.0000 
     53 H53         9.6415   57.8695   19.2804 H         1 UNK         0.0000 
     54 H54        11.8904   58.1838   18.4775 H         1 UNK         0.0000 
     55 H55        12.3846   57.8348   16.0150 H         1 UNK         0.0000 
     56 H56        10.6672   57.1709   14.4659 H         1 UNK         0.0000 
     57 H57         7.0650   57.4146   19.5587 H         1 UNK         0.0000 
     58 H58         5.8898   58.0584   18.4821 H         1 UNK         0.0000 
     59 H59         3.1044   54.4964   19.2151 H         1 UNK         0.0000 
     60 H60         3.6118   52.8149   19.1223 H         1 UNK         0.0000 
     61 H61         4.5279   52.2065   20.9990 H         1 UNK         0.0000 
     62 H62         5.9045   52.9046   21.6898 H         1 UNK         0.0000 
     63 H63         2.9281   53.9258   25.0049 H         1 UNK         0.0000 
     64 H64         3.9904   54.5576   27.1380 H         1 UNK         0.0000 
     65 H65         6.4108   55.0545   27.2066 H         1 UNK         0.0000 
     66 H66         7.7660   54.8980   25.1374 H         1 UNK         0.0000 
     67 H67         6.7515   54.2638   23.0412 H         1 UNK         0.0000 
     68 H68         2.6671   54.2749   21.3481 H         1 UNK         0.0000 
     69 H69         7.9897   56.5428   14.2839 H         1 UNK         0.0000 
@<TRIPOS>BOND
     1    1    2 1    
     2    1   42 1    
     3    1   43 1    
     4    1   44 1    
     5    2    3 1    
     6    2    4 1    
     7    2   45 1    
     8    3   46 1    
     9    3   47 1    
    10    3   48 1    
    11    4    9 ar   
    12    4    5 ar   
    13    5    6 ar   
    14    5   49 1    
    15    6    7 ar   
    16    6   50 1    
    17    7    8 ar   
    18    7   10 1    
    19    8    9 ar   
    20    8   51 1    
    21    9   52 1    
    22   10   11 1    
    23   10   25 1    
    24   10   12 1    
    25   12   13 1    
    26   12   21 1    
    27   12   14 1    
    28   14   15 2    
    29   14   22 1    
    30   15   20 1    
    31   15   16 1    
    32   16   17 2    
    33   16   53 1    
    34   17   18 1    
    35   17   54 1    
    36   18   19 2    
    37   18   55 1    
    38   19   20 1    
    39   19   56 1    
    40   20   21 2    
    41   21   69 1    
    42   22   23 1    
    43   22   57 1    
    44   22   58 1    
    45   23   24 1    
    46   23   30 1    
    47   23   25 1    
    48   25   26 am   BACKBONE|DICT|INTERRES
    49   26   27 2    
    50   26   28 1    
    51   28   29 1    
    52   28   59 1    
    53   28   60 1    
    54   29   30 am   BACKBONE|DICT|INTERRES
    55   29   32 1    
    56   30   31 2    
    57   32   33 1    
    58   32   61 1    
    59   32   62 1    
    60   33   34 1    
    61   33   35 1    
    62   33   41 1    
    63   35   40 ar   
    64   35   36 ar   
    65   36   37 ar   
    66   36   63 1    
    67   37   38 ar   
    68   37   64 1    
    69   38   39 ar   
    70   38   65 1    
    71   39   40 ar   
    72   39   66 1    
    73   40   67 1    
    74   41   68 1    
@<TRIPOS>SUBSTRUCTURE
     1 UNK         1 GROUP             0       ****    0 ROOT    
