@<TRIPOS>MOLECULE
ZINC24317258_5947
55   58    1
SMALL
USER_CHARGES


@<TRIPOS>ATOM
      1 C1          2.6453   51.1087   21.8178 C.3       1 UNK         0.0000 
      2 C2          3.1553   52.2400   20.9248 C.3       1 UNK         0.0000 
      3 O3          4.2340   52.8982   21.5846 O.3       1 UNK         0.0000 
      4 C4          4.8655   53.9566   20.9535 C.ar      1 UNK         0.0000 
      5 C5          4.4860   54.4495   19.6872 C.ar      1 UNK         0.0000 
      6 C6          5.2135   55.4772   19.0888 C.ar      1 UNK         0.0000 
      7 C7          6.2652   56.0560   19.7690 C.ar      1 UNK         0.0000 
      8 C8          6.6493   55.6214   21.0277 C.ar      1 UNK         0.0000 
      9 C9          5.9602   54.5504   21.6127 C.ar      1 UNK         0.0000 
     10 C10         6.5485   53.9515   22.8817 C.3       1 UNK         0.0000 
     11 N11         5.7371   54.0976   24.0644 N.am      1 UNK         0.0000 
     12 C12         6.1203   54.7504   25.1676 C.2       1 UNK         0.0000 
     13 O13         7.1044   55.4803   25.2375 O.2       1 UNK         0.0000 
     14 C14         5.2704   54.5092   26.3683 C.ar      1 UNK         0.0000 
     15 C15         5.8315   54.5665   27.6464 C.ar      1 UNK         0.0000 
     16 C16         5.0062   54.4967   28.7616 C.ar      1 UNK         0.0000 
     17 C17         3.6230   54.3818   28.6269 C.ar      1 UNK         0.0000 
     18 C18         3.1072   54.2029   27.3365 C.ar      1 UNK         0.0000 
     19 C19         3.9060   54.2797   26.2181 C.ar      1 UNK         0.0000 
     20 N20         2.8525   54.4944   29.7541 N.2       1 UNK         0.0000 
     21 S21         1.3807   55.0274   29.6755 S.o2      1 UNK         0.0000 
     22 O22         0.9022   55.5827   30.9396 O.2       1 UNK         0.0000 
     23 O23         1.1044   55.8278   28.4818 O.2       1 UNK         0.0000 
     24 C24         0.3769   53.5370   29.4799 C.2       1 UNK         0.0000 
     25 C25        -0.0959   52.7584   30.5246 C.2       1 UNK         0.0000 
     26 C26        -0.8871   51.6966   30.0817 C.2       1 UNK         0.0000 
     27 C27        -0.9809   51.6286   28.7032 C.2       1 UNK         0.0000 
     28 S28        -0.0956   52.8928   27.9377 S.3       1 UNK         0.0000 
     29 O29         6.8539   57.0921   19.0924 O.3       1 UNK         0.0000 
     30 C30         6.3084   57.0745   17.7715 C.3       1 UNK         0.0000 
     31 H31         7.0324   56.5352   17.1565 H         1 UNK         0.0000 
     32 C32         5.0135   56.2482   17.8260 C.3       1 UNK         0.0000 
     33 C33         6.1598   58.4967   17.2280 C.3       1 UNK         0.0000 
     34 H34         1.8148   50.5828   21.3463 H         1 UNK         0.0000 
     35 H35         3.4333   50.3826   22.0100 H         1 UNK         0.0000 
     36 H36         2.3000   51.4913   22.7787 H         1 UNK         0.0000 
     37 H37         2.3413   52.9402   20.7304 H         1 UNK         0.0000 
     38 H38         3.4865   51.8287   19.9691 H         1 UNK         0.0000 
     39 H39         3.6385   54.0377   19.1612 H         1 UNK         0.0000 
     40 H40         7.4940   56.0715   21.5287 H         1 UNK         0.0000 
     41 H41         6.6304   52.8735   22.7515 H         1 UNK         0.0000 
     42 H42         7.5759   54.2905   23.0205 H         1 UNK         0.0000 
     43 H43         4.8693   53.5851   24.0854 H         1 UNK         0.0000 
     44 H44         6.8908   54.7304   27.7865 H         1 UNK         0.0000 
     45 H45         5.4471   54.6357   29.7334 H         1 UNK         0.0000 
     46 H46         2.0591   54.0848   27.1522 H         1 UNK         0.0000 
     47 H47         3.4347   54.2193   25.2472 H         1 UNK         0.0000 
     48 H48         0.0924   52.9654   31.5690 H         1 UNK         0.0000 
     49 H49        -1.3582   50.9876   30.7503 H         1 UNK         0.0000 
     50 H50        -1.5049   50.8847   28.1184 H         1 UNK         0.0000 
     51 H51         4.1428   56.8958   17.9386 H         1 UNK         0.0000 
     52 H52         4.8777   55.6360   16.9342 H         1 UNK         0.0000 
     53 H53         5.7388   58.5012   16.2226 H         1 UNK         0.0000 
     54 H54         7.1219   59.0078   17.1886 H         1 UNK         0.0000 
     55 H55         5.5044   59.0880   17.8654 H         1 UNK         0.0000 
@<TRIPOS>BOND
     1    1    2 1    
     2    1   34 1    
     3    1   35 1    
     4    1   36 1    
     5    2    3 1    
     6    2   37 1    
     7    2   38 1    
     8    3    4 1    
     9    4    9 ar   
    10    4    5 ar   
    11    5    6 ar   
    12    5   39 1    
    13    6   32 1    
    14    6    7 ar   
    15    7    8 ar   
    16    7   29 1    
    17    8    9 ar   
    18    8   40 1    
    19    9   10 1    
    20   10   11 1    
    21   10   41 1    
    22   10   42 1    
    23   11   12 am   BACKBONE|DICT|INTERRES
    24   11   43 1    
    25   12   13 2    
    26   12   14 1    
    27   14   19 ar   
    28   14   15 ar   
    29   15   16 ar   
    30   15   44 1    
    31   16   17 ar   
    32   16   45 1    
    33   17   18 ar   
    34   17   20 1    
    35   18   19 ar   
    36   18   46 1    
    37   19   47 1    
    38   20   21 1    
    39   21   22 2    
    40   21   23 2    
    41   21   24 1    
    42   24   28 1    
    43   24   25 2    
    44   25   26 1    
    45   25   48 1    
    46   26   27 2    
    47   26   49 1    
    48   27   28 1    
    49   27   50 1    
    50   29   30 1    
    51   30   31 1    
    52   30   32 1    
    53   30   33 1    
    54   32   51 1    
    55   32   52 1    
    56   33   53 1    
    57   33   54 1    
    58   33   55 1    
@<TRIPOS>SUBSTRUCTURE
     1 UNK         1 GROUP             0       ****    0 ROOT    
