ZINC66890909_1359
                    3D
 Schrodinger Suite 2024-2.
 58 60  0  0  1  0            999 V2000
   10.3085   50.8971   12.6415 C   0  0  0  0  0  0
    9.2746   51.3810   13.6357 C   0  0  0  0  0  0
    9.6528   51.7242   14.9327 C   0  0  0  0  0  0
    8.6997   52.1748   15.8448 C   0  0  0  0  0  0
    7.3503   52.2861   15.4649 C   0  0  0  0  0  0
    6.9670   51.9072   14.1634 C   0  0  0  0  0  0
    7.9342   51.4623   13.2595 C   0  0  0  0  0  0
    5.5133   51.9659   13.7060 C   0  0  0  0  0  0
    6.3360   52.7308   16.3311 N   0  0  0  0  0  0
    6.4193   53.3461   17.5285 C   0  0  0  0  0  0
    7.4705   53.6976   18.0654 O   0  0  0  0  0  0
    5.0556   53.6397   18.2028 C   0  0  2  0  0  0
    4.4217   52.7708   18.0007 H   0  0  0  0  0  0
    4.4118   54.8878   17.5850 C   0  0  0  0  0  0
    5.2101   53.6063   19.7565 N   0  3  1  0  0  0
    5.7690   54.9283   20.3406 C   0  0  0  0  0  0
    5.9286   54.8053   21.8632 C   0  0  0  0  0  0
    4.6664   54.3276   22.6282 C   0  0  1  0  0  0
    4.0647   53.0857   21.9313 C   0  0  0  0  0  0
    3.8577   53.2560   20.4179 C   0  0  0  0  0  0
    4.8213   54.0970   24.0711 N   0  0  0  0  0  0
    5.6276   54.7354   24.9415 C   0  0  0  0  0  0
    6.3445   55.6969   24.6675 O   0  0  0  0  0  0
    5.6121   54.1962   26.2665 C   0  0  0  0  0  0
    6.7058   54.1919   27.1376 C   0  0  0  0  0  0
    6.2717   53.6958   28.3412 C   0  0  0  0  0  0
    4.9513   53.4018   28.2747 O   0  0  0  0  0  0
    4.5320   53.7079   27.0160 C   0  0  0  0  0  0
    3.0623   53.4764   26.7447 C   0  0  0  0  0  0
   10.6167   51.7043   11.9765 H   0  0  0  0  0  0
    9.9021   50.0907   12.0352 H   0  0  0  0  0  0
   11.1906   50.4962   13.1432 H   0  0  0  0  0  0
   10.6861   51.6435   15.2391 H   0  0  0  0  0  0
    9.0383   52.4154   16.8372 H   0  0  0  0  0  0
    7.6489   51.1769   12.2579 H   0  0  0  0  0  0
    4.9004   51.3011   14.3148 H   0  0  0  0  0  0
    5.1202   52.9761   13.8200 H   0  0  0  0  0  0
    5.3918   51.6773   12.6606 H   0  0  0  0  0  0
    5.4054   52.5485   15.9901 H   0  0  0  0  0  0
    4.2149   54.7294   16.5231 H   0  0  0  0  0  0
    3.4606   55.1013   18.0718 H   0  0  0  0  0  0
    5.0587   55.7605   17.6884 H   0  0  0  0  0  0
    6.7449   55.1131   19.8969 H   0  0  0  0  0  0
    5.1044   55.7415   20.0588 H   0  0  0  0  0  0
    6.7125   54.0966   22.0837 H   0  0  0  0  0  0
    6.2954   55.7642   22.2267 H   0  0  0  0  0  0
    3.9039   55.1010   22.5212 H   0  0  0  0  0  0
    3.1071   52.8275   22.3864 H   0  0  0  0  0  0
    4.7281   52.2323   22.0821 H   0  0  0  0  0  0
    3.1483   54.0466   20.1745 H   0  0  0  0  0  0
    3.5238   52.3093   19.9844 H   0  0  0  0  0  0
    4.4367   53.2275   24.4095 H   0  0  0  0  0  0
    7.7104   54.5110   26.9166 H   0  0  0  0  0  0
    6.7693   53.5343   29.2804 H   0  0  0  0  0  0
    2.8794   53.0910   25.7427 H   0  0  0  0  0  0
    2.6311   52.7510   27.4377 H   0  0  0  0  0  0
    2.4868   54.3976   26.8493 H   0  0  0  0  0  0
    5.8575   52.8556   19.9607 H   0  0  0  0  0  0
  1  2  1  0  0  0
  1 30  1  0  0  0
  1 31  1  0  0  0
  1 32  1  0  0  0
  2  7  2  0  0  0
  2  3  1  0  0  0
  3  4  2  0  0  0
  3 33  1  0  0  0
  4  5  1  0  0  0
  4 34  1  0  0  0
  5  6  2  0  0  0
  5  9  1  0  0  0
  6  7  1  0  0  0
  6  8  1  0  0  0
  7 35  1  0  0  0
  8 36  1  0  0  0
  8 37  1  0  0  0
  8 38  1  0  0  0
  9 10  1  0  0  0
  9 39  1  0  0  0
 10 11  2  0  0  0
 10 12  1  0  0  0
 12 13  1  0  0  0
 12 14  1  0  0  0
 12 15  1  0  0  0
 14 40  1  0  0  0
 14 41  1  0  0  0
 14 42  1  0  0  0
 15 20  1  0  0  0
 15 16  1  0  0  0
 15 58  1  0  0  0
 16 17  1  0  0  0
 16 43  1  0  0  0
 16 44  1  0  0  0
 17 18  1  0  0  0
 17 45  1  0  0  0
 17 46  1  0  0  0
 18 19  1  0  0  0
 18 21  1  0  0  0
 18 47  1  0  0  0
 19 20  1  0  0  0
 19 48  1  0  0  0
 19 49  1  0  0  0
 20 50  1  0  0  0
 20 51  1  0  0  0
 21 22  1  0  0  0
 21 52  1  0  0  0
 22 23  2  0  0  0
 22 24  1  0  0  0
 24 28  2  0  0  0
 24 25  1  0  0  0
 25 26  2  0  0  0
 25 53  1  0  0  0
 26 27  1  0  0  0
 26 54  1  0  0  0
 27 28  1  0  0  0
 28 29  1  0  0  0
 29 55  1  0  0  0
 29 56  1  0  0  0
 29 57  1  0  0  0
M  CHG  1  15   1
M  END
> <i_i_glide_confnum>
169

> <i_i_glide_lignum>
1360

> <i_i_glide_posenum>
242

> <i_i_glide_rotatable_bonds>
7

> <i_m_Source_File_Index>
2761

> <b_m_subgroup_collapsed>
0

> <r_i_docking_score>
-4.60383

> <r_i_glide_ecoul>
-3.25067

> <r_i_glide_eff_state_penalty>
0

> <r_i_glide_einternal>
11.2081

> <r_i_glide_emodel>
-41.9197

> <r_i_glide_energy>
-35.9637

> <r_i_glide_erotb>
0.920641

> <r_i_glide_esite>
-0.121856

> <r_i_glide_evdw>
-32.713

> <r_i_glide_gscore>
-4.60383

> <r_i_glide_hbond>
0

> <r_i_glide_ligand_efficiency>
-0.164422

> <r_i_glide_ligand_efficiency_ln>
-1.0627

> <r_i_glide_ligand_efficiency_sa>
-0.499283

> <r_i_glide_lipo>
-2.00825

> <r_i_glide_metal>
0

> <r_i_glide_rewards>
-1.27112

> <s_i_glide_gridfile>
wee1_glide-grid

> <s_m_Source_File>
wee1_decoys_glide_SP.sdf

> <s_m_Source_Path>
/Users/zhangxujun/Desktop

> <s_m_entry_id>
3036

> <s_m_entry_name>
wee1_decoys_glide_SP.2761

> <s_m_subgroup_title>
wee1_decoys_glide_SP

> <s_m_subgroupid>
wee1_decoys_glide_SP


$$$$
