@<TRIPOS>MOLECULE
ZINC09391449_5429
69   72    1
SMALL
USER_CHARGES


@<TRIPOS>ATOM
      1 C1         -0.3239   52.7395   23.4634 C.3       1 UNK         0.0000 
      2 C2          0.8891   52.7512   22.5274 C.3       1 UNK         0.0000 
      3 O3          1.9877   53.3530   23.1976 O.3       1 UNK         0.0000 
      4 C4          3.1676   53.5153   22.5681 C.2       1 UNK         0.0000 
      5 O5          3.3570   53.2522   21.3773 O.2       1 UNK         0.0000 
      6 C6          4.2342   54.0219   23.4607 C.2       1 UNK         0.0000 
      7 C7          4.2079   54.0962   24.8911 C.2       1 UNK         0.0000 
      8 C8          5.4276   54.5143   25.4468 C.2       1 UNK         0.0000 
      9 S9          6.5848   54.9216   24.2471 S.3       1 UNK         0.0000 
     10 C10         5.4704   54.4962   22.9743 C.2       1 UNK         0.0000 
     11 N11         5.8300   54.5718   21.6262 N.am      1 UNK         0.0000 
     12 C12         6.8201   55.2967   21.0615 C.2       1 UNK         0.0000 
     13 O13         7.5091   56.0967   21.6819 O.2       1 UNK         0.0000 
     14 C14         7.0999   55.0441   19.5944 C.ar      1 UNK         0.0000 
     15 C15         8.2887   55.5383   19.0363 C.ar      1 UNK         0.0000 
     16 C16         8.6325   55.2466   17.7221 C.ar      1 UNK         0.0000 
     17 C17         7.7911   54.4495   16.9480 C.ar      1 UNK         0.0000 
     18 C18         6.5958   53.9623   17.4778 C.ar      1 UNK         0.0000 
     19 C19         6.2472   54.2651   18.7917 C.ar      1 UNK         0.0000 
     20 S20         8.2769   54.0324   15.2744 S.o2      1 UNK         0.0000 
     21 O21         7.0626   53.6251   14.5564 O.2       1 UNK         0.0000 
     22 O22         9.0950   55.1464   14.7791 O.2       1 UNK         0.0000 
     23 N23         9.3267   52.6142   15.4459 N.pl3     1 UNK         0.0000 
     24 C24        10.6157   52.8486   16.1471 C.3       1 UNK         0.0000 
     25 C25        11.5962   51.6972   15.8312 C.3       1 UNK         0.0000 
     26 H26        11.7603   51.6970   14.7511 H         1 UNK         0.0000 
     27 C27        10.9508   50.3400   16.2147 C.3       1 UNK         0.0000 
     28 C28         9.5529   50.1338   15.5757 C.3       1 UNK         0.0000 
     29 H29         9.1044   49.2807   16.0823 H         1 UNK         0.0000 
     30 C30         8.6482   51.3616   15.8677 C.3       1 UNK         0.0000 
     31 C31         9.6234   49.8036   14.0715 C.3       1 UNK         0.0000 
     32 C32        12.9483   51.9045   16.5325 C.3       1 UNK         0.0000 
     33 C33         5.7843   54.5070   26.9253 C.3       1 UNK         0.0000 
     34 C34         3.5305   53.4092   27.2662 C.3       1 UNK         0.0000 
     35 C35         3.0612   53.6488   25.8144 C.3       1 UNK         0.0000 
     36 C36         4.7210   54.4958   29.2059 C.3       1 UNK         0.0000 
     37 H37        -1.1907   52.3021   22.9680 H         1 UNK         0.0000 
     38 H38        -0.1214   52.1529   24.3602 H         1 UNK         0.0000 
     39 H39        -0.5939   53.7470   23.7780 H         1 UNK         0.0000 
     40 H40         0.6635   53.2966   21.6096 H         1 UNK         0.0000 
     41 H41         1.1444   51.7292   22.2400 H         1 UNK         0.0000 
     42 H42         5.1570   54.1575   20.9958 H         1 UNK         0.0000 
     43 H43         8.9787   56.1317   19.6224 H         1 UNK         0.0000 
     44 H44         9.5608   55.6238   17.3161 H         1 UNK         0.0000 
     45 H45         5.9419   53.3385   16.8829 H         1 UNK         0.0000 
     46 H46         5.3219   53.8556   19.1701 H         1 UNK         0.0000 
     47 H47        11.0395   53.8086   15.8503 H         1 UNK         0.0000 
     48 H48        10.4293   52.8074   17.2222 H         1 UNK         0.0000 
     49 H49        11.6246   49.5176   15.9688 H         1 UNK         0.0000 
     50 H50        10.8466   50.2958   17.2995 H         1 UNK         0.0000 
     51 H51         8.5316   51.3975   16.9524 H         1 UNK         0.0000 
     52 H52         7.6891   51.2834   15.3559 H         1 UNK         0.0000 
     53 H53        10.0330   50.6290   13.4880 H         1 UNK         0.0000 
     54 H54        10.2511   48.9303   13.8872 H         1 UNK         0.0000 
     55 H55         8.6345   49.5799   13.6725 H         1 UNK         0.0000 
     56 H56        12.8370   51.9098   17.6188 H         1 UNK         0.0000 
     57 H57        13.6517   51.1124   16.2742 H         1 UNK         0.0000 
     58 H58        13.4026   52.8530   16.2412 H         1 UNK         0.0000 
     59 H59         6.3594   55.3801   27.2402 H         1 UNK         0.0000 
     60 H60         6.3046   53.5927   27.2200 H         1 UNK         0.0000 
     61 H61         2.6752   53.3852   27.9450 H         1 UNK         0.0000 
     62 H62         4.1167   52.4968   27.3815 H         1 UNK         0.0000 
     63 H63         2.5889   52.7317   25.4642 H         1 UNK         0.0000 
     64 H64         2.2856   54.4124   25.7953 H         1 UNK         0.0000 
     65 H65         5.1044   53.4973   29.4178 H         1 UNK         0.0000 
     66 H66         5.4484   55.2693   29.4651 H         1 UNK         0.0000 
     67 H67         3.7707   54.6718   29.7106 H         1 UNK         0.0000 
     68 N68         4.4456   54.5736   27.6906 N.4       1 UNK         0.0000 
     69 H69         3.9783   55.4501   27.5007 H         1 UNK         0.0000 
@<TRIPOS>BOND
     1    1    2 1    
     2    1   37 1    
     3    1   38 1    
     4    1   39 1    
     5    2    3 1    
     6    2   40 1    
     7    2   41 1    
     8    3    4 1    
     9    4    5 2    
    10    4    6 1    
    11    6   10 2    
    12    6    7 1    
    13    7   35 1    
    14    7    8 2    
    15    8    9 1    
    16    8   33 1    
    17    9   10 1    
    18   10   11 am   BACKBONE|DICT|INTERRES
    19   11   12 am   BACKBONE|DICT|INTERRES
    20   11   42 1    
    21   12   13 2    
    22   12   14 1    
    23   14   19 ar   
    24   14   15 ar   
    25   15   16 ar   
    26   15   43 1    
    27   16   17 ar   
    28   16   44 1    
    29   17   18 ar   
    30   17   20 1    
    31   18   19 ar   
    32   18   45 1    
    33   19   46 1    
    34   20   21 2    
    35   20   22 2    
    36   20   23 1    
    37   23   30 1    
    38   23   24 1    
    39   24   25 1    
    40   24   47 1    
    41   24   48 1    
    42   25   26 1    
    43   25   27 1    
    44   25   32 1    
    45   27   28 1    
    46   27   49 1    
    47   27   50 1    
    48   28   29 1    
    49   28   30 1    
    50   28   31 1    
    51   30   51 1    
    52   30   52 1    
    53   31   53 1    
    54   31   54 1    
    55   31   55 1    
    56   32   56 1    
    57   32   57 1    
    58   32   58 1    
    59   33   59 1    
    60   33   60 1    
    61   33   68 1    
    62   34   35 1    
    63   34   61 1    
    64   34   62 1    
    65   34   68 1    
    66   35   63 1    
    67   35   64 1    
    68   36   65 1    
    69   36   66 1    
    70   36   67 1    
    71   36   68 1    
    72   68   69 1    
@<TRIPOS>SUBSTRUCTURE
     1 UNK         1 GROUP             0       ****    0 ROOT    
