ZINC09781233_5062
                    3D
 Schrodinger Suite 2024-2.
 58 62  0  0  1  0            999 V2000
    0.5131   49.0037   22.2230 C   0  0  0  0  0  0
    0.3090   49.7575   23.5290 C   0  0  0  0  0  0
   -0.5610   49.2204   24.4843 C   0  0  0  0  0  0
   -0.7947   49.8901   25.6823 C   0  0  0  0  0  0
   -0.1679   51.1069   25.9390 C   0  0  0  0  0  0
    0.7000   51.6543   24.9955 C   0  0  0  0  0  0
    0.9519   50.9829   23.7875 C   0  0  0  0  0  0
    1.8895   51.4767   22.8627 N   0  0  0  0  0  0
    2.0902   52.7626   22.5057 C   0  0  0  0  0  0
    1.4057   53.6956   22.9296 O   0  0  0  0  0  0
    3.2270   52.9999   21.6250 C   0  0  0  0  0  0
    3.5226   52.2077   20.5468 C   0  0  0  0  0  0
    4.5527   52.4966   19.6748 N   0  0  0  0  0  0
    5.2740   53.6512   19.8135 C   0  0  0  0  0  0
    6.2347   54.1026   19.0639 N   0  0  0  0  0  0
    6.5866   55.2198   19.6820 C   0  0  0  0  0  0
    5.9038   55.5137   20.7730 N   0  0  0  0  0  0
    5.0504   54.4796   20.8801 N   0  0  0  0  0  0
    4.0904   54.2489   21.9886 C   0  0  2  0  0  0
    3.4590   55.1401   22.0326 H   0  0  0  0  0  0
    4.7617   54.2306   23.3814 C   0  0  0  0  0  0
    6.1451   54.0467   23.5254 C   0  0  0  0  0  0
    6.7184   54.1780   24.7857 C   0  0  0  0  0  0
    6.0074   54.4355   25.9079 N   0  0  0  0  0  0
    4.6679   54.5774   25.7738 C   0  0  0  0  0  0
    4.0168   54.4967   24.5421 C   0  0  0  0  0  0
    7.9386   56.2149   19.1380 S   0  0  0  0  0  0
    7.9847   55.8068   17.3546 C   0  0  0  0  0  0
    8.7862   54.5426   17.0506 C   0  0  0  0  0  0
    8.1300   53.3658   16.6622 C   0  0  0  0  0  0
    8.8566   52.2066   16.3840 C   0  0  0  0  0  0
   10.2479   52.2179   16.4831 C   0  0  0  0  0  0
   10.9096   53.3849   16.8700 C   0  0  0  0  0  0
   10.1836   54.5470   17.1401 C   0  0  0  0  0  0
   10.8414   55.6824   17.4691 F   0  0  0  0  0  0
    2.7468   50.9848   20.0599 C   0  0  0  0  0  0
    1.5635   48.7350   22.1024 H   0  0  0  0  0  0
   -0.0959   48.0996   22.1705 H   0  0  0  0  0  0
    0.2272   49.6351   21.3812 H   0  0  0  0  0  0
   -1.0581   48.2782   24.3045 H   0  0  0  0  0  0
   -1.4513   49.4576   26.4253 H   0  0  0  0  0  0
   -0.3421   51.6129   26.8778 H   0  0  0  0  0  0
    1.1990   52.5835   25.2267 H   0  0  0  0  0  0
    2.3902   50.7775   22.3391 H   0  0  0  0  0  0
    4.8025   51.8166   18.9527 H   0  0  0  0  0  0
    6.7848   53.8473   22.6805 H   0  0  0  0  0  0
    7.7870   54.0975   24.8810 H   0  0  0  0  0  0
    4.1172   54.7945   26.6768 H   0  0  0  0  0  0
    2.9574   54.6853   24.5011 H   0  0  0  0  0  0
    6.9671   55.7213   16.9680 H   0  0  0  0  0  0
    8.4181   56.6515   16.8158 H   0  0  0  0  0  0
    7.0521   53.3408   16.5810 H   0  0  0  0  0  0
    8.3396   51.3020   16.0927 H   0  0  0  0  0  0
   10.8107   51.3206   16.2709 H   0  0  0  0  0  0
   11.9870   53.3929   16.9506 H   0  0  0  0  0  0
    3.1546   50.0739   20.4980 H   0  0  0  0  0  0
    1.6865   51.0543   20.2963 H   0  0  0  0  0  0
    2.7954   50.8761   18.9735 H   0  0  0  0  0  0
  1  2  1  0  0  0
  1 37  1  0  0  0
  1 38  1  0  0  0
  1 39  1  0  0  0
  2  7  2  0  0  0
  2  3  1  0  0  0
  3  4  2  0  0  0
  3 40  1  0  0  0
  4  5  1  0  0  0
  4 41  1  0  0  0
  5  6  2  0  0  0
  5 42  1  0  0  0
  6  7  1  0  0  0
  6 43  1  0  0  0
  7  8  1  0  0  0
  8  9  1  0  0  0
  8 44  1  0  0  0
  9 10  2  0  0  0
  9 11  1  0  0  0
 11 19  1  0  0  0
 11 12  2  0  0  0
 12 13  1  0  0  0
 12 36  1  0  0  0
 13 14  1  0  0  0
 13 45  1  0  0  0
 14 18  1  0  0  0
 14 15  2  0  0  0
 15 16  1  0  0  0
 16 17  2  0  0  0
 16 27  1  0  0  0
 17 18  1  0  0  0
 18 19  1  0  0  0
 19 20  1  0  0  0
 19 21  1  0  0  0
 21 26  2  0  0  0
 21 22  1  0  0  0
 22 23  2  0  0  0
 22 46  1  0  0  0
 23 24  1  0  0  0
 23 47  1  0  0  0
 24 25  2  0  0  0
 25 26  1  0  0  0
 25 48  1  0  0  0
 26 49  1  0  0  0
 27 28  1  0  0  0
 28 29  1  0  0  0
 28 50  1  0  0  0
 28 51  1  0  0  0
 29 34  2  0  0  0
 29 30  1  0  0  0
 30 31  2  0  0  0
 30 52  1  0  0  0
 31 32  1  0  0  0
 31 53  1  0  0  0
 32 33  2  0  0  0
 32 54  1  0  0  0
 33 34  1  0  0  0
 33 55  1  0  0  0
 34 35  1  0  0  0
 36 56  1  0  0  0
 36 57  1  0  0  0
 36 58  1  0  0  0
M  END
> <i_i_glide_confnum>
201

> <i_i_glide_lignum>
5063

> <i_i_glide_posenum>
275

> <i_i_glide_rotatable_bonds>
7

> <i_m_Source_File_Index>
3131

> <b_m_subgroup_collapsed>
0

> <r_i_docking_score>
-4.88094

> <r_i_glide_ecoul>
-4.42042

> <r_i_glide_eff_state_penalty>
0

> <r_i_glide_einternal>
11.1333

> <r_i_glide_emodel>
-58.236

> <r_i_glide_energy>
-48.0595

> <r_i_glide_erotb>
0.600907

> <r_i_glide_esite>
-0.128127

> <r_i_glide_evdw>
-43.639

> <r_i_glide_gscore>
-4.88094

> <r_i_glide_hbond>
-0.16

> <r_i_glide_ligand_efficiency>
-0.139456

> <r_i_glide_ligand_efficiency_ln>
-1.07148

> <r_i_glide_ligand_efficiency_sa>
-0.456168

> <r_i_glide_lipo>
-1.82135

> <r_i_glide_metal>
0

> <r_i_glide_rewards>
-0.52736

> <s_i_glide_gridfile>
wee1_glide-grid

> <s_m_Source_File>
wee1_decoys_glide_SP.sdf

> <s_m_Source_Path>
/Users/zhangxujun/Desktop

> <s_m_entry_id>
3406

> <s_m_entry_name>
wee1_decoys_glide_SP.3131

> <s_m_subgroup_title>
wee1_decoys_glide_SP

> <s_m_subgroupid>
wee1_decoys_glide_SP


$$$$
