@<TRIPOS>MOLECULE
ZINC35752352_3389
61   65    1
SMALL
USER_CHARGES


@<TRIPOS>ATOM
      1 C1          1.6078   50.2340   17.9044 C.3       1 UNK         0.0000 
      2 C2          1.6574   50.8383   19.2953 C.ar      1 UNK         0.0000 
      3 C3          0.5672   51.5528   19.7925 C.ar      1 UNK         0.0000 
      4 C4          0.6216   52.0953   21.0727 C.ar      1 UNK         0.0000 
      5 C5          1.7679   51.9268   21.8556 C.ar      1 UNK         0.0000 
      6 C6          2.8591   51.2088   21.3583 C.ar      1 UNK         0.0000 
      7 C7          2.7983   50.6648   20.0787 C.ar      1 UNK         0.0000 
      8 N8          1.8054   52.4723   23.1581 N.pl3     1 UNK         0.0000 
      9 C9          2.7491   53.3149   23.7333 C.ar      1 UNK         0.0000 
     10 N10         2.4170   53.5817   24.9745 N.2       1 UNK         0.0000 
     11 N11         1.2429   52.9009   25.2548 N.2       1 UNK         0.0000 
     12 C12         0.9009   52.2337   24.1816 C.ar      1 UNK         0.0000 
     13 S13        -0.4870   51.1306   24.0648 S.3       1 UNK         0.0000 
     14 C14        -1.2866   51.2563   25.7054 C.3       1 UNK         0.0000 
     15 C15        -2.6897   51.8381   25.6654 C.2       1 UNK         0.0000 
     16 N16        -3.5671   51.5891   26.6082 N.2       1 UNK         0.0000 
     17 C17        -4.7365   52.1921   26.4258 C.2       1 UNK         0.0000 
     18 C18        -4.7996   52.9950   25.2861 C.2       1 UNK         0.0000 
     19 S19        -3.2960   52.9011   24.4286 S.3       1 UNK         0.0000 
     20 C20        -5.8084   52.0480   27.3935 C.2       1 UNK         0.0000 
     21 O21        -6.7598   52.8312   27.4053 O.2       1 UNK         0.0000 
     22 N22        -5.6959   51.0046   28.2411 N.am      1 UNK         0.0000 
     23 C23        -6.6170   50.6321   29.3264 C.3       1 UNK         0.0000 
     24 H24        -7.5844   51.0862   29.0961 H         1 UNK         0.0000 
     25 C25        -6.9667   49.1270   29.3552 C.3       1 UNK         0.0000 
     26 C26        -5.7555   48.1836   29.4170 C.3       1 UNK         0.0000 
     27 C27        -4.8966   48.3526   30.6784 C.3       1 UNK         0.0000 
     28 C28        -4.2559   49.7440   30.8739 C.3       1 UNK         0.0000 
     29 N29        -5.1681   50.8135   31.2821 N.am      1 UNK         0.0000 
     30 C30        -6.2732   51.2984   30.6829 C.2       1 UNK         0.0000 
     31 O31        -6.8918   52.2632   31.1308 O.2       1 UNK         0.0000 
     32 C32         4.0033   53.8573   23.1042 C.ar      1 UNK         0.0000 
     33 C33         5.1362   54.0968   23.8990 C.ar      1 UNK         0.0000 
     34 C34         6.3035   54.6132   23.3319 C.ar      1 UNK         0.0000 
     35 C35         6.3045   54.8966   21.9671 C.ar      1 UNK         0.0000 
     36 N36         5.2315   54.6679   21.1693 N.ar      1 UNK         0.0000 
     37 C37         4.1078   54.1598   21.7399 C.ar      1 UNK         0.0000 
     38 H38         0.6085   50.2705   17.4712 H         1 UNK         0.0000 
     39 H39         2.3047   50.7486   17.2423 H         1 UNK         0.0000 
     40 H40         1.9144   49.1883   17.9381 H         1 UNK         0.0000 
     41 H41        -0.3191   51.6880   19.1907 H         1 UNK         0.0000 
     42 H42        -0.2269   52.6434   21.4525 H         1 UNK         0.0000 
     43 H43         3.7490   51.0675   21.9535 H         1 UNK         0.0000 
     44 H44         3.6383   50.1125   19.6839 H         1 UNK         0.0000 
     45 H45        -0.6766   51.8279   26.4012 H         1 UNK         0.0000 
     46 H46        -1.3036   50.2501   26.1285 H         1 UNK         0.0000 
     47 H47        -5.6247   53.5907   24.9217 H         1 UNK         0.0000 
     48 H48        -4.8581   50.4437   28.1858 H         1 UNK         0.0000 
     49 H49        -7.5530   48.8791   28.4687 H         1 UNK         0.0000 
     50 H50        -7.6102   48.9107   30.2100 H         1 UNK         0.0000 
     51 H51        -6.1128   47.1539   29.3739 H         1 UNK         0.0000 
     52 H52        -5.1348   48.3112   28.5285 H         1 UNK         0.0000 
     53 H53        -5.4800   48.0860   31.5608 H         1 UNK         0.0000 
     54 H54        -4.0919   47.6195   30.6107 H         1 UNK         0.0000 
     55 H55        -3.5008   49.6921   31.6609 H         1 UNK         0.0000 
     56 H56        -3.6960   50.0542   29.9898 H         1 UNK         0.0000 
     57 H57        -4.9573   51.2371   32.1799 H         1 UNK         0.0000 
     58 H58         5.1158   53.8754   24.9566 H         1 UNK         0.0000 
     59 H59         7.1814   54.7946   23.9346 H         1 UNK         0.0000 
     60 H60         7.1871   55.2942   21.4875 H         1 UNK         0.0000 
     61 H61         3.2699   54.0259   21.0705 H         1 UNK         0.0000 
@<TRIPOS>BOND
     1    1    2 1    
     2    1   38 1    
     3    1   39 1    
     4    1   40 1    
     5    2    7 ar   
     6    2    3 ar   
     7    3    4 ar   
     8    3   41 1    
     9    4    5 ar   
    10    4   42 1    
    11    5    6 ar   
    12    5    8 1    
    13    6    7 ar   
    14    6   43 1    
    15    7   44 1    
    16    8   12 ar   
    17    8    9 ar   
    18    9   10 ar   
    19    9   32 1    
    20   10   11 ar   
    21   11   12 ar   
    22   12   13 1    
    23   13   14 1    
    24   14   15 1    
    25   14   45 1    
    26   14   46 1    
    27   15   19 1    
    28   15   16 2    
    29   16   17 1    
    30   17   18 2    
    31   17   20 1    
    32   18   19 1    
    33   18   47 1    
    34   20   21 2    
    35   20   22 am   BACKBONE|DICT|INTERRES
    36   22   23 1    
    37   22   48 1    
    38   23   24 1    
    39   23   30 1    
    40   23   25 1    
    41   25   26 1    
    42   25   49 1    
    43   25   50 1    
    44   26   27 1    
    45   26   51 1    
    46   26   52 1    
    47   27   28 1    
    48   27   53 1    
    49   27   54 1    
    50   28   29 1    
    51   28   55 1    
    52   28   56 1    
    53   29   30 am   BACKBONE|DICT|INTERRES
    54   29   57 1    
    55   30   31 2    
    56   32   37 ar   
    57   32   33 ar   
    58   33   34 ar   
    59   33   58 1    
    60   34   35 ar   
    61   34   59 1    
    62   35   36 ar   
    63   35   60 1    
    64   36   37 ar   
    65   37   61 1    
@<TRIPOS>SUBSTRUCTURE
     1 UNK         1 GROUP             0       ****    0 ROOT    
