@<TRIPOS>MOLECULE
ZINC24890149_4334
58   62    1
SMALL
USER_CHARGES


@<TRIPOS>ATOM
      1 C1          1.1522   52.9011   27.8461 C.3       1 UNK         0.0000 
      2 C2          2.1776   53.3385   26.8196 C.ar      1 UNK         0.0000 
      3 C3          1.7700   53.6967   25.5386 C.ar      1 UNK         0.0000 
      4 C4          2.7046   54.0999   24.5935 C.ar      1 UNK         0.0000 
      5 C5          4.0763   54.0743   24.8696 C.ar      1 UNK         0.0000 
      6 C6          4.4695   53.7079   26.1759 C.ar      1 UNK         0.0000 
      7 C7          3.5311   53.3592   27.1425 C.ar      1 UNK         0.0000 
      8 N8          5.0112   54.3564   23.8134 N.am      1 UNK         0.0000 
      9 C9          4.6581   54.3837   22.3554 C.3       1 UNK         0.0000 
     10 H10         3.9899   55.2302   22.1819 H         1 UNK         0.0000 
     11 C11         5.9846   54.6322   21.6079 C.3       1 UNK         0.0000 
     12 H12         6.2770   53.7843   21.0151 H         1 UNK         0.0000 
     13 C13         7.0125   54.8630   22.7030 C.3       1 UNK         0.0000 
     14 C14         6.3145   54.7081   24.0386 C.2       1 UNK         0.0000 
     15 O15         6.9060   54.8906   25.1047 O.2       1 UNK         0.0000 
     16 C16         5.9369   55.7715   20.5646 C.2       1 UNK         0.0000 
     17 O17         6.3054   56.9017   20.8810 O.2       1 UNK         0.0000 
     18 N18         5.5005   55.4313   19.3306 N.am      1 UNK         0.0000 
     19 C19         5.3680   56.2270   18.1725 C.ar      1 UNK         0.0000 
     20 C20         5.7742   57.5668   18.0622 C.ar      1 UNK         0.0000 
     21 C21         5.5886   58.2636   16.8715 C.ar      1 UNK         0.0000 
     22 C22         5.0191   57.6337   15.7576 C.ar      1 UNK         0.0000 
     23 C23         4.6252   56.2943   15.8676 C.ar      1 UNK         0.0000 
     24 C24         4.7940   55.5998   17.0650 C.ar      1 UNK         0.0000 
     25 C25         4.8555   58.3568   14.4365 C.2       1 UNK         0.0000 
     26 O26         4.8195   57.7227   13.3792 O.2       1 UNK         0.0000 
     27 N27         4.7302   59.6968   14.4826 N.am      1 UNK         0.0000 
     28 C28         4.6638   60.5639   13.3135 C.3       1 UNK         0.0000 
     29 C29         3.4361   60.5063   12.4304 C.3       1 UNK         0.0000 
     30 C30         3.6665   61.6959   13.3320 C.3       1 UNK         0.0000 
     31 C31         3.8977   53.1498   21.8169 C.2       1 UNK         0.0000 
     32 C32         2.5306   52.9750   21.5702 C.2       1 UNK         0.0000 
     33 C33         2.1557   51.7455   21.0336 C.2       1 UNK         0.0000 
     34 C34         3.2326   50.9194   20.8207 C.2       1 UNK         0.0000 
     35 S35         4.7036   51.6967   21.2814 S.3       1 UNK         0.0000 
     36 H36         1.5857   52.2060   28.5641 H         1 UNK         0.0000 
     37 H37         0.3249   52.3724   27.3673 H         1 UNK         0.0000 
     38 H38         0.7477   53.7597   28.3841 H         1 UNK         0.0000 
     39 H39         0.7230   53.6876   25.2760 H         1 UNK         0.0000 
     40 H40         2.3382   54.4461   23.6454 H         1 UNK         0.0000 
     41 H41         5.5036   53.6266   26.4625 H         1 UNK         0.0000 
     42 H42         3.8653   53.0677   28.1267 H         1 UNK         0.0000 
     43 H43         7.5271   55.8225   22.6721 H         1 UNK         0.0000 
     44 H44         7.7985   54.1089   22.6537 H         1 UNK         0.0000 
     45 H45         5.1950   54.4765   19.2167 H         1 UNK         0.0000 
     46 H46         6.2257   58.1039   18.8772 H         1 UNK         0.0000 
     47 H47         5.9076   59.2963   16.8309 H         1 UNK         0.0000 
     48 H48         4.1823   55.7789   15.0253 H         1 UNK         0.0000 
     49 H49         4.4745   54.5684   17.1201 H         1 UNK         0.0000 
     50 H50         4.7880   60.1797   15.3772 H         1 UNK         0.0000 
     51 H51         5.6287   60.7276   12.8319 H         1 UNK         0.0000 
     52 H52         3.5728   60.6157   11.3546 H         1 UNK         0.0000 
     53 H53         2.6554   59.7874   12.6796 H         1 UNK         0.0000 
     54 H54         3.0576   61.8206   14.2286 H         1 UNK         0.0000 
     55 H55         3.9645   62.6492   12.8984 H         1 UNK         0.0000 
     56 H56         1.7912   53.7369   21.7577 H         1 UNK         0.0000 
     57 H57         1.1367   51.4808   20.7936 H         1 UNK         0.0000 
     58 H58         3.2356   49.9268   20.3942 H         1 UNK         0.0000 
@<TRIPOS>BOND
     1    1    2 1    
     2    1   36 1    
     3    1   37 1    
     4    1   38 1    
     5    2    7 ar   
     6    2    3 ar   
     7    3    4 ar   
     8    3   39 1    
     9    4    5 ar   
    10    4   40 1    
    11    5    6 ar   
    12    5    8 1    
    13    6    7 ar   
    14    6   41 1    
    15    7   42 1    
    16    8   14 am   BACKBONE|DICT|INTERRES
    17    8    9 1    
    18    9   10 1    
    19    9   11 1    
    20    9   31 1    
    21   11   12 1    
    22   11   13 1    
    23   11   16 1    
    24   13   14 1    
    25   13   43 1    
    26   13   44 1    
    27   14   15 2    
    28   16   17 2    
    29   16   18 am   BACKBONE|DICT|INTERRES
    30   18   19 1    
    31   18   45 1    
    32   19   24 ar   
    33   19   20 ar   
    34   20   21 ar   
    35   20   46 1    
    36   21   22 ar   
    37   21   47 1    
    38   22   23 ar   
    39   22   25 1    
    40   23   24 ar   
    41   23   48 1    
    42   24   49 1    
    43   25   26 2    
    44   25   27 am   BACKBONE|DICT|INTERRES
    45   27   28 1    
    46   27   50 1    
    47   28   30 1    
    48   28   29 1    
    49   28   51 1    
    50   29   30 1    
    51   29   52 1    
    52   29   53 1    
    53   30   54 1    
    54   30   55 1    
    55   31   35 1    
    56   31   32 2    
    57   32   33 1    
    58   32   56 1    
    59   33   34 2    
    60   33   57 1    
    61   34   35 1    
    62   34   58 1    
@<TRIPOS>SUBSTRUCTURE
     1 UNK         1 GROUP             0       ****    0 ROOT    
