ZINC09345498_4407
                    3D
 Schrodinger Suite 2024-2.
 43 46  0  0  1  0            999 V2000
    2.7235   53.5689   27.9585 C   0  0  0  0  0  0
    4.0975   53.8299   27.6822 O   0  0  0  0  0  0
    4.4995   54.0500   26.3782 C   0  0  0  0  0  0
    3.6221   54.0974   25.2846 C   0  0  0  0  0  0
    4.1049   54.3158   23.9983 C   0  0  0  0  0  0
    5.4751   54.4955   23.7576 C   0  0  0  0  0  0
    6.3490   54.4430   24.8502 C   0  0  0  0  0  0
    5.8689   54.2150   26.1422 C   0  0  0  0  0  0
    7.1043   54.0976   27.5878 Br  0  0  0  0  0  0
    5.9614   54.7909   22.3847 C   0  0  0  0  0  0
    7.0750   55.4749   22.0816 C   0  0  0  0  0  0
    7.2266   55.6969   20.3380 S   0  0  0  0  0  0
    5.7108   54.7602   20.0409 C   0  0  0  0  0  0
    5.2467   54.3900   21.2808 N   0  0  0  0  0  0
    5.1474   54.4621   18.9342 N   0  0  0  0  0  0
    5.5682   54.8676   17.6880 C   0  0  0  0  0  0
    5.2026   56.3990   17.0928 S   0  0  0  0  0  0
    6.2477   53.8330   17.1020 N   0  0  0  0  0  0
    6.8039   53.7109   15.8722 C   0  0  0  0  0  0
    6.5484   54.4087   14.8865 O   0  0  0  0  0  0
    7.7843   52.6590   15.7936 C   0  0  0  0  0  0
    8.6989   52.1927   16.7388 C   0  0  0  0  0  0
    9.4935   51.2034   16.0881 C   0  0  0  0  0  0
   10.5462   50.3507   16.4534 C   0  0  0  0  0  0
   11.1077   49.5288   15.4730 C   0  0  0  0  0  0
   10.6319   49.5301   14.1589 C   0  0  0  0  0  0
    9.5715   50.3511   13.7705 C   0  0  0  0  0  0
    9.0261   51.1814   14.7539 C   0  0  0  0  0  0
    8.0074   52.0758   14.5745 O   0  0  0  0  0  0
    2.5967   53.3960   29.0270 H   0  0  0  0  0  0
    2.0909   54.4155   27.6831 H   0  0  0  0  0  0
    2.3750   52.6731   27.4358 H   0  0  0  0  0  0
    2.5566   53.9726   25.4158 H   0  0  0  0  0  0
    3.3941   54.3706   23.1869 H   0  0  0  0  0  0
    7.4125   54.5641   24.6983 H   0  0  0  0  0  0
    7.7979   55.9068   22.7571 H   0  0  0  0  0  0
    6.3679   53.0329   17.7052 H   0  0  0  0  0  0
    8.7949   52.5330   17.7555 H   0  0  0  0  0  0
   10.9252   50.3442   17.4651 H   0  0  0  0  0  0
   11.9313   48.8776   15.7294 H   0  0  0  0  0  0
   11.1016   48.8905   13.4247 H   0  0  0  0  0  0
    9.2081   50.3578   12.7535 H   0  0  0  0  0  0
    4.4005   53.8469   21.3405 H   0  0  0  0  0  0
  1  2  1  0  0  0
  1 30  1  0  0  0
  1 31  1  0  0  0
  1 32  1  0  0  0
  2  3  1  0  0  0
  3  8  2  0  0  0
  3  4  1  0  0  0
  4  5  2  0  0  0
  4 33  1  0  0  0
  5  6  1  0  0  0
  5 34  1  0  0  0
  6  7  2  0  0  0
  6 10  1  0  0  0
  7  8  1  0  0  0
  7 35  1  0  0  0
  8  9  1  0  0  0
 10 14  1  0  0  0
 10 11  2  0  0  0
 11 12  1  0  0  0
 11 36  1  0  0  0
 12 13  1  0  0  0
 13 14  1  0  0  0
 13 15  2  0  0  0
 14 43  1  0  0  0
 15 16  1  0  0  0
 16 17  2  0  0  0
 16 18  1  0  0  0
 18 19  1  0  0  0
 18 37  1  0  0  0
 19 20  2  0  0  0
 19 21  1  0  0  0
 21 29  1  0  0  0
 21 22  2  0  0  0
 22 23  1  0  0  0
 22 38  1  0  0  0
 23 28  2  0  0  0
 23 24  1  0  0  0
 24 25  2  0  0  0
 24 39  1  0  0  0
 25 26  1  0  0  0
 25 40  1  0  0  0
 26 27  2  0  0  0
 26 41  1  0  0  0
 27 28  1  0  0  0
 27 42  1  0  0  0
 28 29  1  0  0  0
M  END
> <i_i_glide_confnum>
15

> <i_i_glide_lignum>
4408

> <i_i_glide_posenum>
324

> <i_i_glide_rotatable_bonds>
6

> <i_m_Source_File_Index>
1180

> <b_m_subgroup_collapsed>
0

> <r_i_docking_score>
-5.14988

> <r_i_glide_ecoul>
-1.67163

> <r_i_glide_eff_state_penalty>
0

> <r_i_glide_einternal>
6.42233

> <r_i_glide_emodel>
-58.1462

> <r_i_glide_energy>
-44.8759

> <r_i_glide_erotb>
0.341045

> <r_i_glide_esite>
-0.0207203

> <r_i_glide_evdw>
-43.2043

> <r_i_glide_gscore>
-5.14988

> <r_i_glide_hbond>
0

> <r_i_glide_ligand_efficiency>
-0.177582

> <r_i_glide_ligand_efficiency_ln>
-1.17919

> <r_i_glide_ligand_efficiency_sa>
-0.545589

> <r_i_glide_lipo>
-2.92672

> <r_i_glide_metal>
0

> <r_i_glide_rewards>
-0.132532

> <s_i_glide_gridfile>
wee1_glide-grid

> <s_m_Source_File>
wee1_decoys_glide_SP.sdf

> <s_m_Source_Path>
/Users/zhangxujun/Desktop

> <s_m_entry_id>
1455

> <s_m_entry_name>
wee1_decoys_glide_SP.1180

> <s_m_subgroup_title>
wee1_decoys_glide_SP

> <s_m_subgroupid>
wee1_decoys_glide_SP


$$$$
