ZINC39595768_624
                    3D
 Schrodinger Suite 2024-2.
 63 66  0  0  1  0            999 V2000
   -0.8113   49.1106   20.6549 C   0  0  0  0  0  0
    0.0383   50.2975   21.1328 C   0  0  1  0  0  0
    0.7597   49.9024   21.8463 H   0  0  0  0  0  0
    0.8029   50.9626   19.9674 C   0  0  0  0  0  0
    1.6332   52.1049   20.3561 N   0  0  0  0  0  0
    2.7951   52.0266   21.0207 C   0  0  0  0  0  0
    3.2408   50.9568   21.4411 O   0  0  0  0  0  0
    3.5241   53.3759   21.2827 C   0  0  1  0  0  0
    2.7677   54.1459   21.4466 H   0  0  0  0  0  0
    4.3819   53.2235   22.5493 C   0  0  0  0  0  0
    5.3669   54.2985   22.4316 N   0  0  0  0  0  0
    5.5264   54.7228   21.0337 C   0  0  0  0  0  0
    4.5775   53.8197   20.2127 C   0  0  0  0  0  0
    5.3770   52.6090   19.6551 C   0  0  0  0  0  0
    6.4063   52.9707   18.5518 C   0  0  0  0  0  0
    5.6833   53.6977   17.4080 N   0  3  0  0  0  0
    4.9542   54.9562   17.9070 C   0  0  0  0  0  0
    3.9404   54.5159   18.9756 C   0  0  0  0  0  0
    6.0600   54.8963   23.4376 C   0  0  0  0  0  0
    6.9661   55.6941   23.1970 O   0  0  0  0  0  0
    5.6879   54.6392   24.8839 C   0  0  0  0  0  0
    6.7043   54.4841   25.8299 C   0  0  0  0  0  0
    6.4048   54.3186   27.1808 C   0  0  0  0  0  0
    5.0763   54.3235   27.5975 C   0  0  0  0  0  0
    4.0506   54.4958   26.6720 C   0  0  0  0  0  0
    4.3559   54.6681   25.3241 C   0  0  0  0  0  0
    4.6986   54.1527   29.2752 Cl  0  0  0  0  0  0
   -0.8666   51.2551   21.6956 O   0  0  0  0  0  0
   -0.8352   51.5380   23.0470 C   0  0  0  0  0  0
   -2.0375   51.9622   23.6159 C   0  0  0  0  0  0
   -2.1110   52.2597   24.9750 C   0  0  0  0  0  0
   -0.9725   52.1480   25.7670 C   0  0  0  0  0  0
    0.2390   51.7491   25.2098 C   0  0  0  0  0  0
    0.3126   51.4488   23.8516 C   0  0  0  0  0  0
   -1.0351   52.4586   27.0803 F   0  0  0  0  0  0
   -0.1911   48.3331   20.2092 H   0  0  0  0  0  0
   -1.3499   48.6601   21.4897 H   0  0  0  0  0  0
   -1.5475   49.4193   19.9118 H   0  0  0  0  0  0
    1.4227   50.2235   19.4545 H   0  0  0  0  0  0
    0.0871   51.3186   19.2245 H   0  0  0  0  0  0
    1.3058   53.0224   20.0828 H   0  0  0  0  0  0
    3.7610   53.1915   23.4408 H   0  0  0  0  0  0
    4.9695   52.3050   22.4820 H   0  0  0  0  0  0
    6.5475   54.7492   20.6548 H   0  0  0  0  0  0
    5.1366   55.7377   20.9797 H   0  0  0  0  0  0
    5.8757   52.0832   20.4628 H   0  0  0  0  0  0
    4.6726   51.8792   19.2817 H   0  0  0  0  0  0
    7.1981   53.6443   18.8822 H   0  0  0  0  0  0
    6.8583   52.0968   18.0817 H   0  0  0  0  0  0
    6.3420   53.9341   16.6783 H   0  0  0  0  0  0
    5.7111   55.6469   18.2858 H   0  0  0  0  0  0
    4.4710   55.3997   17.0346 H   0  0  0  0  0  0
    3.1706   53.8837   18.5296 H   0  0  0  0  0  0
    3.4374   55.4240   19.2820 H   0  0  0  0  0  0
    7.7328   54.4970   25.5066 H   0  0  0  0  0  0
    7.1976   54.2035   27.9047 H   0  0  0  0  0  0
    3.0221   54.5224   26.9995 H   0  0  0  0  0  0
    3.5449   54.8651   24.6377 H   0  0  0  0  0  0
   -2.9204   52.0449   23.0008 H   0  0  0  0  0  0
   -3.0435   52.5776   25.4157 H   0  0  0  0  0  0
    1.1164   51.6797   25.8344 H   0  0  0  0  0  0
    1.2702   51.1617   23.4467 H   0  0  0  0  0  0
    5.0177   53.0537   16.9998 H   0  0  0  0  0  0
  1  2  1  0  0  0
  1 36  1  0  0  0
  1 37  1  0  0  0
  1 38  1  0  0  0
  2  3  1  0  0  0
  2  4  1  0  0  0
  2 28  1  0  0  0
  4  5  1  0  0  0
  4 39  1  0  0  0
  4 40  1  0  0  0
  5  6  1  0  0  0
  5 41  1  0  0  0
  6  7  2  0  0  0
  6  8  1  0  0  0
  8  9  1  0  0  0
  8 13  1  0  0  0
  8 10  1  0  0  0
 10 11  1  0  0  0
 10 42  1  0  0  0
 10 43  1  0  0  0
 11 12  1  0  0  0
 11 19  1  0  0  0
 12 13  1  0  0  0
 12 44  1  0  0  0
 12 45  1  0  0  0
 13 18  1  0  0  0
 13 14  1  0  0  0
 14 15  1  0  0  0
 14 46  1  0  0  0
 14 47  1  0  0  0
 15 16  1  0  0  0
 15 48  1  0  0  0
 15 49  1  0  0  0
 16 17  1  0  0  0
 16 50  1  0  0  0
 16 63  1  0  0  0
 17 18  1  0  0  0
 17 51  1  0  0  0
 17 52  1  0  0  0
 18 53  1  0  0  0
 18 54  1  0  0  0
 19 20  2  0  0  0
 19 21  1  0  0  0
 21 26  2  0  0  0
 21 22  1  0  0  0
 22 23  2  0  0  0
 22 55  1  0  0  0
 23 24  1  0  0  0
 23 56  1  0  0  0
 24 25  2  0  0  0
 24 27  1  0  0  0
 25 26  1  0  0  0
 25 57  1  0  0  0
 26 58  1  0  0  0
 28 29  1  0  0  0
 29 34  2  0  0  0
 29 30  1  0  0  0
 30 31  2  0  0  0
 30 59  1  0  0  0
 31 32  1  0  0  0
 31 60  1  0  0  0
 32 33  2  0  0  0
 32 35  1  0  0  0
 33 34  1  0  0  0
 33 61  1  0  0  0
 34 62  1  0  0  0
M  CHG  1  16   1
M  END
> <i_i_glide_confnum>
91

> <i_i_glide_lignum>
625

> <i_i_glide_posenum>
47

> <i_i_glide_rotatable_bonds>
8

> <i_m_Source_File_Index>
5635

> <b_m_subgroup_collapsed>
0

> <r_i_docking_score>
-4.99749

> <r_i_glide_ecoul>
-3.34706

> <r_i_glide_eff_state_penalty>
0

> <r_i_glide_einternal>
8.89528

> <r_i_glide_emodel>
-48.9541

> <r_i_glide_energy>
-38.2028

> <r_i_glide_erotb>
0.627978

> <r_i_glide_esite>
-0.0814685

> <r_i_glide_evdw>
-34.8557

> <r_i_glide_gscore>
-4.99749

> <r_i_glide_hbond>
-0.182241

> <r_i_glide_ligand_efficiency>
-0.151439

> <r_i_glide_ligand_efficiency_ln>
-1.11142

> <r_i_glide_ligand_efficiency_sa>
-0.485746

> <r_i_glide_lipo>
-2.40157

> <r_i_glide_metal>
0

> <r_i_glide_rewards>
-0.715338

> <s_i_glide_gridfile>
wee1_glide-grid

> <s_m_Source_File>
wee1_decoys_glide_SP.sdf

> <s_m_Source_Path>
/Users/zhangxujun/Desktop

> <s_m_entry_id>
5910

> <s_m_entry_name>
wee1_decoys_glide_SP.5635

> <s_m_subgroup_title>
wee1_decoys_glide_SP

> <s_m_subgroupid>
wee1_decoys_glide_SP


$$$$
