@<TRIPOS>MOLECULE
ZINC58940622_98
52   55    1
SMALL
USER_CHARGES


@<TRIPOS>ATOM
      1 C1         -0.2545   49.9235   20.2685 C.ar      1 UNK         0.0000 
      2 C2         -0.2253   51.2311   20.7475 C.ar      1 UNK         0.0000 
      3 C3          0.9910   51.8981   20.8631 C.ar      1 UNK         0.0000 
      4 C4          2.1867   51.2562   20.5010 C.ar      1 UNK         0.0000 
      5 C5          2.1397   49.9397   20.0214 C.ar      1 UNK         0.0000 
      6 C6          0.9228   49.2759   19.9044 C.ar      1 UNK         0.0000 
      7 C7          3.5226   51.9482   20.6305 C.2       1 UNK         0.0000 
      8 O8          4.5387   51.2966   20.8816 O.2       1 UNK         0.0000 
      9 N9          3.5050   53.2952   20.5226 N.am      1 UNK         0.0000 
     10 N10         4.7213   53.9791   20.4271 N.pl3     1 UNK         0.0000 
     11 C11         5.1943   54.6430   21.6234 C.3       1 UNK         0.0000 
     12 H12         4.4038   55.2963   21.9879 H         1 UNK         0.0000 
     13 C13         6.3258   55.4651   21.0450 C.2       1 UNK         0.0000 
     14 O14         7.1626   56.0968   21.6859 O.2       1 UNK         0.0000 
     15 N15         6.2075   55.3331   19.7090 N.am      1 UNK         0.0000 
     16 C16         5.2390   54.4664   19.2568 C.2       1 UNK         0.0000 
     17 S17         4.7913   54.0994   17.6803 S.2       1 UNK         0.0000 
     18 C18         7.0558   56.0931   18.8753 C.ar      1 UNK         0.0000 
     19 C19         6.6071   57.3156   18.3605 C.ar      1 UNK         0.0000 
     20 C20         7.4670   58.1021   17.6010 C.ar      1 UNK         0.0000 
     21 C21         8.7687   57.6647   17.3602 C.ar      1 UNK         0.0000 
     22 C22         9.2198   56.4486   17.8710 C.ar      1 UNK         0.0000 
     23 C23         8.3638   55.6579   18.6307 C.ar      1 UNK         0.0000 
     24 C24         5.7084   53.7143   22.7644 C.3       1 UNK         0.0000 
     25 C25         5.7194   54.3407   24.1673 C.2       1 UNK         0.0000 
     26 O26         6.7030   54.9693   24.5592 O.2       1 UNK         0.0000 
     27 N27         4.6118   54.0969   24.8934 N.am      1 UNK         0.0000 
     28 C28         4.4029   54.2204   26.2744 C.ar      1 UNK         0.0000 
     29 C29         3.1081   53.9408   26.7177 C.ar      1 UNK         0.0000 
     30 C30         2.8259   53.9146   28.0788 C.ar      1 UNK         0.0000 
     31 C31         3.8403   54.1715   28.9949 C.ar      1 UNK         0.0000 
     32 C32         5.1263   54.4847   28.5657 C.ar      1 UNK         0.0000 
     33 C33         5.4161   54.4963   27.2055 C.ar      1 UNK         0.0000 
     34 F34         3.5757   54.0968   30.3150 F         1 UNK         0.0000 
     35 H35        -1.1997   49.4081   20.1773 H         1 UNK         0.0000 
     36 H36        -1.1434   51.7232   21.0315 H         1 UNK         0.0000 
     37 H37         0.9914   52.9098   21.2427 H         1 UNK         0.0000 
     38 H38         3.0452   49.4266   19.7269 H         1 UNK         0.0000 
     39 H39         0.8967   48.2635   19.5274 H         1 UNK         0.0000 
     40 H40         2.7349   53.8183   20.1253 H         1 UNK         0.0000 
     41 H41         5.6020   57.6612   18.5549 H         1 UNK         0.0000 
     42 H42         7.1258   59.0512   17.2092 H         1 UNK         0.0000 
     43 H43         9.4368   58.2777   16.7741 H         1 UNK         0.0000 
     44 H44        10.2347   56.1241   17.6901 H         1 UNK         0.0000 
     45 H45         8.7218   54.7248   19.0409 H         1 UNK         0.0000 
     46 H46         6.7042   53.3304   22.5608 H         1 UNK         0.0000 
     47 H47         5.0905   52.8219   22.8203 H         1 UNK         0.0000 
     48 H48         3.8424   53.6820   24.3927 H         1 UNK         0.0000 
     49 H49         2.3198   53.7115   26.0155 H         1 UNK         0.0000 
     50 H50         1.8327   53.6738   28.4273 H         1 UNK         0.0000 
     51 H51         5.9069   54.6886   29.2822 H         1 UNK         0.0000 
     52 H52         6.4341   54.6944   26.9083 H         1 UNK         0.0000 
@<TRIPOS>BOND
     1    1    6 ar   
     2    1    2 ar   
     3    1   35 1    
     4    2    3 ar   
     5    2   36 1    
     6    3    4 ar   
     7    3   37 1    
     8    4    5 ar   
     9    4    7 1    
    10    5    6 ar   
    11    5   38 1    
    12    6   39 1    
    13    7    8 2    
    14    7    9 am   BACKBONE|DICT|INTERRES
    15    9   10 1    
    16    9   40 1    
    17   10   16 1    
    18   10   11 1    
    19   11   12 1    
    20   11   13 1    
    21   11   24 1    
    22   13   14 2    
    23   13   15 am   BACKBONE|DICT|INTERRES
    24   15   16 am   BACKBONE|DICT|INTERRES
    25   15   18 1    
    26   16   17 2    
    27   18   23 ar   
    28   18   19 ar   
    29   19   20 ar   
    30   19   41 1    
    31   20   21 ar   
    32   20   42 1    
    33   21   22 ar   
    34   21   43 1    
    35   22   23 ar   
    36   22   44 1    
    37   23   45 1    
    38   24   25 1    
    39   24   46 1    
    40   24   47 1    
    41   25   26 2    
    42   25   27 am   BACKBONE|DICT|INTERRES
    43   27   28 1    
    44   27   48 1    
    45   28   33 ar   
    46   28   29 ar   
    47   29   30 ar   
    48   29   49 1    
    49   30   31 ar   
    50   30   50 1    
    51   31   32 ar   
    52   31   34 1    
    53   32   33 ar   
    54   32   51 1    
    55   33   52 1    
@<TRIPOS>SUBSTRUCTURE
     1 UNK         1 GROUP             0       ****    0 ROOT    
