ZINC43898582_2267
                    3D
 Schrodinger Suite 2024-2.
 51 53  0  0  1  0            999 V2000
   -4.0923   50.8643   26.8962 C   0  0  0  0  0  0
   -2.7676   51.2969   27.5108 C   0  0  0  0  0  0
   -2.5002   51.1349   28.8742 C   0  0  0  0  0  0
   -0.9027   51.6967   29.2841 S   0  0  0  0  0  0
   -0.5455   52.0616   27.6295 C   0  0  0  0  0  0
   -1.6398   51.7747   26.7839 C   0  0  0  0  0  0
   -1.6836   52.0524   25.3528 C   0  0  0  0  0  0
   -2.7090   52.4991   24.8282 O   0  0  0  0  0  0
   -0.5266   51.7894   24.7021 N   0  0  0  0  0  0
   -0.2253   52.0696   23.4209 C   0  0  0  0  0  0
   -1.0042   52.4907   22.5598 O   0  0  0  0  0  0
    1.1188   51.8109   23.2825 O   0  0  0  0  0  0
    1.6730   52.0776   21.9984 C   0  0  0  0  0  0
    0.6760   52.6016   27.2381 N   0  0  0  0  0  0
    1.7907   52.8816   27.9480 C   0  0  0  0  0  0
    1.9433   52.6708   29.1523 O   0  0  0  0  0  0
    2.9137   53.4588   27.1120 C   0  0  0  0  0  0
    2.6650   54.0136   25.8467 C   0  0  0  0  0  0
    3.6976   54.4960   25.0617 C   0  0  0  0  0  0
    5.0203   54.3887   25.4932 C   0  0  0  0  0  0
    5.2756   53.8937   26.7817 C   0  0  0  0  0  0
    4.2324   53.4327   27.5822 C   0  0  0  0  0  0
    6.1493   54.8965   24.6498 C   0  0  0  0  0  0
    7.1044   55.4033   25.2361 O   0  0  0  0  0  0
    6.1397   54.8089   23.1363 C   0  0  0  0  0  0
    5.2063   54.0320   22.4278 C   0  0  0  0  0  0
    5.1324   54.0967   21.0387 C   0  0  0  0  0  0
    6.0301   54.8960   20.3362 C   0  0  0  0  0  0
    7.0283   55.5925   21.0089 C   0  0  0  0  0  0
    7.0888   55.5374   22.3989 C   0  0  0  0  0  0
   -3.4015   50.5365   29.9388 C   0  0  0  0  0  0
   -4.7511   51.7151   26.7180 H   0  0  0  0  0  0
   -3.9495   50.3711   25.9344 H   0  0  0  0  0  0
   -4.6302   50.1387   27.5070 H   0  0  0  0  0  0
    0.1998   51.3347   25.2317 H   0  0  0  0  0  0
    2.7352   51.8337   21.9998 H   0  0  0  0  0  0
    1.1940   51.4751   21.2245 H   0  0  0  0  0  0
    1.5731   53.1312   21.7307 H   0  0  0  0  0  0
    0.7432   52.8270   26.2601 H   0  0  0  0  0  0
    1.6660   54.0973   25.4448 H   0  0  0  0  0  0
    3.4447   54.9480   24.1130 H   0  0  0  0  0  0
    6.2863   53.8385   27.1640 H   0  0  0  0  0  0
    4.4639   53.0255   28.5570 H   0  0  0  0  0  0
    4.5084   53.3805   22.9307 H   0  0  0  0  0  0
    4.3872   53.5228   20.5066 H   0  0  0  0  0  0
    5.9754   54.9413   19.2578 H   0  0  0  0  0  0
    7.7536   56.1697   20.4545 H   0  0  0  0  0  0
    7.8672   56.0967   22.8969 H   0  0  0  0  0  0
   -3.6954   49.5158   29.6902 H   0  0  0  0  0  0
   -2.9197   50.4968   30.9177 H   0  0  0  0  0  0
   -4.3218   51.1078   30.0549 H   0  0  0  0  0  0
  1  2  1  0  0  0
  1 32  1  0  0  0
  1 33  1  0  0  0
  1 34  1  0  0  0
  2  6  1  0  0  0
  2  3  2  0  0  0
  3  4  1  0  0  0
  3 31  1  0  0  0
  4  5  1  0  0  0
  5  6  2  0  0  0
  5 14  1  0  0  0
  6  7  1  0  0  0
  7  8  2  0  0  0
  7  9  1  0  0  0
  9 10  1  0  0  0
  9 35  1  0  0  0
 10 11  2  0  0  0
 10 12  1  0  0  0
 12 13  1  0  0  0
 13 36  1  0  0  0
 13 37  1  0  0  0
 13 38  1  0  0  0
 14 15  1  0  0  0
 14 39  1  0  0  0
 15 16  2  0  0  0
 15 17  1  0  0  0
 17 22  2  0  0  0
 17 18  1  0  0  0
 18 19  2  0  0  0
 18 40  1  0  0  0
 19 20  1  0  0  0
 19 41  1  0  0  0
 20 21  2  0  0  0
 20 23  1  0  0  0
 21 22  1  0  0  0
 21 42  1  0  0  0
 22 43  1  0  0  0
 23 24  2  0  0  0
 23 25  1  0  0  0
 25 30  2  0  0  0
 25 26  1  0  0  0
 26 27  2  0  0  0
 26 44  1  0  0  0
 27 28  1  0  0  0
 27 45  1  0  0  0
 28 29  2  0  0  0
 28 46  1  0  0  0
 29 30  1  0  0  0
 29 47  1  0  0  0
 30 48  1  0  0  0
 31 49  1  0  0  0
 31 50  1  0  0  0
 31 51  1  0  0  0
M  END
> <i_i_glide_confnum>
24

> <i_i_glide_lignum>
2268

> <i_i_glide_posenum>
103

> <i_i_glide_rotatable_bonds>
9

> <i_m_Source_File_Index>
731

> <b_m_subgroup_collapsed>
0

> <r_i_docking_score>
-6.62322

> <r_i_glide_ecoul>
-6.77402

> <r_i_glide_eff_state_penalty>
0

> <r_i_glide_einternal>
12.7017

> <r_i_glide_emodel>
-62.5612

> <r_i_glide_energy>
-47.906

> <r_i_glide_erotb>
0.83702

> <r_i_glide_esite>
-0.00727063

> <r_i_glide_evdw>
-41.132

> <r_i_glide_gscore>
-6.62322

> <r_i_glide_hbond>
-0.32

> <r_i_glide_ligand_efficiency>
-0.213652

> <r_i_glide_ligand_efficiency_ln>
-1.49374

> <r_i_glide_ligand_efficiency_sa>
-0.671163

> <r_i_glide_lipo>
-2.34465

> <r_i_glide_metal>
0

> <r_i_glide_rewards>
-1.71562

> <s_i_glide_gridfile>
wee1_glide-grid

> <s_m_Source_File>
wee1_decoys_glide_SP.sdf

> <s_m_Source_Path>
/Users/zhangxujun/Desktop

> <s_m_entry_id>
1006

> <s_m_entry_name>
wee1_decoys_glide_SP.731

> <s_m_subgroup_title>
wee1_decoys_glide_SP

> <s_m_subgroupid>
wee1_decoys_glide_SP


$$$$
