ZINC49421300_6030
                    3D
 Schrodinger Suite 2024-2.
 62 66  0  0  1  0            999 V2000
    0.3174   52.5009   31.4235 C   0  0  0  0  0  0
    1.3996   52.9362   30.4564 C   0  0  0  0  0  0
    2.7138   52.4960   30.6210 C   0  0  0  0  0  0
    3.6950   52.8802   29.7107 C   0  0  0  0  0  0
    3.3664   53.7163   28.6394 C   0  0  0  0  0  0
    2.0547   54.1829   28.5013 C   0  0  0  0  0  0
    1.0726   53.7898   29.4039 C   0  0  0  0  0  0
    4.4057   54.0805   27.6285 C   0  0  0  0  0  0
    5.7175   54.4401   27.9466 C   0  0  0  0  0  0
    6.7003   54.7921   26.5634 S   0  0  0  0  0  0
    5.3668   54.4507   25.5260 C   0  0  0  0  0  0
    4.2188   54.0724   26.2278 C   0  0  0  0  0  0
    3.0697   53.7011   25.5868 N   0  0  0  0  0  0
    3.0326   53.6969   24.2958 C   0  0  0  0  0  0
    4.1563   54.1018   23.5925 N   0  0  0  0  0  0
    5.3816   54.4889   24.0731 C   0  0  0  0  0  0
    6.3040   54.7945   23.3221 O   0  0  0  0  0  0
    1.8717   53.2384   23.5910 N   0  0  0  0  0  0
    1.9684   52.5478   22.2956 C   0  0  0  0  0  0
    1.1778   51.2265   22.2654 C   0  0  0  0  0  0
   -0.2881   51.4299   22.6649 C   0  0  0  0  0  0
   -0.3389   52.0377   24.0881 C   0  0  1  0  0  0
   -0.0088   51.3068   24.8289 H   0  0  0  0  0  0
    0.5182   53.3380   24.1754 C   0  0  0  0  0  0
   -1.8226   52.4033   24.3360 C   0  0  0  0  0  0
   -2.3488   53.3039   23.6808 O   0  0  0  0  0  0
   -2.4942   51.7073   25.2771 N   0  0  0  0  0  0
   -3.8874   51.9468   25.7001 C   0  0  1  0  0  0
   -3.9426   52.9997   25.9887 H   0  0  0  0  0  0
   -4.9001   51.7569   24.5421 C   0  0  0  0  0  0
   -4.2592   51.1892   26.9931 C   0  0  0  0  0  0
   -5.4743   50.4942   27.1209 C   0  0  0  0  0  0
   -5.7938   49.8280   28.3009 C   0  0  0  0  0  0
   -4.9019   49.8401   29.3660 C   0  0  0  0  0  0
   -3.6929   50.5163   29.2568 C   0  0  0  0  0  0
   -3.3709   51.1880   28.0776 C   0  0  0  0  0  0
   -5.2165   49.1923   30.5110 F   0  0  0  0  0  0
    0.7295   52.0959   32.3492 H   0  0  0  0  0  0
   -0.3109   53.3476   31.7011 H   0  0  0  0  0  0
   -0.3274   51.7502   30.9635 H   0  0  0  0  0  0
    2.9739   51.8519   31.4487 H   0  0  0  0  0  0
    4.7029   52.5080   29.8271 H   0  0  0  0  0  0
    1.7865   54.8375   27.6847 H   0  0  0  0  0  0
    0.0578   54.1375   29.2760 H   0  0  0  0  0  0
    6.1539   54.5248   28.9317 H   0  0  0  0  0  0
    3.0098   52.3014   22.0811 H   0  0  0  0  0  0
    1.6750   53.2391   21.5029 H   0  0  0  0  0  0
    1.6665   50.4821   22.8969 H   0  0  0  0  0  0
    1.2216   50.8139   21.2566 H   0  0  0  0  0  0
   -0.7729   50.4527   22.6248 H   0  0  0  0  0  0
   -0.6942   52.1092   21.9104 H   0  0  0  0  0  0
    0.0467   54.1903   23.6842 H   0  0  0  0  0  0
    0.5988   53.6095   25.2275 H   0  0  0  0  0  0
   -1.9978   50.9959   25.7957 H   0  0  0  0  0  0
   -5.9050   52.0636   24.8308 H   0  0  0  0  0  0
   -4.6485   52.3644   23.6795 H   0  0  0  0  0  0
   -4.9378   50.7189   24.2119 H   0  0  0  0  0  0
   -6.1929   50.4519   26.3181 H   0  0  0  0  0  0
   -6.7297   49.2976   28.3910 H   0  0  0  0  0  0
   -2.9939   50.4966   30.0810 H   0  0  0  0  0  0
   -2.4188   51.6916   28.0098 H   0  0  0  0  0  0
    4.0980   54.0991   22.5867 H   0  0  0  0  0  0
  1  2  1  0  0  0
  1 38  1  0  0  0
  1 39  1  0  0  0
  1 40  1  0  0  0
  2  7  2  0  0  0
  2  3  1  0  0  0
  3  4  2  0  0  0
  3 41  1  0  0  0
  4  5  1  0  0  0
  4 42  1  0  0  0
  5  6  2  0  0  0
  5  8  1  0  0  0
  6  7  1  0  0  0
  6 43  1  0  0  0
  7 44  1  0  0  0
  8 12  1  0  0  0
  8  9  2  0  0  0
  9 10  1  0  0  0
  9 45  1  0  0  0
 10 11  1  0  0  0
 11 16  1  0  0  0
 11 12  2  0  0  0
 12 13  1  0  0  0
 13 14  2  0  0  0
 14 15  1  0  0  0
 14 18  1  0  0  0
 15 16  1  0  0  0
 15 62  1  0  0  0
 16 17  2  0  0  0
 18 24  1  0  0  0
 18 19  1  0  0  0
 19 20  1  0  0  0
 19 46  1  0  0  0
 19 47  1  0  0  0
 20 21  1  0  0  0
 20 48  1  0  0  0
 20 49  1  0  0  0
 21 22  1  0  0  0
 21 50  1  0  0  0
 21 51  1  0  0  0
 22 23  1  0  0  0
 22 24  1  0  0  0
 22 25  1  0  0  0
 24 52  1  0  0  0
 24 53  1  0  0  0
 25 26  2  0  0  0
 25 27  1  0  0  0
 27 28  1  0  0  0
 27 54  1  0  0  0
 28 29  1  0  0  0
 28 30  1  0  0  0
 28 31  1  0  0  0
 30 55  1  0  0  0
 30 56  1  0  0  0
 30 57  1  0  0  0
 31 36  2  0  0  0
 31 32  1  0  0  0
 32 33  2  0  0  0
 32 58  1  0  0  0
 33 34  1  0  0  0
 33 59  1  0  0  0
 34 35  2  0  0  0
 34 37  1  0  0  0
 35 36  1  0  0  0
 35 60  1  0  0  0
 36 61  1  0  0  0
M  END
> <i_i_glide_confnum>
65

> <i_i_glide_lignum>
6031

> <i_i_glide_posenum>
314

> <i_i_glide_rotatable_bonds>
6

> <i_m_Source_File_Index>
3030

> <b_m_subgroup_collapsed>
0

> <r_i_docking_score>
-6.38281

> <r_i_glide_ecoul>
-2.89907

> <r_i_glide_eff_state_penalty>
0

> <r_i_glide_einternal>
3.74304

> <r_i_glide_emodel>
-73.95

> <r_i_glide_energy>
-54.8647

> <r_i_glide_erotb>
0.422791

> <r_i_glide_esite>
-0.0629795

> <r_i_glide_evdw>
-51.9657

> <r_i_glide_gscore>
-6.38281

> <r_i_glide_hbond>
0

> <r_i_glide_ligand_efficiency>
-0.182366

> <r_i_glide_ligand_efficiency_ln>
-1.40117

> <r_i_glide_ligand_efficiency_sa>
-0.596532

> <r_i_glide_lipo>
-2.85428

> <r_i_glide_metal>
0

> <r_i_glide_rewards>
-0.855201

> <s_i_glide_gridfile>
wee1_glide-grid

> <s_m_Source_File>
wee1_decoys_glide_SP.sdf

> <s_m_Source_Path>
/Users/zhangxujun/Desktop

> <s_m_entry_id>
3305

> <s_m_entry_name>
wee1_decoys_glide_SP.3030

> <s_m_subgroup_title>
wee1_decoys_glide_SP

> <s_m_subgroupid>
wee1_decoys_glide_SP


$$$$
