@<TRIPOS>MOLECULE
ZINC12570799_417
38   39    1
SMALL
USER_CHARGES


@<TRIPOS>ATOM
      1 C1         -0.3783   52.0337   28.0115 C.3       1 UNK         0.0000 
      2 C2          0.7605   51.7208   27.0203 C.3       1 UNK         0.0000 
      3 H3          1.5627   51.2013   27.5478 H         1 UNK         0.0000 
      4 C4          0.3040   50.7903   25.8667 C.2       1 UNK         0.0000 
      5 O5          0.3264   51.1855   24.6976 O.2       1 UNK         0.0000 
      6 N6         -0.0963   49.5470   26.2255 N.am      1 UNK         0.0000 
      7 N7         -0.5286   48.5937   25.2816 N.pl3     1 UNK         0.0000 
      8 C8         -1.7317   48.6467   24.6286 C.2       1 UNK         0.0000 
      9 S9         -2.0960   47.3217   23.6739 S.2       1 UNK         0.0000 
     10 N10        -2.5116   49.7627   24.8445 N.am      1 UNK         0.0000 
     11 C11        -3.6864   50.1839   24.3142 C.2       1 UNK         0.0000 
     12 O12        -4.4146   49.5549   23.5427 O.2       1 UNK         0.0000 
     13 C13        -4.0540   51.5083   24.7507 C.2       1 UNK         0.0000 
     14 C14        -3.2989   52.5773   25.2324 C.2       1 UNK         0.0000 
     15 C15        -4.1817   53.6400   25.4324 C.2       1 UNK         0.0000 
     16 C16        -5.4203   53.2105   24.9921 C.2       1 UNK         0.0000 
     17 O17        -5.3372   51.9238   24.5643 O.3       1 UNK         0.0000 
     18 Br18       -7.1071   54.0840   24.8838 Br        1 UNK         0.0000 
     19 O19         1.1768   52.9734   26.4579 O.3       1 UNK         0.0000 
     20 C20         2.4759   53.4175   26.6143 C.ar      1 UNK         0.0000 
     21 C21         3.2068   53.2384   27.7985 C.ar      1 UNK         0.0000 
     22 C22         4.5238   53.6961   27.8971 C.ar      1 UNK         0.0000 
     23 C23         5.1220   54.3354   26.8117 C.ar      1 UNK         0.0000 
     24 C24         4.3991   54.5346   25.6388 C.ar      1 UNK         0.0000 
     25 C25         3.0808   54.0898   25.5420 C.ar      1 UNK         0.0000 
     26 Cl26        2.2104   54.3717   24.0732 Cl        1 UNK         0.0000 
     27 Cl27        6.7504   54.8920   26.9160 Cl        1 UNK         0.0000 
     28 H28        -0.7776   51.1318   28.4786 H         1 UNK         0.0000 
     29 H29        -0.0172   52.6748   28.8181 H         1 UNK         0.0000 
     30 H30        -1.2056   52.5525   27.5279 H         1 UNK         0.0000 
     31 H31        -0.2641   49.2386   27.1799 H         1 UNK         0.0000 
     32 H32        -0.2520   47.6775   25.6108 H         1 UNK         0.0000 
     33 H33        -2.1054   50.4201   25.4897 H         1 UNK         0.0000 
     34 H34        -2.2357   52.5863   25.4238 H         1 UNK         0.0000 
     35 H35        -3.9452   54.6177   25.8243 H         1 UNK         0.0000 
     36 H36         2.7595   52.7494   28.6487 H         1 UNK         0.0000 
     37 H37         5.0816   53.5482   28.8098 H         1 UNK         0.0000 
     38 H38         4.8596   55.0352   24.8007 H         1 UNK         0.0000 
@<TRIPOS>BOND
     1    1    2 1    
     2    1   28 1    
     3    1   29 1    
     4    1   30 1    
     5    2    3 1    
     6    2    4 1    
     7    2   19 1    
     8    4    5 2    
     9    4    6 am   BACKBONE|DICT|INTERRES
    10    6    7 1    
    11    6   31 1    
    12    7    8 1    
    13    7   32 1    
    14    8    9 2    
    15    8   10 am   BACKBONE|DICT|INTERRES
    16   10   11 am   BACKBONE|DICT|INTERRES
    17   10   33 1    
    18   11   12 2    
    19   11   13 1    
    20   13   17 1    
    21   13   14 2    
    22   14   15 1    
    23   14   34 1    
    24   15   16 2    
    25   15   35 1    
    26   16   17 1    
    27   16   18 1    
    28   19   20 1    
    29   20   25 ar   
    30   20   21 ar   
    31   21   22 ar   
    32   21   36 1    
    33   22   23 ar   
    34   22   37 1    
    35   23   24 ar   
    36   23   27 1    
    37   24   25 ar   
    38   24   38 1    
    39   25   26 1    
@<TRIPOS>SUBSTRUCTURE
     1 UNK         1 GROUP             0       ****    0 ROOT    
