ZINC04191355_2662
                    3D
 Schrodinger Suite 2024-2.
 43 45  0  0  1  0            999 V2000
    0.0046   52.5183   30.3761 C   0  0  0  0  0  0
    1.5230   52.4967   30.5485 C   0  0  0  0  0  0
    1.9865   52.0967   31.6157 O   0  0  0  0  0  0
    2.3752   52.9716   29.4144 C   0  0  0  0  0  0
    3.7609   53.0849   29.5887 C   0  0  0  0  0  0
    4.5738   53.5095   28.5407 C   0  0  0  0  0  0
    4.0211   53.8130   27.2902 C   0  0  0  0  0  0
    2.6323   53.6959   27.1197 C   0  0  0  0  0  0
    1.8194   53.2808   28.1679 C   0  0  0  0  0  0
    4.9208   54.2649   26.1580 C   0  0  0  0  0  0
    6.0239   54.7702   26.3962 O   0  0  0  0  0  0
    4.3583   54.0969   24.8948 N   0  0  0  0  0  0
    4.9680   54.2467   23.7788 C   0  0  0  0  0  0
    4.3957   54.0907   22.5144 N   0  0  0  0  0  0
    5.1682   54.4828   21.4098 C   0  0  0  0  0  0
    4.8042   54.4965   20.0563 C   0  0  0  0  0  0
    5.7061   54.9546   19.0964 C   0  0  0  0  0  0
    6.9728   55.3983   19.4869 C   0  0  0  0  0  0
    7.3409   55.3748   20.8337 C   0  0  0  0  0  0
    6.4375   54.9006   21.7800 C   0  0  0  0  0  0
    6.7033   54.6935   23.4895 S   0  0  0  0  0  0
    8.1538   55.9693   18.2829 S   0  0  0  0  0  0
    7.5922   55.7337   16.9499 O   0  0  0  0  0  0
    8.5843   57.2984   18.7203 O   0  0  0  0  0  0
    9.5049   54.8965   18.4814 N   0  0  0  0  0  0
    3.0701   53.4766   22.3133 C   0  0  0  0  0  0
    3.0995   52.1354   21.6929 C   0  0  0  0  0  0
    3.1037   51.0443   21.1451 C   0  0  0  0  0  0
   -0.2931   51.8670   29.5547 H   0  0  0  0  0  0
   -0.4950   52.1744   31.2817 H   0  0  0  0  0  0
   -0.3365   53.5274   30.1495 H   0  0  0  0  0  0
    4.2230   52.8445   30.5360 H   0  0  0  0  0  0
    5.6396   53.5913   28.7053 H   0  0  0  0  0  0
    2.1643   53.9252   26.1725 H   0  0  0  0  0  0
    0.7575   53.2013   27.9827 H   0  0  0  0  0  0
    3.8260   54.1718   19.7328 H   0  0  0  0  0  0
    5.4167   54.9618   18.0547 H   0  0  0  0  0  0
    8.3303   55.6966   21.1308 H   0  0  0  0  0  0
    9.6969   54.2928   17.6779 H   0  0  0  0  0  0
   10.3287   55.2966   18.9485 H   0  0  0  0  0  0
    2.5135   53.3993   23.2486 H   0  0  0  0  0  0
    2.4608   54.1187   21.6824 H   0  0  0  0  0  0
    3.1055   50.1012   20.6448 H   0  0  0  0  0  0
  1  2  1  0  0  0
  1 29  1  0  0  0
  1 30  1  0  0  0
  1 31  1  0  0  0
  2  3  2  0  0  0
  2  4  1  0  0  0
  4  9  2  0  0  0
  4  5  1  0  0  0
  5  6  2  0  0  0
  5 32  1  0  0  0
  6  7  1  0  0  0
  6 33  1  0  0  0
  7  8  2  0  0  0
  7 10  1  0  0  0
  8  9  1  0  0  0
  8 34  1  0  0  0
  9 35  1  0  0  0
 10 11  2  0  0  0
 10 12  1  0  0  0
 12 13  2  0  0  0
 13 21  1  0  0  0
 13 14  1  0  0  0
 14 15  1  0  0  0
 14 26  1  0  0  0
 15 20  2  0  0  0
 15 16  1  0  0  0
 16 17  2  0  0  0
 16 36  1  0  0  0
 17 18  1  0  0  0
 17 37  1  0  0  0
 18 19  2  0  0  0
 18 22  1  0  0  0
 19 20  1  0  0  0
 19 38  1  0  0  0
 20 21  1  0  0  0
 22 23  2  0  0  0
 22 24  2  0  0  0
 22 25  1  0  0  0
 25 39  1  0  0  0
 25 40  1  0  0  0
 26 27  1  0  0  0
 26 41  1  0  0  0
 26 42  1  0  0  0
 27 28  3  0  0  0
 28 43  1  0  0  0
M  END
> <i_i_glide_confnum>
19

> <i_i_glide_lignum>
2663

> <i_i_glide_posenum>
378

> <i_i_glide_rotatable_bonds>
6

> <i_m_Source_File_Index>
5773

> <b_m_subgroup_collapsed>
0

> <r_i_docking_score>
-6.28744

> <r_i_glide_ecoul>
-5.99193

> <r_i_glide_eff_state_penalty>
0

> <r_i_glide_einternal>
3.06412

> <r_i_glide_emodel>
-69.8327

> <r_i_glide_energy>
-53.7048

> <r_i_glide_erotb>
0.461597

> <r_i_glide_esite>
-0.0247333

> <r_i_glide_evdw>
-47.7128

> <r_i_glide_gscore>
-6.28744

> <r_i_glide_hbond>
-0.435426

> <r_i_glide_ligand_efficiency>
-0.224552

> <r_i_glide_ligand_efficiency_ln>
-1.45133

> <r_i_glide_ligand_efficiency_sa>
-0.681871

> <r_i_glide_lipo>
-2.53386

> <r_i_glide_metal>
0

> <r_i_glide_rewards>
-0.470594

> <s_i_glide_gridfile>
wee1_glide-grid

> <s_m_Source_File>
wee1_decoys_glide_SP.sdf

> <s_m_Source_Path>
/Users/zhangxujun/Desktop

> <s_m_entry_id>
6048

> <s_m_entry_name>
wee1_decoys_glide_SP.5773

> <s_m_subgroup_title>
wee1_decoys_glide_SP

> <s_m_subgroupid>
wee1_decoys_glide_SP


$$$$
