ZINC35361523_5397
                    3D
 Schrodinger Suite 2024-2.
 81 85  0  0  1  0            999 V2000
    2.5700   55.1338   28.3912 C   0  0  0  0  0  0
    3.6172   54.0963   27.8822 C   0  0  2  0  0  0
    4.0867   54.4301   26.4249 C   0  0  0  0  0  0
    3.0767   54.1118   25.2850 C   0  0  0  0  0  0
    2.2859   52.7834   25.4116 C   0  0  1  0  0  0
    3.0952   52.1001   25.1758 H   0  0  0  0  0  0
    1.9200   52.3588   26.8693 C   0  0  1  0  0  0
    1.8845   51.2868   26.8818 H   0  0  0  0  0  0
    3.0625   52.6671   27.8468 C   0  0  2  0  0  0
    3.8922   52.0968   27.4444 H   0  0  0  0  0  0
    2.9642   52.1788   29.2825 C   0  0  0  0  0  0
    4.1957   52.8049   29.9414 C   0  0  0  0  0  0
    4.7542   53.8805   28.9589 C   0  0  1  0  0  0
    6.1360   53.4564   28.3861 C   0  0  0  0  0  0
    5.1044   55.0327   29.6817 O   0  0  0  0  0  0
    0.4804   52.7305   27.2309 C   0  0  0  0  0  0
   -0.5647   52.1015   26.2747 C   0  0  0  0  0  0
    0.0477   51.5972   24.9581 C   0  0  0  0  0  0
   -0.3787   50.4493   24.3743 C   0  0  0  0  0  0
    0.1029   49.9105   23.1316 C   0  0  0  0  0  0
   -0.5112   48.9429   22.5701 N   0  0  0  0  0  0
   -0.0114   48.6819   21.2716 O   0  0  0  0  0  0
   -1.0805   48.5443   20.3322 C   0  0  0  0  0  0
   -1.6062   49.9156   19.8540 C   0  0  0  0  0  0
   -1.5035   50.9268   20.5503 O   0  0  0  0  0  0
   -2.1989   49.9336   18.6424 N   0  0  0  0  0  0
   -2.8995   51.0655   17.9853 C   0  0  1  0  0  0
   -3.0953   50.7473   16.9607 H   0  0  0  0  0  0
   -4.2750   51.3197   18.6676 C   0  0  0  0  0  0
   -5.2018   50.1183   18.7579 C   0  0  0  0  0  0
   -5.2163   49.3135   19.9170 C   0  0  0  0  0  0
   -6.0016   48.1698   19.9593 C   0  0  0  0  0  0
   -6.7568   47.7992   18.8537 C   0  0  0  0  0  0
   -6.7215   48.5598   17.6918 C   0  0  0  0  0  0
   -5.9433   49.7084   17.6296 C   0  0  0  0  0  0
   -2.0373   52.3353   17.9076 C   0  0  0  0  0  0
   -2.4957   53.4695   18.0815 O   0  0  0  0  0  0
   -0.7470   52.0745   17.5918 O   0  0  0  0  0  0
    0.2074   53.1233   17.5156 C   0  0  0  0  0  0
    1.2578   50.6028   22.6053 C   0  0  0  0  0  0
    1.7682   51.7333   23.1271 C   0  0  0  0  0  0
    1.1755   52.4819   24.3335 C   0  0  2  0  0  0
    0.5140   53.7419   23.7394 C   0  0  0  0  0  0
    2.0947   54.8187   29.3203 H   0  0  0  0  0  0
    3.0298   56.0966   28.6008 H   0  0  0  0  0  0
    1.7757   55.3297   27.6815 H   0  0  0  0  0  0
    4.9393   53.8028   26.1697 H   0  0  0  0  0  0
    4.4630   55.4498   26.3574 H   0  0  0  0  0  0
    3.5751   54.1630   24.3154 H   0  0  0  0  0  0
    2.3505   54.8966   25.2448 H   0  0  0  0  0  0
    2.0546   52.5515   29.7557 H   0  0  0  0  0  0
    2.9197   51.0918   29.3280 H   0  0  0  0  0  0
    3.9052   53.2330   30.9008 H   0  0  0  0  0  0
    4.9307   52.0257   30.1442 H   0  0  0  0  0  0
    6.0730   52.5233   27.8262 H   0  0  0  0  0  0
    6.5523   54.2121   27.7181 H   0  0  0  0  0  0
    6.8852   53.2973   29.1605 H   0  0  0  0  0  0
    5.9971   55.3027   29.4277 H   0  0  0  0  0  0
    0.3685   53.7945   27.3058 H   0  0  0  0  0  0
    0.2612   52.3746   28.2374 H   0  0  0  0  0  0
   -1.3584   52.8192   26.0663 H   0  0  0  0  0  0
   -1.0417   51.2566   26.7763 H   0  0  0  0  0  0
   -1.1601   49.9065   24.8866 H   0  0  0  0  0  0
   -1.9016   47.9539   20.7436 H   0  0  0  0  0  0
   -0.6904   47.9908   19.4781 H   0  0  0  0  0  0
   -2.3384   49.0433   18.1891 H   0  0  0  0  0  0
   -4.8166   52.0964   18.1278 H   0  0  0  0  0  0
   -4.1252   51.6969   19.6811 H   0  0  0  0  0  0
   -4.6196   49.5850   20.7752 H   0  0  0  0  0  0
   -6.0247   47.5668   20.8552 H   0  0  0  0  0  0
   -7.3667   46.9081   18.8934 H   0  0  0  0  0  0
   -7.3005   48.2566   16.8324 H   0  0  0  0  0  0
   -5.9104   50.2850   16.7164 H   0  0  0  0  0  0
    1.1838   52.7155   17.2509 H   0  0  0  0  0  0
   -0.0723   53.8574   16.7578 H   0  0  0  0  0  0
    0.3027   53.6356   18.4752 H   0  0  0  0  0  0
    1.7743   50.1987   21.7471 H   0  0  0  0  0  0
    2.6338   52.1561   22.6367 H   0  0  0  0  0  0
   -0.4382   53.4798   23.2817 H   0  0  0  0  0  0
    0.3045   54.4964   24.4817 H   0  0  0  0  0  0
    1.1358   54.2256   22.9831 H   0  0  0  0  0  0
  1  2  1  0  0  0
  1 44  1  0  0  0
  1 45  1  0  0  0
  1 46  1  0  0  0
  2  9  1  0  0  0
  2 13  1  0  0  0
  2  3  1  0  0  0
  3  4  1  0  0  0
  3 47  1  0  0  0
  3 48  1  0  0  0
  4  5  1  0  0  0
  4 49  1  0  0  0
  4 50  1  0  0  0
  5  6  1  0  0  0
  5 42  1  0  0  0
  5  7  1  0  0  0
  7  8  1  0  0  0
  7  9  1  0  0  0
  7 16  1  0  0  0
  9 10  1  0  0  0
  9 11  1  0  0  0
 11 12  1  0  0  0
 11 51  1  0  0  0
 11 52  1  0  0  0
 12 13  1  0  0  0
 12 53  1  0  0  0
 12 54  1  0  0  0
 13 14  1  0  0  0
 13 15  1  0  0  0
 14 55  1  0  0  0
 14 56  1  0  0  0
 14 57  1  0  0  0
 15 58  1  0  0  0
 16 17  1  0  0  0
 16 59  1  0  0  0
 16 60  1  0  0  0
 17 18  1  0  0  0
 17 61  1  0  0  0
 17 62  1  0  0  0
 18 42  1  0  0  0
 18 19  2  0  0  0
 19 20  1  0  0  0
 19 63  1  0  0  0
 20 21  2  0  0  0
 20 40  1  0  0  0
 21 22  1  0  0  0
 22 23  1  0  0  0
 23 24  1  0  0  0
 23 64  1  0  0  0
 23 65  1  0  0  0
 24 25  2  0  0  0
 24 26  1  0  0  0
 26 27  1  0  0  0
 26 66  1  0  0  0
 27 28  1  0  0  0
 27 29  1  0  0  0
 27 36  1  0  0  0
 29 30  1  0  0  0
 29 67  1  0  0  0
 29 68  1  0  0  0
 30 35  2  0  0  0
 30 31  1  0  0  0
 31 32  2  0  0  0
 31 69  1  0  0  0
 32 33  1  0  0  0
 32 70  1  0  0  0
 33 34  2  0  0  0
 33 71  1  0  0  0
 34 35  1  0  0  0
 34 72  1  0  0  0
 35 73  1  0  0  0
 36 37  2  0  0  0
 36 38  1  0  0  0
 38 39  1  0  0  0
 39 74  1  0  0  0
 39 75  1  0  0  0
 39 76  1  0  0  0
 40 41  2  0  0  0
 40 77  1  0  0  0
 41 42  1  0  0  0
 41 78  1  0  0  0
 42 43  1  0  0  0
 43 79  1  0  0  0
 43 80  1  0  0  0
 43 81  1  0  0  0
M  END
> <i_i_glide_confnum>
5

> <i_i_glide_lignum>
5398

> <i_i_glide_posenum>
70

> <i_i_glide_rotatable_bonds>
10

> <i_m_Source_File_Index>
4101

> <b_m_subgroup_collapsed>
0

> <r_i_docking_score>
-3.69649

> <r_i_glide_ecoul>
-5.94008

> <r_i_glide_eff_state_penalty>
0

> <r_i_glide_einternal>
5.17787

> <r_i_glide_emodel>
-31.0897

> <r_i_glide_energy>
-24.7467

> <r_i_glide_erotb>
0.505366

> <r_i_glide_esite>
-0.0156257

> <r_i_glide_evdw>
-18.8066

> <r_i_glide_gscore>
-3.69649

> <r_i_glide_hbond>
-0.434575

> <r_i_glide_ligand_efficiency>
-0.0947819

> <r_i_glide_ligand_efficiency_ln>
-0.792633

> <r_i_glide_ligand_efficiency_sa>
-0.321425

> <r_i_glide_lipo>
-2.7784

> <r_i_glide_metal>
0

> <r_i_glide_rewards>
0.858088

> <s_i_glide_gridfile>
wee1_glide-grid

> <s_m_Source_File>
wee1_decoys_glide_SP.sdf

> <s_m_Source_Path>
/Users/zhangxujun/Desktop

> <s_m_entry_id>
4376

> <s_m_entry_name>
wee1_decoys_glide_SP.4101

> <s_m_subgroup_title>
wee1_decoys_glide_SP

> <s_m_subgroupid>
wee1_decoys_glide_SP


$$$$
