@<TRIPOS>MOLECULE
ZINC08893902_4213
64   67    1
SMALL
USER_CHARGES


@<TRIPOS>ATOM
      1 C1         -5.0890   44.7679   26.6726 C.3       1 UNK         0.0000 
      2 C2         -4.1902   45.6951   25.8761 C.ar      1 UNK         0.0000 
      3 C3         -2.9728   46.1079   26.4174 C.ar      1 UNK         0.0000 
      4 C4         -2.1435   46.9525   25.6852 C.ar      1 UNK         0.0000 
      5 C5         -2.5211   47.3760   24.4137 C.ar      1 UNK         0.0000 
      6 C6         -3.7362   46.9559   23.8662 C.ar      1 UNK         0.0000 
      7 C7         -4.5684   46.1115   24.5976 C.ar      1 UNK         0.0000 
      8 S8         -1.4561   48.4935   23.5086 S.o2      1 UNK         0.0000 
      9 O9         -1.7594   48.3212   22.0832 O.2       1 UNK         0.0000 
     10 O10        -0.0945   48.3037   24.0180 O.2       1 UNK         0.0000 
     11 N11        -1.9741   50.1215   23.9757 N.pl3     1 UNK         0.0000 
     12 C12        -3.3042   50.6230   23.5565 C.3       1 UNK         0.0000 
     13 C13        -4.0562   50.6722   24.8781 C.3       1 UNK         0.0000 
     14 C14        -3.0113   51.0883   25.9027 C.3       1 UNK         0.0000 
     15 C15        -1.6380   50.6497   25.3382 C.3       1 UNK         0.0000 
     16 H16        -1.1534   49.8921   25.9577 H         1 UNK         0.0000 
     17 C17        -0.6581   51.8437   25.1989 C.2       1 UNK         0.0000 
     18 O18        -0.9193   52.7527   24.4056 O.2       1 UNK         0.0000 
     19 N19         0.3924   51.8794   26.0551 N.am      1 UNK         0.0000 
     20 C20         1.4870   52.7578   25.9979 C.2       1 UNK         0.0000 
     21 C21         2.3370   53.1966   27.0526 C.2       1 UNK         0.0000 
     22 C22         3.5216   53.8130   26.5310 C.2       1 UNK         0.0000 
     23 C23         3.5125   53.8934   25.1280 C.2       1 UNK         0.0000 
     24 S24         2.0598   53.2919   24.4384 S.3       1 UNK         0.0000 
     25 C25         4.6787   54.3392   24.2552 C.3       1 UNK         0.0000 
     26 C26         5.6643   55.1648   25.1096 C.3       1 UNK         0.0000 
     27 H27         5.2088   56.1275   25.3369 H         1 UNK         0.0000 
     28 C28         5.9835   54.4036   26.4066 C.3       1 UNK         0.0000 
     29 C29         4.7503   54.3078   27.3237 C.3       1 UNK         0.0000 
     30 C30         6.9452   55.4587   24.3094 C.3       1 UNK         0.0000 
     31 C31         2.1100   52.9856   28.4877 C.2       1 UNK         0.0000 
     32 O32         3.0202   53.1404   29.3112 O.2       1 UNK         0.0000 
     33 N33         0.8465   52.6448   28.8274 N.am      1 UNK         0.0000 
     34 C34         0.3483   52.4968   30.0819 C.2       1 UNK         0.0000 
     35 O35         0.9021   52.8880   31.1111 O.2       1 UNK         0.0000 
     36 O36        -0.8943   51.8550   30.0817 O.3       1 UNK         0.0000 
     37 C37        -1.4793   51.2967   28.9041 C.3       1 UNK         0.0000 
     38 H38        -4.4960   44.0827   27.2825 H         1 UNK         0.0000 
     39 H39        -5.7389   45.3428   27.3326 H         1 UNK         0.0000 
     40 H40        -5.7075   44.1519   26.0189 H         1 UNK         0.0000 
     41 H41        -2.6750   45.8001   27.4106 H         1 UNK         0.0000 
     42 H42        -1.2194   47.2961   26.1298 H         1 UNK         0.0000 
     43 H43        -4.0364   47.2887   22.8828 H         1 UNK         0.0000 
     44 H44        -5.5120   45.7964   24.1757 H         1 UNK         0.0000 
     45 H45        -3.7463   50.0600   22.7347 H         1 UNK         0.0000 
     46 H46        -3.1874   51.6289   23.1488 H         1 UNK         0.0000 
     47 H47        -4.4548   49.6840   25.1197 H         1 UNK         0.0000 
     48 H48        -4.9062   51.3560   24.8429 H         1 UNK         0.0000 
     49 H49        -3.2192   50.5936   26.8526 H         1 UNK         0.0000 
     50 H50        -3.0814   52.1660   26.0729 H         1 UNK         0.0000 
     51 H51         0.4088   51.1849   26.7847 H         1 UNK         0.0000 
     52 H52         5.1854   53.4553   23.8634 H         1 UNK         0.0000 
     53 H53         4.3283   54.8966   23.3866 H         1 UNK         0.0000 
     54 H54         6.4044   53.4203   26.1819 H         1 UNK         0.0000 
     55 H55         6.7799   54.9165   26.9489 H         1 UNK         0.0000 
     56 H56         4.5433   55.2803   27.7763 H         1 UNK         0.0000 
     57 H57         5.0213   53.6390   28.1383 H         1 UNK         0.0000 
     58 H58         7.4921   54.5476   24.0641 H         1 UNK         0.0000 
     59 H59         6.7223   55.9777   23.3751 H         1 UNK         0.0000 
     60 H60         7.6194   56.0967   24.8782 H         1 UNK         0.0000 
     61 H61         0.2132   52.4478   28.0701 H         1 UNK         0.0000 
     62 H62        -2.4339   50.8407   29.1665 H         1 UNK         0.0000 
     63 H63        -0.8508   50.5051   28.4809 H         1 UNK         0.0000 
     64 H64        -1.6676   52.0629   28.1516 H         1 UNK         0.0000 
@<TRIPOS>BOND
     1    1    2 1    
     2    1   38 1    
     3    1   39 1    
     4    1   40 1    
     5    2    7 ar   
     6    2    3 ar   
     7    3    4 ar   
     8    3   41 1    
     9    4    5 ar   
    10    4   42 1    
    11    5    6 ar   
    12    5    8 1    
    13    6    7 ar   
    14    6   43 1    
    15    7   44 1    
    16    8    9 2    
    17    8   10 2    
    18    8   11 1    
    19   11   15 1    
    20   11   12 1    
    21   12   13 1    
    22   12   45 1    
    23   12   46 1    
    24   13   14 1    
    25   13   47 1    
    26   13   48 1    
    27   14   15 1    
    28   14   49 1    
    29   14   50 1    
    30   15   16 1    
    31   15   17 1    
    32   17   18 2    
    33   17   19 am   BACKBONE|DICT|INTERRES
    34   19   20 am   BACKBONE|DICT|INTERRES
    35   19   51 1    
    36   20   24 1    
    37   20   21 2    
    38   21   22 1    
    39   21   31 1    
    40   22   29 1    
    41   22   23 2    
    42   23   24 1    
    43   23   25 1    
    44   25   26 1    
    45   25   52 1    
    46   25   53 1    
    47   26   27 1    
    48   26   28 1    
    49   26   30 1    
    50   28   29 1    
    51   28   54 1    
    52   28   55 1    
    53   29   56 1    
    54   29   57 1    
    55   30   58 1    
    56   30   59 1    
    57   30   60 1    
    58   31   32 2    
    59   31   33 am   BACKBONE|DICT|INTERRES
    60   33   34 am   BACKBONE|DICT|INTERRES
    61   33   61 1    
    62   34   35 2    
    63   34   36 1    
    64   36   37 1    
    65   37   62 1    
    66   37   63 1    
    67   37   64 1    
@<TRIPOS>SUBSTRUCTURE
     1 UNK         1 GROUP             0       ****    0 ROOT    
