@<TRIPOS>MOLECULE
ZINC13340736_1993
44   46    1
SMALL
USER_CHARGES


@<TRIPOS>ATOM
      1 C1          6.5828   54.0967   27.3829 C.ar      1 UNK         0.0000 
      2 C2          6.4107   54.1102   26.0069 C.ar      1 UNK         0.0000 
      3 C3          5.1291   54.0975   25.4699 C.ar      1 UNK         0.0000 
      4 C4          3.9932   54.0570   26.2923 C.ar      1 UNK         0.0000 
      5 C5          4.1593   54.0899   27.7085 C.ar      1 UNK         0.0000 
      6 C6          5.4711   54.0949   28.2175 C.ar      1 UNK         0.0000 
      7 C7          3.0065   54.1510   28.6926 C.2       1 UNK         0.0000 
      8 O8          3.2680   54.0972   29.9209 O.co2     1 UNK         0.0000 
      9 N9          2.7049   54.0967   25.7261 N.pl3     1 UNK         0.0000 
     10 S10         2.1446   53.5552   24.1221 S.o2      1 UNK         0.0000 
     11 O11         1.1045   54.4966   23.7076 O.2       1 UNK         0.0000 
     12 O12         3.2854   53.2898   23.2418 O.2       1 UNK         0.0000 
     13 C13         1.2934   52.0206   24.4469 C.ar      1 UNK         0.0000 
     14 C14         1.5045   50.8916   23.6535 C.ar      1 UNK         0.0000 
     15 C15         0.8528   49.6960   23.9570 C.ar      1 UNK         0.0000 
     16 C16        -0.0182   49.6261   25.0454 C.ar      1 UNK         0.0000 
     17 C17        -0.2698   50.7674   25.8081 C.ar      1 UNK         0.0000 
     18 C18         0.3862   51.9624   25.5089 C.ar      1 UNK         0.0000 
     19 N19        -1.1575   50.7078   26.8823 N.pl3     1 UNK         0.0000 
     20 S20        -2.7639   51.4203   26.7408 S.o2      1 UNK         0.0000 
     21 O21        -3.3978   51.2967   28.0575 O.2       1 UNK         0.0000 
     22 O22        -2.6268   52.7231   26.0781 O.2       1 UNK         0.0000 
     23 C23        -3.6254   50.3113   25.6367 C.ar      1 UNK         0.0000 
     24 C24        -4.0467   49.0653   26.1106 C.ar      1 UNK         0.0000 
     25 C25        -4.6972   48.1773   25.2534 C.ar      1 UNK         0.0000 
     26 C26        -4.9184   48.5294   23.9205 C.ar      1 UNK         0.0000 
     27 C27        -4.4862   49.7673   23.4431 C.ar      1 UNK         0.0000 
     28 C28        -3.8384   50.6586   24.2987 C.ar      1 UNK         0.0000 
     29 F29        -4.6929   50.1011   22.1494 F         1 UNK         0.0000 
     30 H30         7.5732   54.1121   27.8113 H         1 UNK         0.0000 
     31 H31         7.2661   54.1377   25.3487 H         1 UNK         0.0000 
     32 H32         5.0550   54.1518   24.3984 H         1 UNK         0.0000 
     33 H33         5.6476   54.1226   29.2818 H         1 UNK         0.0000 
     34 H34         1.9791   54.3231   26.4009 H         1 UNK         0.0000 
     35 H35         2.1923   50.9314   22.8206 H         1 UNK         0.0000 
     36 H36         1.0436   48.8155   23.3622 H         1 UNK         0.0000 
     37 H37        -0.5039   48.6916   25.2903 H         1 UNK         0.0000 
     38 H38         0.2015   52.8383   26.1161 H         1 UNK         0.0000 
     39 H39        -1.1708   49.8536   27.4376 H         1 UNK         0.0000 
     40 H40        -3.8606   48.7848   27.1398 H         1 UNK         0.0000 
     41 H41        -5.0257   47.2169   25.6228 H         1 UNK         0.0000 
     42 H42        -5.4211   47.8437   23.2550 H         1 UNK         0.0000 
     43 H43        -3.5017   51.6121   23.9185 H         1 UNK         0.0000 
     44 O44         1.8411   54.2747   28.2461 O.co2     1 UNK         0.0000 
@<TRIPOS>BOND
     1    1    6 ar   
     2    1    2 ar   
     3    1   30 1    
     4    2    3 ar   
     5    2   31 1    
     6    3    4 ar   
     7    3   32 1    
     8    4    5 ar   
     9    4    9 1    
    10    5    6 ar   
    11    5    7 1    
    12    6   33 1    
    13    7    8 2    
    14    7   44 1    
    15    9   10 1    
    16    9   34 1    
    17   10   11 2    
    18   10   12 2    
    19   10   13 1    
    20   13   18 ar   
    21   13   14 ar   
    22   14   15 ar   
    23   14   35 1    
    24   15   16 ar   
    25   15   36 1    
    26   16   17 ar   
    27   16   37 1    
    28   17   18 ar   
    29   17   19 1    
    30   18   38 1    
    31   19   20 1    
    32   19   39 1    
    33   20   21 2    
    34   20   22 2    
    35   20   23 1    
    36   23   28 ar   
    37   23   24 ar   
    38   24   25 ar   
    39   24   40 1    
    40   25   26 ar   
    41   25   41 1    
    42   26   27 ar   
    43   26   42 1    
    44   27   28 ar   
    45   27   29 1    
    46   28   43 1    
@<TRIPOS>SUBSTRUCTURE
     1 UNK         1 GROUP             0       ****    0 ROOT    
