ZINC59438420_5220
                    3D
 Schrodinger Suite 2024-2.
 49 52  0  0  1  0            999 V2000
    0.9033   51.5428   24.9158 C   0  0  0  0  0  0
    0.9215   52.3143   26.2448 C   0  0  0  0  0  0
    1.9052   53.2974   26.5087 C   0  0  0  0  0  0
    1.8962   53.9534   27.7490 C   0  0  0  0  0  0
    0.9578   53.6379   28.7264 C   0  0  0  0  0  0
    0.0008   52.6633   28.4775 C   0  0  0  0  0  0
   -0.0337   52.0174   27.2409 C   0  0  0  0  0  0
   -1.0178   51.0350   27.0658 N   0  0  0  0  0  0
   -2.2080   51.1039   26.3986 C   0  0  0  0  0  0
   -2.7825   52.4960   25.6356 S   0  0  0  0  0  0
   -2.8508   49.8971   26.4805 N   0  0  0  0  0  0
   -3.9255   49.3897   25.8321 C   0  0  0  0  0  0
   -4.3388   49.7823   24.7378 O   0  0  0  0  0  0
   -4.5854   48.2185   26.5193 C   0  0  0  0  0  0
   -5.3271   47.2931   25.7741 C   0  0  0  0  0  0
   -5.9592   46.2213   26.4022 C   0  0  0  0  0  0
   -5.8848   46.0609   27.7949 C   0  0  0  0  0  0
   -5.1545   46.9961   28.5407 C   0  0  0  0  0  0
   -4.4992   48.0487   27.9098 C   0  0  0  0  0  0
   -5.0594   46.8972   30.4421 Br  0  0  0  0  0  0
   -6.4970   45.0297   28.4817 O   0  0  0  0  0  0
   -7.2643   44.0649   27.7673 C   0  0  0  0  0  0
    2.9701   53.7068   25.5310 C   0  0  0  0  0  0
    2.7810   53.7964   24.2414 N   0  0  0  0  0  0
    3.9286   54.0967   23.5818 C   0  0  0  0  0  0
    4.0508   54.1817   22.1869 C   0  0  0  0  0  0
    5.3002   54.4964   21.6506 C   0  0  0  0  0  0
    6.4036   54.7272   22.4737 C   0  0  0  0  0  0
    6.3079   54.6377   23.8613 C   0  0  0  0  0  0
    5.0610   54.3162   24.4097 C   0  0  0  0  0  0
    4.5926   54.0969   26.0870 S   0  0  0  0  0  0
    1.8956   51.4075   24.4833 H   0  0  0  0  0  0
    0.5151   50.5316   25.0383 H   0  0  0  0  0  0
    0.2812   52.0638   24.1876 H   0  0  0  0  0  0
    2.6204   54.7230   27.9695 H   0  0  0  0  0  0
    0.9734   54.1468   29.6790 H   0  0  0  0  0  0
   -0.7196   52.4151   29.2430 H   0  0  0  0  0  0
   -0.8454   50.1707   27.5661 H   0  0  0  0  0  0
   -2.5342   49.3153   27.2515 H   0  0  0  0  0  0
   -5.4222   47.3983   24.7015 H   0  0  0  0  0  0
   -6.5176   45.5321   25.7892 H   0  0  0  0  0  0
   -3.9440   48.7408   28.5307 H   0  0  0  0  0  0
   -7.6832   43.3473   28.4715 H   0  0  0  0  0  0
   -6.6485   43.5079   27.0594 H   0  0  0  0  0  0
   -8.0991   44.5240   27.2370 H   0  0  0  0  0  0
    3.1978   54.0184   21.5425 H   0  0  0  0  0  0
    5.4142   54.5701   20.5779 H   0  0  0  0  0  0
    7.3557   54.9720   22.0250 H   0  0  0  0  0  0
    7.1753   54.8052   24.4846 H   0  0  0  0  0  0
  1  2  1  0  0  0
  1 32  1  0  0  0
  1 33  1  0  0  0
  1 34  1  0  0  0
  2  7  2  0  0  0
  2  3  1  0  0  0
  3  4  2  0  0  0
  3 23  1  0  0  0
  4  5  1  0  0  0
  4 35  1  0  0  0
  5  6  2  0  0  0
  5 36  1  0  0  0
  6  7  1  0  0  0
  6 37  1  0  0  0
  7  8  1  0  0  0
  8  9  1  0  0  0
  8 38  1  0  0  0
  9 10  2  0  0  0
  9 11  1  0  0  0
 11 12  1  0  0  0
 11 39  1  0  0  0
 12 13  2  0  0  0
 12 14  1  0  0  0
 14 19  2  0  0  0
 14 15  1  0  0  0
 15 16  2  0  0  0
 15 40  1  0  0  0
 16 17  1  0  0  0
 16 41  1  0  0  0
 17 18  2  0  0  0
 17 21  1  0  0  0
 18 19  1  0  0  0
 18 20  1  0  0  0
 19 42  1  0  0  0
 21 22  1  0  0  0
 22 43  1  0  0  0
 22 44  1  0  0  0
 22 45  1  0  0  0
 23 31  1  0  0  0
 23 24  2  0  0  0
 24 25  1  0  0  0
 25 30  2  0  0  0
 25 26  1  0  0  0
 26 27  2  0  0  0
 26 46  1  0  0  0
 27 28  1  0  0  0
 27 47  1  0  0  0
 28 29  2  0  0  0
 28 48  1  0  0  0
 29 30  1  0  0  0
 29 49  1  0  0  0
 30 31  1  0  0  0
M  END
> <i_i_glide_confnum>
38

> <i_i_glide_lignum>
5221

> <i_i_glide_posenum>
361

> <i_i_glide_rotatable_bonds>
7

> <i_m_Source_File_Index>
851

> <b_m_subgroup_collapsed>
0

> <r_i_docking_score>
-5.95687

> <r_i_glide_ecoul>
-8.5421

> <r_i_glide_eff_state_penalty>
0

> <r_i_glide_einternal>
2.27028

> <r_i_glide_emodel>
-64.2965

> <r_i_glide_energy>
-46.9644

> <r_i_glide_erotb>
0.468387

> <r_i_glide_esite>
-0.270641

> <r_i_glide_evdw>
-38.4223

> <r_i_glide_gscore>
-5.95687

> <r_i_glide_hbond>
-0.418777

> <r_i_glide_ligand_efficiency>
-0.192157

> <r_i_glide_ligand_efficiency_ln>
-1.34346

> <r_i_glide_ligand_efficiency_sa>
-0.603638

> <r_i_glide_lipo>
-2.51708

> <r_i_glide_metal>
0

> <r_i_glide_rewards>
-0.0163251

> <s_i_glide_gridfile>
wee1_glide-grid

> <s_m_Source_File>
wee1_decoys_glide_SP.sdf

> <s_m_Source_Path>
/Users/zhangxujun/Desktop

> <s_m_entry_id>
1126

> <s_m_entry_name>
wee1_decoys_glide_SP.851

> <s_m_subgroup_title>
wee1_decoys_glide_SP

> <s_m_subgroupid>
wee1_decoys_glide_SP


$$$$
