@<TRIPOS>MOLECULE
ZINC50059520_227
45   47    1
SMALL
USER_CHARGES


@<TRIPOS>ATOM
      1 C1          6.1623   54.1498   27.5864 C.2       1 UNK         0.0000 
      2 C2          5.1086   54.4965   28.4337 C.2       1 UNK         0.0000 
      3 C3          3.8604   54.5389   27.8132 C.2       1 UNK         0.0000 
      4 S4          4.0257   54.1114   26.1309 S.3       1 UNK         0.0000 
      5 C5          5.7419   53.9504   26.2854 C.2       1 UNK         0.0000 
      6 C6          2.5373   54.9656   28.4000 C.3       1 UNK         0.0000 
      7 N7          1.8421   53.7265   29.0141 N.4       1 UNK         0.0000 
      8 C8          0.9868   54.1475   30.2259 C.3       1 UNK         0.0000 
      9 C9          0.4474   52.8672   30.8836 C.3       1 UNK         0.0000 
     10 C10        -0.4476   52.1002   29.8957 C.3       1 UNK         0.0000 
     11 C11         0.2492   51.7872   28.5478 C.3       1 UNK         0.0000 
     12 H12         1.0303   51.0535   28.7586 H         1 UNK         0.0000 
     13 C13         0.9320   53.0500   27.9650 C.3       1 UNK         0.0000 
     14 C14        -0.7682   51.2027   27.5364 C.3       1 UNK         0.0000 
     15 N15        -0.1605   50.4756   26.4191 N.am      1 UNK         0.0000 
     16 C16         0.2273   51.0229   25.2545 C.2       1 UNK         0.0000 
     17 O17         0.1586   52.2312   25.0238 O.2       1 UNK         0.0000 
     18 N18         0.7049   50.0905   24.4072 N.am      1 UNK         0.0000 
     19 C19         1.3186   50.3019   23.1785 C.2       1 UNK         0.0000 
     20 N20         1.6461   49.2965   22.4086 N.2       1 UNK         0.0000 
     21 N21         2.3041   49.6947   21.2531 N.2       1 UNK         0.0000 
     22 C22         2.4707   50.9931   21.1656 C.2       1 UNK         0.0000 
     23 S23         1.8071   51.8536   22.5288 S.3       1 UNK         0.0000 
     24 C24         3.1705   51.6560   20.0029 C.3       1 UNK         0.0000 
     25 F25         4.2513   52.3264   20.4044 F         1 UNK         0.0000 
     26 F26         2.3613   52.4973   19.3626 F         1 UNK         0.0000 
     27 H27         7.1901   54.0799   27.9109 H         1 UNK         0.0000 
     28 H28         5.2538   54.7430   29.4753 H         1 UNK         0.0000 
     29 H29         6.3415   53.6978   25.4239 H         1 UNK         0.0000 
     30 H30         1.8482   55.4228   27.6878 H         1 UNK         0.0000 
     31 H31         2.6978   55.6809   29.2090 H         1 UNK         0.0000 
     32 H32         0.2002   54.8169   29.8764 H         1 UNK         0.0000 
     33 H33         1.6433   54.7017   30.8826 H         1 UNK         0.0000 
     34 H34        -0.1162   53.1166   31.7844 H         1 UNK         0.0000 
     35 H35         1.2690   52.2313   31.2154 H         1 UNK         0.0000 
     36 H36        -1.2957   52.7429   29.6813 H         1 UNK         0.0000 
     37 H37        -0.8917   51.2077   30.3435 H         1 UNK         0.0000 
     38 H38         1.5669   52.8029   27.1138 H         1 UNK         0.0000 
     39 H39         0.1914   53.7958   27.6818 H         1 UNK         0.0000 
     40 H40        -1.4302   51.9861   27.1597 H         1 UNK         0.0000 
     41 H41        -1.4280   50.5018   28.0443 H         1 UNK         0.0000 
     42 H42        -0.1450   49.4698   26.5233 H         1 UNK         0.0000 
     43 H43         0.6452   49.1252   24.6958 H         1 UNK         0.0000 
     44 H44         3.5047   50.9351   19.2567 H         1 UNK         0.0000 
     45 H45         2.5666   53.0893   29.3160 H         1 UNK         0.0000 
@<TRIPOS>BOND
     1    1    5 2    
     2    1    2 1    
     3    1   27 1    
     4    2    3 2    
     5    2   28 1    
     6    3    4 1    
     7    3    6 1    
     8    4    5 1    
     9    5   29 1    
    10    6    7 1    
    11    6   30 1    
    12    6   31 1    
    13    7   13 1    
    14    7    8 1    
    15    7   45 1    
    16    8    9 1    
    17    8   32 1    
    18    8   33 1    
    19    9   10 1    
    20    9   34 1    
    21    9   35 1    
    22   10   11 1    
    23   10   36 1    
    24   10   37 1    
    25   11   12 1    
    26   11   13 1    
    27   11   14 1    
    28   13   38 1    
    29   13   39 1    
    30   14   15 1    
    31   14   40 1    
    32   14   41 1    
    33   15   16 am   BACKBONE|DICT|INTERRES
    34   15   42 1    
    35   16   17 2    
    36   16   18 am   BACKBONE|DICT|INTERRES
    37   18   19 am   BACKBONE|DICT|INTERRES
    38   18   43 1    
    39   19   23 1    
    40   19   20 2    
    41   20   21 1    
    42   21   22 2    
    43   22   23 1    
    44   22   24 1    
    45   24   25 1    
    46   24   26 1    
    47   24   44 1    
@<TRIPOS>SUBSTRUCTURE
     1 UNK         1 GROUP             0       ****    0 ROOT    
