@<TRIPOS>MOLECULE
ZINC09886393_312
65   67    1
SMALL
USER_CHARGES


@<TRIPOS>ATOM
      1 C1          3.4412   51.2773   20.2860 C.3       1 UNK         0.0000 
      2 C2          3.0673   52.5970   19.5693 C.3       1 UNK         0.0000 
      3 C3          2.7810   52.3467   18.0758 C.3       1 UNK         0.0000 
      4 C4          4.0670   53.7884   19.7946 C.3       1 UNK         0.0000 
      5 H5          3.6029   54.7058   19.4277 H         1 UNK         0.0000 
      6 C6          4.3417   54.0024   21.3138 C.2       1 UNK         0.0000 
      7 O7          5.5041   54.0398   21.7381 O.2       1 UNK         0.0000 
      8 N8          3.2576   54.0883   22.1080 N.am      1 UNK         0.0000 
      9 N9          3.3787   53.9900   23.4406 N.2       1 UNK         0.0000 
     10 C10         2.2901   53.7883   24.0607 C.2       1 UNK         0.0000 
     11 C11         2.2698   53.5235   25.5136 C.ar      1 UNK         0.0000 
     12 C12         3.2916   54.0858   26.2977 C.ar      1 UNK         0.0000 
     13 C13         3.3537   53.9006   27.6796 C.ar      1 UNK         0.0000 
     14 C14         2.3446   53.1568   28.2976 C.ar      1 UNK         0.0000 
     15 C15         1.3241   52.5894   27.5431 C.ar      1 UNK         0.0000 
     16 C16         1.2679   52.7424   26.1491 C.ar      1 UNK         0.0000 
     17 N17         0.2577   52.0786   25.4420 N.pl3     1 UNK         0.0000 
     18 C18        -1.0968   51.8737   25.9919 C.3       1 UNK         0.0000 
     19 C19        -1.3793   50.4297   26.4687 C.3       1 UNK         0.0000 
     20 C20         0.3210   49.6027   24.8382 C.3       1 UNK         0.0000 
     21 C21         0.5839   51.0695   24.4114 C.3       1 UNK         0.0000 
     22 C22        -1.5165   48.0317   25.6474 C.3       1 UNK         0.0000 
     23 N23         4.4716   54.4712   28.4628 N.pl3     1 UNK         0.0000 
     24 O24         4.3614   54.4971   29.6821 O.co2     1 UNK         0.0000 
     25 O25         5.4567   54.8936   27.8629 O.co2     1 UNK         0.0000 
     26 N26         5.3034   53.6031   19.0173 N.am      1 UNK         0.0000 
     27 C27         6.2059   54.5651   18.7480 C.2       1 UNK         0.0000 
     28 O28         6.0527   55.7422   19.0834 O.2       1 UNK         0.0000 
     29 C29         7.4780   54.1159   18.0683 C.ar      1 UNK         0.0000 
     30 C30         8.6523   54.8611   18.2530 C.ar      1 UNK         0.0000 
     31 C31         9.8483   54.4463   17.6748 C.ar      1 UNK         0.0000 
     32 C32         9.8790   53.2896   16.9010 C.ar      1 UNK         0.0000 
     33 C33         8.7184   52.5462   16.6973 C.ar      1 UNK         0.0000 
     34 C34         7.5205   52.9557   17.2777 C.ar      1 UNK         0.0000 
     35 Cl35       11.3662   52.7713   16.1975 Cl        1 UNK         0.0000 
     36 H36         4.4723   50.9953   20.0818 H         1 UNK         0.0000 
     37 H37         3.3366   51.3533   21.3682 H         1 UNK         0.0000 
     38 H38         2.8034   50.4539   19.9638 H         1 UNK         0.0000 
     39 H39         2.0983   52.8950   19.9742 H         1 UNK         0.0000 
     40 H40         3.6799   52.0580   17.5320 H         1 UNK         0.0000 
     41 H41         2.0484   51.5510   17.9374 H         1 UNK         0.0000 
     42 H42         2.3841   53.2440   17.6001 H         1 UNK         0.0000 
     43 H43         2.3193   54.0576   21.7366 H         1 UNK         0.0000 
     44 H44         1.3174   53.7741   23.5687 H         1 UNK         0.0000 
     45 H45         4.0660   54.6751   25.8254 H         1 UNK         0.0000 
     46 H46         2.3571   52.9934   29.3660 H         1 UNK         0.0000 
     47 H47         0.5861   51.9949   28.0618 H         1 UNK         0.0000 
     48 H48        -1.2957   52.5762   26.8036 H         1 UNK         0.0000 
     49 H49        -1.7888   52.1342   25.1876 H         1 UNK         0.0000 
     50 H50        -2.4239   50.3144   26.7660 H         1 UNK         0.0000 
     51 H51        -0.7300   50.1011   27.2816 H         1 UNK         0.0000 
     52 H52         0.4459   48.9329   23.9854 H         1 UNK         0.0000 
     53 H53         0.9504   49.2689   25.6679 H         1 UNK         0.0000 
     54 H54        -0.0367   51.3176   23.5471 H         1 UNK         0.0000 
     55 H55         1.6236   51.1495   24.0928 H         1 UNK         0.0000 
     56 H56        -0.8956   47.6969   26.4768 H         1 UNK         0.0000 
     57 H57        -2.5692   48.0216   25.9383 H         1 UNK         0.0000 
     58 H58        -1.3550   47.4133   24.7620 H         1 UNK         0.0000 
     59 H59         5.4923   52.6535   18.7235 H         1 UNK         0.0000 
     60 H60         8.6486   55.7560   18.8599 H         1 UNK         0.0000 
     61 H61        10.7494   55.0178   17.8394 H         1 UNK         0.0000 
     62 H62         8.7467   51.6498   16.0962 H         1 UNK         0.0000 
     63 H63         6.6364   52.3549   17.1078 H         1 UNK         0.0000 
     64 N64        -1.1514   49.4859   25.2735 N.4       1 UNK         0.0000 
     65 H65        -1.7496   49.7767   24.5118 H         1 UNK         0.0000 
@<TRIPOS>BOND
     1    1    2 1    
     2    1   36 1    
     3    1   37 1    
     4    1   38 1    
     5    2    3 1    
     6    2    4 1    
     7    2   39 1    
     8    3   40 1    
     9    3   41 1    
    10    3   42 1    
    11    4    5 1    
    12    4    6 1    
    13    4   26 1    
    14    6    7 2    
    15    6    8 am   BACKBONE|DICT|INTERRES
    16    8    9 1    
    17    8   43 1    
    18    9   10 2    
    19   10   11 1    
    20   10   44 1    
    21   11   16 ar   
    22   11   12 ar   
    23   12   13 ar   
    24   12   45 1    
    25   13   14 ar   
    26   13   23 1    
    27   14   15 ar   
    28   14   46 1    
    29   15   16 ar   
    30   15   47 1    
    31   16   17 1    
    32   17   21 1    
    33   17   18 1    
    34   18   19 1    
    35   18   48 1    
    36   18   49 1    
    37   19   50 1    
    38   19   51 1    
    39   19   64 1    
    40   20   21 1    
    41   20   52 1    
    42   20   53 1    
    43   20   64 1    
    44   21   54 1    
    45   21   55 1    
    46   22   56 1    
    47   22   57 1    
    48   22   58 1    
    49   22   64 1    
    50   23   24 2    
    51   23   25 1    
    52   26   27 am   BACKBONE|DICT|INTERRES
    53   26   59 1    
    54   27   28 2    
    55   27   29 1    
    56   29   34 ar   
    57   29   30 ar   
    58   30   31 ar   
    59   30   60 1    
    60   31   32 ar   
    61   31   61 1    
    62   32   33 ar   
    63   32   35 1    
    64   33   34 ar   
    65   33   62 1    
    66   34   63 1    
    67   64   65 1    
@<TRIPOS>SUBSTRUCTURE
     1 UNK         1 GROUP             0       ****    0 ROOT    
