@<TRIPOS>MOLECULE
ZINC39599963_3058
73   76    1
SMALL
USER_CHARGES


@<TRIPOS>ATOM
      1 C1          3.9723   52.2794   29.5569 C.3       1 UNK         0.0000 
      2 C2          4.3178   53.5658   28.7682 C.3       1 UNK         0.0000 
      3 C3          5.8244   53.6043   28.4495 C.3       1 UNK         0.0000 
      4 C4          3.4209   53.7215   27.4911 C.3       1 UNK         0.0000 
      5 H5          3.5954   52.8324   26.8877 H         1 UNK         0.0000 
      6 C6          1.9059   53.7998   27.8731 C.2       1 UNK         0.0000 
      7 O7          1.5561   54.5450   28.7928 O.2       1 UNK         0.0000 
      8 N8          1.0145   52.9839   27.2595 N.am      1 UNK         0.0000 
      9 C9          1.2673   52.3337   25.9965 C.3       1 UNK         0.0000 
     10 C10        -0.0828   52.3337   25.2631 C.3       1 UNK         0.0000 
     11 H11        -0.2883   53.3193   24.8365 H         1 UNK         0.0000 
     12 C12        -1.0589   52.0491   26.4589 C.3       1 UNK         0.0000 
     13 C13        -0.3939   52.8397   27.6377 C.3       1 UNK         0.0000 
     14 C14        -1.1311   50.5547   26.9167 C.3       1 UNK         0.0000 
     15 C15        -1.9741   49.6102   26.0229 C.3       1 UNK         0.0000 
     16 N16        -3.3726   50.2051   25.8096 N.4       1 UNK         0.0000 
     17 C17        -3.3479   51.6574   25.2922 C.3       1 UNK         0.0000 
     18 C18        -2.5370   52.4968   26.2948 C.3       1 UNK         0.0000 
     19 C19         0.0579   51.2848   24.1202 C.2       1 UNK         0.0000 
     20 O20         0.8578   50.3473   24.1955 O.2       1 UNK         0.0000 
     21 N21        -0.6424   51.5287   22.9968 N.am      1 UNK         0.0000 
     22 C22        -0.6207   50.6490   21.8262 C.3       1 UNK         0.0000 
     23 C23        -1.0303   51.3511   20.5382 C.ar      1 UNK         0.0000 
     24 C24        -2.3678   51.3497   20.1379 C.ar      1 UNK         0.0000 
     25 C25        -2.7310   51.9301   18.9223 C.ar      1 UNK         0.0000 
     26 C26        -1.7645   52.5082   18.1028 C.ar      1 UNK         0.0000 
     27 C27        -0.4186   52.4768   18.4890 C.ar      1 UNK         0.0000 
     28 C28        -0.0553   51.8973   19.7015 C.ar      1 UNK         0.0000 
     29 O29        -2.1835   53.0612   16.9149 O.3       1 UNK         0.0000 
     30 C30        -1.8067   54.4142   16.6488 C.3       1 UNK         0.0000 
     31 F31        -2.5353   54.8286   15.6138 F         1 UNK         0.0000 
     32 F32        -2.0820   55.2228   17.6790 F         1 UNK         0.0000 
     33 F33        -0.5191   54.5149   16.3105 F         1 UNK         0.0000 
     34 O34         3.7503   54.9022   26.7379 O.3       1 UNK         0.0000 
     35 C35         4.5540   54.7647   25.6200 C.ar      1 UNK         0.0000 
     36 C36         4.0558   54.2478   24.4195 C.ar      1 UNK         0.0000 
     37 C37         4.8900   54.0971   23.3138 C.ar      1 UNK         0.0000 
     38 C38         6.2176   54.5085   23.3904 C.ar      1 UNK         0.0000 
     39 C39         6.7033   55.0966   24.5514 C.ar      1 UNK         0.0000 
     40 C40         5.8704   55.2294   25.6569 C.ar      1 UNK         0.0000 
     41 H41         4.0286   51.4099   28.9075 H         1 UNK         0.0000 
     42 H42         4.6367   52.1162   30.4036 H         1 UNK         0.0000 
     43 H43         2.9624   52.3122   29.9626 H         1 UNK         0.0000 
     44 H44         4.1265   54.4118   29.4348 H         1 UNK         0.0000 
     45 H45         6.0843   52.9792   27.5981 H         1 UNK         0.0000 
     46 H46         6.1426   54.6254   28.2590 H         1 UNK         0.0000 
     47 H47         6.4458   53.2971   29.2793 H         1 UNK         0.0000 
     48 H48         2.0707   52.7114   25.3833 H         1 UNK         0.0000 
     49 H49         1.4954   51.3193   26.2949 H         1 UNK         0.0000 
     50 H50        -0.5758   52.3800   28.6114 H         1 UNK         0.0000 
     51 H51        -0.8272   53.8376   27.6817 H         1 UNK         0.0000 
     52 H52        -0.1394   50.1298   27.0745 H         1 UNK         0.0000 
     53 H53        -1.5797   50.4942   27.9100 H         1 UNK         0.0000 
     54 H54        -1.5604   49.4281   25.0356 H         1 UNK         0.0000 
     55 H55        -2.1319   48.6354   26.4790 H         1 UNK         0.0000 
     56 H56        -3.9080   49.6091   25.1935 H         1 UNK         0.0000 
     57 H57        -2.9358   51.6372   24.2874 H         1 UNK         0.0000 
     58 H58        -4.3925   51.9756   25.2405 H         1 UNK         0.0000 
     59 H59        -3.0482   52.4141   27.2513 H         1 UNK         0.0000 
     60 H60        -2.5996   53.5527   26.0286 H         1 UNK         0.0000 
     61 H61        -1.2749   52.3107   22.9686 H         1 UNK         0.0000 
     62 H62         0.3588   50.1836   21.6905 H         1 UNK         0.0000 
     63 H63        -1.3008   49.8136   22.0141 H         1 UNK         0.0000 
     64 H64        -3.1238   50.8954   20.7597 H         1 UNK         0.0000 
     65 H65        -3.7666   51.9245   18.6144 H         1 UNK         0.0000 
     66 H66         0.3470   52.8944   17.8519 H         1 UNK         0.0000 
     67 H67         0.9860   51.8781   19.9895 H         1 UNK         0.0000 
     68 H68         3.0183   53.9932   24.3090 H         1 UNK         0.0000 
     69 H69         4.5027   53.6892   22.3893 H         1 UNK         0.0000 
     70 H70         6.8630   54.4139   22.5307 H         1 UNK         0.0000 
     71 H71         7.7124   55.4681   24.5991 H         1 UNK         0.0000 
     72 H72         6.2580   55.7084   26.5378 H         1 UNK         0.0000 
     73 H73        -3.8472   50.1819   26.7038 H         1 UNK         0.0000 
@<TRIPOS>BOND
     1    1    2 1    
     2    1   41 1    
     3    1   42 1    
     4    1   43 1    
     5    2    3 1    
     6    2    4 1    
     7    2   44 1    
     8    3   45 1    
     9    3   46 1    
    10    3   47 1    
    11    4    5 1    
    12    4    6 1    
    13    4   34 1    
    14    6    7 2    
    15    6    8 am   BACKBONE|DICT|INTERRES
    16    8   13 1    
    17    8    9 1    
    18    9   10 1    
    19    9   48 1    
    20    9   49 1    
    21   10   11 1    
    22   10   12 1    
    23   10   19 1    
    24   12   18 1    
    25   12   13 1    
    26   12   14 1    
    27   13   50 1    
    28   13   51 1    
    29   14   15 1    
    30   14   52 1    
    31   14   53 1    
    32   15   16 1    
    33   15   54 1    
    34   15   55 1    
    35   16   17 1    
    36   16   56 1    
    37   16   73 1    
    38   17   18 1    
    39   17   57 1    
    40   17   58 1    
    41   18   59 1    
    42   18   60 1    
    43   19   20 2    
    44   19   21 am   BACKBONE|DICT|INTERRES
    45   21   22 1    
    46   21   61 1    
    47   22   23 1    
    48   22   62 1    
    49   22   63 1    
    50   23   28 ar   
    51   23   24 ar   
    52   24   25 ar   
    53   24   64 1    
    54   25   26 ar   
    55   25   65 1    
    56   26   27 ar   
    57   26   29 1    
    58   27   28 ar   
    59   27   66 1    
    60   28   67 1    
    61   29   30 1    
    62   30   31 1    
    63   30   32 1    
    64   30   33 1    
    65   34   35 1    
    66   35   40 ar   
    67   35   36 ar   
    68   36   37 ar   
    69   36   68 1    
    70   37   38 ar   
    71   37   69 1    
    72   38   39 ar   
    73   38   70 1    
    74   39   40 ar   
    75   39   71 1    
    76   40   72 1    
@<TRIPOS>SUBSTRUCTURE
     1 UNK         1 GROUP             0       ****    0 ROOT    
