ZINC13551248_1381
                    3D
 Schrodinger Suite 2024-2.
 37 40  0  0  1  0            999 V2000
    4.7898   53.8249   22.1637 C   0  0  0  0  0  0
    4.7275   54.0965   20.7906 C   0  0  0  0  0  0
    5.6709   54.9719   20.2664 C   0  0  0  0  0  0
    6.6297   55.5508   21.0472 C   0  0  0  0  0  0
    6.7185   55.2966   22.4112 C   0  0  0  0  0  0
    5.7668   54.4268   22.9831 C   0  0  0  0  0  0
    5.7161   54.0966   24.3476 N   0  0  0  0  0  0
    6.3038   54.6976   25.4017 C   0  0  0  0  0  0
    7.0140   55.6966   25.3353 O   0  0  0  0  0  0
    6.0543   54.0578   26.7719 C   0  0  0  0  0  0
    4.5793   53.7366   27.0923 C   0  0  0  0  0  0
    4.3050   53.3226   28.8380 S   0  0  0  0  0  0
    2.5799   53.1377   29.2098 C   0  0  0  0  0  0
    1.6721   52.7908   28.2007 C   0  0  0  0  0  0
    0.3018   52.6535   28.5600 C   0  0  0  0  0  0
   -0.4665   52.3014   27.4825 N   0  0  0  0  0  0
    2.4651   52.4630   26.2137 H   0  0  0  0  0  0
    0.3908   52.2015   26.4980 C   0  0  0  0  0  0
    1.6862   52.4983   26.8544 N   0  0  0  0  0  0
   -0.1347   52.8624   29.8083 N   0  0  0  0  0  0
    0.8214   53.1820   30.7211 C   0  0  0  0  0  0
    2.1519   53.2968   30.4816 N   0  0  0  0  0  0
    0.3044   53.5381   32.3253 Cl  0  0  0  0  0  0
    7.3825   56.3881   20.2873 O   0  0  0  0  0  0
    7.0032   56.1358   18.9597 C   0  0  0  0  0  0
    5.7940   55.4248   18.9924 O   0  0  0  0  0  0
    4.0579   53.1539   22.5876 H   0  0  0  0  0  0
    3.9637   53.6489   20.1703 H   0  0  0  0  0  0
    7.5040   55.7600   22.9908 H   0  0  0  0  0  0
    5.1367   53.3007   24.5607 H   0  0  0  0  0  0
    6.7037   53.2019   26.9628 H   0  0  0  0  0  0
    6.3967   54.7701   27.5266 H   0  0  0  0  0  0
    3.9355   54.5821   26.8369 H   0  0  0  0  0  0
    4.2593   52.8968   26.4825 H   0  0  0  0  0  0
    0.1589   51.9203   25.4796 H   0  0  0  0  0  0
    6.8834   57.0695   18.4061 H   0  0  0  0  0  0
    7.7682   55.5213   18.4781 H   0  0  0  0  0  0
  1  6  2  0  0  0
  1  2  1  0  0  0
  1 27  1  0  0  0
  2  3  2  0  0  0
  2 28  1  0  0  0
  3 26  1  0  0  0
  3  4  1  0  0  0
  4  5  2  0  0  0
  4 24  1  0  0  0
  5  6  1  0  0  0
  5 29  1  0  0  0
  6  7  1  0  0  0
  7  8  1  0  0  0
  7 30  1  0  0  0
  8  9  2  0  0  0
  8 10  1  0  0  0
 10 11  1  0  0  0
 10 31  1  0  0  0
 10 32  1  0  0  0
 11 12  1  0  0  0
 11 33  1  0  0  0
 11 34  1  0  0  0
 12 13  1  0  0  0
 13 22  2  0  0  0
 13 14  1  0  0  0
 14 15  2  0  0  0
 14 19  1  0  0  0
 15 16  1  0  0  0
 15 20  1  0  0  0
 16 18  2  0  0  0
 17 19  1  0  0  0
 18 35  1  0  0  0
 18 19  1  0  0  0
 20 21  2  0  0  0
 21 23  1  0  0  0
 21 22  1  0  0  0
 24 25  1  0  0  0
 25 26  1  0  0  0
 25 36  1  0  0  0
 25 37  1  0  0  0
M  END
> <i_i_glide_confnum>
29

> <i_i_glide_lignum>
1382

> <i_i_glide_posenum>
314

> <i_i_glide_rotatable_bonds>
6

> <i_m_Source_File_Index>
589

> <b_m_subgroup_collapsed>
0

> <r_i_docking_score>
-7.17917

> <r_i_glide_ecoul>
-7.69263

> <r_i_glide_eff_state_penalty>
0

> <r_i_glide_einternal>
6.97097

> <r_i_glide_emodel>
-69.132

> <r_i_glide_energy>
-50.8104

> <r_i_glide_erotb>
0.542882

> <r_i_glide_esite>
-0.00779949

> <r_i_glide_evdw>
-43.1177

> <r_i_glide_gscore>
-7.17917

> <r_i_glide_hbond>
-0.732573

> <r_i_glide_ligand_efficiency>
-0.287167

> <r_i_glide_ligand_efficiency_ln>
-1.70168

> <r_i_glide_ligand_efficiency_sa>
-0.839681

> <r_i_glide_lipo>
-2.11655

> <r_i_glide_metal>
0

> <r_i_glide_rewards>
-1.55535

> <s_i_glide_gridfile>
wee1_glide-grid

> <s_m_Source_File>
wee1_decoys_glide_SP.sdf

> <s_m_Source_Path>
/Users/zhangxujun/Desktop

> <s_m_entry_id>
864

> <s_m_entry_name>
wee1_decoys_glide_SP.589

> <s_m_subgroup_title>
wee1_decoys_glide_SP

> <s_m_subgroupid>
wee1_decoys_glide_SP


$$$$
