ZINC04553445_3952
                    3D
 Schrodinger Suite 2024-2.
 55 58  0  0  1  0            999 V2000
    1.7394   56.2428   29.4611 C   0  0  0  0  0  0
    2.5337   54.9211   29.4882 C   0  0  0  0  0  0
    1.7637   53.6170   29.0983 C   0  0  0  0  0  0
    2.6236   52.3992   29.5366 C   0  0  0  0  0  0
    0.4522   53.5406   29.9291 C   0  0  0  0  0  0
    1.4648   53.5828   27.5414 C   0  0  1  0  0  0
    1.1063   54.5775   27.2817 H   0  0  0  0  0  0
    2.7332   53.3170   26.6816 C   0  0  0  0  0  0
    2.5293   53.5224   25.1651 C   0  0  0  0  0  0
    1.2363   52.8467   24.7140 C   0  0  0  0  0  0
    0.2507   52.4500   25.6325 C   0  0  0  0  0  0
   -1.1400   51.7624   24.8500 S   0  0  0  0  0  0
   -0.3789   51.9206   23.3074 C   0  0  0  0  0  0
    0.9003   52.4710   23.3935 C   0  0  0  0  0  0
    1.6201   52.5774   22.1341 C   0  0  0  0  0  0
    1.2520   52.0961   21.0256 N   0  0  0  0  0  0
   -0.0339   51.3745   20.9590 C   0  0  2  0  0  0
   -0.5797   51.8376   20.1334 H   0  0  0  0  0  0
   -0.9645   51.5315   22.1123 N   0  0  0  0  0  0
    0.1343   49.9127   20.4416 C   0  0  0  0  0  0
   -0.7339   48.9128   20.9266 C   0  0  0  0  0  0
   -0.6560   47.5973   20.4818 C   0  0  0  0  0  0
    0.3172   47.2324   19.5603 C   0  0  0  0  0  0
    1.1996   48.1887   19.0593 C   0  0  0  0  0  0
    1.0891   49.5311   19.4634 C   0  0  0  0  0  0
    1.9141   50.4483   18.8559 O   0  0  0  0  0  0
    2.2762   47.7391   18.0811 C   0  0  0  0  0  0
    2.7728   53.2972   22.0218 O   0  0  0  0  0  0
    0.3688   52.5445   27.1496 C   0  0  0  0  0  0
    2.3894   57.0788   29.7124 H   0  0  0  0  0  0
    0.9277   56.2493   30.1886 H   0  0  0  0  0  0
    1.3142   56.4525   28.4816 H   0  0  0  0  0  0
    3.4059   55.0469   28.8481 H   0  0  0  0  0  0
    2.9540   54.8075   30.4815 H   0  0  0  0  0  0
    2.1819   51.4544   29.2196 H   0  0  0  0  0  0
    3.6347   52.4430   29.1327 H   0  0  0  0  0  0
    2.7252   52.3528   30.6218 H   0  0  0  0  0  0
   -0.0270   52.5619   29.8516 H   0  0  0  0  0  0
    0.6377   53.7096   30.9919 H   0  0  0  0  0  0
   -0.2802   54.2826   29.6058 H   0  0  0  0  0  0
    3.5460   53.9739   26.9846 H   0  0  0  0  0  0
    3.1042   52.3214   26.8942 H   0  0  0  0  0  0
    2.4911   54.5836   24.9246 H   0  0  0  0  0  0
    3.3904   53.1311   24.6271 H   0  0  0  0  0  0
   -1.7203   50.8636   22.1026 H   0  0  0  0  0  0
   -1.5002   49.1347   21.6534 H   0  0  0  0  0  0
   -1.3383   46.8552   20.8712 H   0  0  0  0  0  0
    0.3842   46.1999   19.2410 H   0  0  0  0  0  0
    2.5915   50.0490   18.2953 H   0  0  0  0  0  0
    2.2505   46.6667   17.8858 H   0  0  0  0  0  0
    2.1645   48.2587   17.1306 H   0  0  0  0  0  0
    3.2607   47.9868   18.4819 H   0  0  0  0  0  0
    2.6947   53.8306   21.2273 H   0  0  0  0  0  0
    0.6218   51.5602   27.5448 H   0  0  0  0  0  0
   -0.5952   52.8195   27.5732 H   0  0  0  0  0  0
  1  2  1  0  0  0
  1 30  1  0  0  0
  1 31  1  0  0  0
  1 32  1  0  0  0
  2  3  1  0  0  0
  2 33  1  0  0  0
  2 34  1  0  0  0
  3  4  1  0  0  0
  3  5  1  0  0  0
  3  6  1  0  0  0
  4 35  1  0  0  0
  4 36  1  0  0  0
  4 37  1  0  0  0
  5 38  1  0  0  0
  5 39  1  0  0  0
  5 40  1  0  0  0
  6  7  1  0  0  0
  6 29  1  0  0  0
  6  8  1  0  0  0
  8  9  1  0  0  0
  8 41  1  0  0  0
  8 42  1  0  0  0
  9 10  1  0  0  0
  9 43  1  0  0  0
  9 44  1  0  0  0
 10 14  1  0  0  0
 10 11  2  0  0  0
 11 12  1  0  0  0
 11 29  1  0  0  0
 12 13  1  0  0  0
 13 19  1  0  0  0
 13 14  2  0  0  0
 14 15  1  0  0  0
 15 16  2  0  0  0
 15 28  1  0  0  0
 16 17  1  0  0  0
 17 18  1  0  0  0
 17 19  1  0  0  0
 17 20  1  0  0  0
 19 45  1  0  0  0
 20 25  2  0  0  0
 20 21  1  0  0  0
 21 22  2  0  0  0
 21 46  1  0  0  0
 22 23  1  0  0  0
 22 47  1  0  0  0
 23 24  2  0  0  0
 23 48  1  0  0  0
 24 25  1  0  0  0
 24 27  1  0  0  0
 25 26  1  0  0  0
 26 49  1  0  0  0
 27 50  1  0  0  0
 27 51  1  0  0  0
 27 52  1  0  0  0
 28 53  1  0  0  0
 29 54  1  0  0  0
 29 55  1  0  0  0
M  END
> <i_i_glide_confnum>
2

> <i_i_glide_lignum>
3953

> <i_i_glide_posenum>
353

> <i_i_glide_rotatable_bonds>
5

> <i_m_Source_File_Index>
4276

> <b_m_subgroup_collapsed>
0

> <r_i_docking_score>
-4.66225

> <r_i_glide_ecoul>
-2.65189

> <r_i_glide_eff_state_penalty>
0

> <r_i_glide_einternal>
10.8541

> <r_i_glide_emodel>
-38.1863

> <r_i_glide_energy>
-33.806

> <r_i_glide_erotb>
0.262986

> <r_i_glide_esite>
-0.00561305

> <r_i_glide_evdw>
-31.1541

> <r_i_glide_gscore>
-4.66225

> <r_i_glide_hbond>
-0.154269

> <r_i_glide_ligand_efficiency>
-0.172676

> <r_i_glide_ligand_efficiency_ln>
-1.0853

> <r_i_glide_ligand_efficiency_sa>
-0.518028

> <r_i_glide_lipo>
-1.92092

> <r_i_glide_metal>
0

> <r_i_glide_rewards>
-0.888956

> <s_i_glide_gridfile>
wee1_glide-grid

> <s_m_Source_File>
wee1_decoys_glide_SP.sdf

> <s_m_Source_Path>
/Users/zhangxujun/Desktop

> <s_m_entry_id>
4551

> <s_m_entry_name>
wee1_decoys_glide_SP.4276

> <s_m_subgroup_title>
wee1_decoys_glide_SP

> <s_m_subgroupid>
wee1_decoys_glide_SP


$$$$
