@<TRIPOS>MOLECULE
ZINC54599737_1760
38   40    1
SMALL
USER_CHARGES


@<TRIPOS>ATOM
      1 C1          4.1281   53.8034   20.2236 C.3       1 UNK         0.0000 
      2 C2          4.1674   53.9220   21.7363 C.ar      1 UNK         0.0000 
      3 C3          5.3882   54.0967   22.3871 C.ar      1 UNK         0.0000 
      4 C4          5.4290   54.1817   23.7754 C.ar      1 UNK         0.0000 
      5 C5          4.2486   54.0967   24.5230 C.ar      1 UNK         0.0000 
      6 C6          3.0262   53.9288   23.8620 C.ar      1 UNK         0.0000 
      7 C7          2.9871   53.8350   22.4753 C.ar      1 UNK         0.0000 
      8 C8          4.3090   54.1434   26.0159 C.ar      1 UNK         0.0000 
      9 C9          5.3516   54.6333   26.8114 C.ar      1 UNK         0.0000 
     10 C10         4.9364   54.4967   28.1152 C.ar      1 UNK         0.0000 
     11 N11         3.7009   53.8976   28.0459 N.pl3     1 UNK         0.0000 
     12 N12         3.3240   53.6967   26.7704 N.2       1 UNK         0.0000 
     13 C13         2.7989   53.5338   29.1649 C.3       1 UNK         0.0000 
     14 H14         3.4256   53.6241   30.0505 H         1 UNK         0.0000 
     15 C15         2.2405   52.1030   29.0486 C.3       1 UNK         0.0000 
     16 C16         0.8714   52.2275   28.3596 C.3       1 UNK         0.0000 
     17 C17         0.5388   53.7295   28.3237 C.3       1 UNK         0.0000 
     18 C18         1.5457   54.4180   29.2466 C.3       1 UNK         0.0000 
     19 H19         1.1333   54.3228   30.2537 H         1 UNK         0.0000 
     20 O20         1.7029   55.8073   29.0293 O.3       1 UNK         0.0000 
     21 N21         5.5044   54.8967   29.2817 N.pl3     1 UNK         0.0000 
     22 H22         3.2232   53.2967   19.8849 H         1 UNK         0.0000 
     23 H23         4.9715   53.2131   19.8622 H         1 UNK         0.0000 
     24 H24         4.1762   54.7889   19.7598 H         1 UNK         0.0000 
     25 H25         6.3044   54.1635   21.8203 H         1 UNK         0.0000 
     26 H26         6.3851   54.2992   24.2633 H         1 UNK         0.0000 
     27 H27         2.1043   53.8575   24.4206 H         1 UNK         0.0000 
     28 H28         2.0395   53.6969   21.9747 H         1 UNK         0.0000 
     29 H29         6.2777   55.0728   26.4774 H         1 UNK         0.0000 
     30 H30         2.9127   51.4235   28.5239 H         1 UNK         0.0000 
     31 H31         2.1026   51.6963   30.0507 H         1 UNK         0.0000 
     32 H32         0.1118   51.6671   28.9082 H         1 UNK         0.0000 
     33 H33         0.9024   51.8151   27.3495 H         1 UNK         0.0000 
     34 H34        -0.4956   53.9478   28.5876 H         1 UNK         0.0000 
     35 H35         0.7044   54.0967   27.3118 H         1 UNK         0.0000 
     36 H36         0.8599   56.2433   29.1710 H         1 UNK         0.0000 
     37 H37         6.3584   55.4605   29.2743 H         1 UNK         0.0000 
     38 H38         5.4396   54.3030   30.0919 H         1 UNK         0.0000 
@<TRIPOS>BOND
     1    1    2 1    
     2    1   22 1    
     3    1   23 1    
     4    1   24 1    
     5    2    7 ar   
     6    2    3 ar   
     7    3    4 ar   
     8    3   25 1    
     9    4    5 ar   
    10    4   26 1    
    11    5    6 ar   
    12    5    8 1    
    13    6    7 ar   
    14    6   27 1    
    15    7   28 1    
    16    8   12 ar   
    17    8    9 ar   
    18    9   10 ar   
    19    9   29 1    
    20   10   11 ar   
    21   10   21 1    
    22   11   12 ar   
    23   11   13 1    
    24   13   14 1    
    25   13   18 1    
    26   13   15 1    
    27   15   16 1    
    28   15   30 1    
    29   15   31 1    
    30   16   17 1    
    31   16   32 1    
    32   16   33 1    
    33   17   18 1    
    34   17   34 1    
    35   17   35 1    
    36   18   19 1    
    37   18   20 1    
    38   20   36 1    
    39   21   37 1    
    40   21   38 1    
@<TRIPOS>SUBSTRUCTURE
     1 UNK         1 GROUP             0       ****    0 ROOT    
