ZINC12489263_2950
                    3D
 Schrodinger Suite 2024-2.
 50 51  0  0  1  0            999 V2000
   10.0317   55.3626   17.7364 C   0  0  0  0  0  0
   10.0260   53.9237   17.2452 C   0  0  0  0  0  0
   11.2309   53.3123   16.8835 C   0  0  0  0  0  0
   11.2488   51.9912   16.4457 C   0  0  0  0  0  0
   10.0558   51.2773   16.3433 C   0  0  0  0  0  0
    8.8479   51.8819   16.6923 C   0  0  0  0  0  0
    8.8225   53.2063   17.1650 C   0  0  0  0  0  0
    7.6673   53.8555   17.5662 O   0  0  0  0  0  0
    6.4806   53.0993   17.8162 C   0  0  0  0  0  0
    5.6384   53.8028   18.8919 C   0  0  0  0  0  0
    5.8695   54.9703   19.2181 O   0  0  0  0  0  0
    4.6756   53.0360   19.4489 N   0  0  0  0  0  0
    3.9280   53.5189   20.5305 N   0  0  0  0  0  0
    4.4033   53.4027   21.7906 C   0  0  0  0  0  0
    5.4663   52.8453   22.0812 O   0  0  0  0  0  0
    3.5244   53.9926   22.9005 C   0  0  0  0  0  0
    4.3634   54.3796   23.9939 O   0  0  0  0  0  0
    3.9789   54.1868   25.3071 C   0  0  0  0  0  0
    2.7197   53.6973   25.7027 C   0  0  0  0  0  0
    2.4173   53.5277   27.0508 C   0  0  0  0  0  0
    3.3541   53.8491   28.0387 C   0  0  0  0  0  0
    4.6097   54.3239   27.6509 C   0  0  0  0  0  0
    4.9196   54.4973   26.3000 C   0  0  0  0  0  0
    6.6465   55.1649   25.8326 Br  0  0  0  0  0  0
    3.0212   53.6789   29.5207 C   0  0  0  0  0  0
    1.6593   54.3016   29.8967 C   0  0  0  0  0  0
    3.1086   52.2028   29.9521 C   0  0  0  0  0  0
   12.8976   51.1629   15.9794 Br  0  0  0  0  0  0
    9.6851   55.4030   18.7696 H   0  0  0  0  0  0
   11.0228   55.8155   17.6807 H   0  0  0  0  0  0
    9.3483   55.9662   17.1384 H   0  0  0  0  0  0
   12.1610   53.8578   16.9589 H   0  0  0  0  0  0
   10.0645   50.2547   15.9953 H   0  0  0  0  0  0
    7.9467   51.3017   16.5905 H   0  0  0  0  0  0
    5.9020   53.0189   16.8938 H   0  0  0  0  0  0
    6.7048   52.0967   18.1885 H   0  0  0  0  0  0
    4.4815   52.0730   19.1976 H   0  0  0  0  0  0
    3.0721   53.9903   20.2615 H   0  0  0  0  0  0
    2.9667   54.8596   22.5404 H   0  0  0  0  0  0
    2.8224   53.1968   23.1399 H   0  0  0  0  0  0
    1.9516   53.4518   24.9863 H   0  0  0  0  0  0
    1.4416   53.1481   27.3212 H   0  0  0  0  0  0
    5.3551   54.5773   28.3936 H   0  0  0  0  0  0
    3.7764   54.2268   30.0835 H   0  0  0  0  0  0
    1.6145   55.3542   29.6173 H   0  0  0  0  0  0
    0.8273   53.7949   29.4090 H   0  0  0  0  0  0
    1.4719   54.2422   30.9661 H   0  0  0  0  0  0
    4.0815   51.7744   29.7042 H   0  0  0  0  0  0
    2.9681   52.0965   31.0289 H   0  0  0  0  0  0
    2.3501   51.5975   29.4540 H   0  0  0  0  0  0
  1  2  1  0  0  0
  1 29  1  0  0  0
  1 30  1  0  0  0
  1 31  1  0  0  0
  2  7  2  0  0  0
  2  3  1  0  0  0
  3  4  2  0  0  0
  3 32  1  0  0  0
  4  5  1  0  0  0
  4 28  1  0  0  0
  5  6  2  0  0  0
  5 33  1  0  0  0
  6  7  1  0  0  0
  6 34  1  0  0  0
  7  8  1  0  0  0
  8  9  1  0  0  0
  9 10  1  0  0  0
  9 35  1  0  0  0
  9 36  1  0  0  0
 10 11  2  0  0  0
 10 12  1  0  0  0
 12 13  1  0  0  0
 12 37  1  0  0  0
 13 14  1  0  0  0
 13 38  1  0  0  0
 14 15  2  0  0  0
 14 16  1  0  0  0
 16 17  1  0  0  0
 16 39  1  0  0  0
 16 40  1  0  0  0
 17 18  1  0  0  0
 18 23  2  0  0  0
 18 19  1  0  0  0
 19 20  2  0  0  0
 19 41  1  0  0  0
 20 21  1  0  0  0
 20 42  1  0  0  0
 21 22  2  0  0  0
 21 25  1  0  0  0
 22 23  1  0  0  0
 22 43  1  0  0  0
 23 24  1  0  0  0
 25 26  1  0  0  0
 25 27  1  0  0  0
 25 44  1  0  0  0
 26 45  1  0  0  0
 26 46  1  0  0  0
 26 47  1  0  0  0
 27 48  1  0  0  0
 27 49  1  0  0  0
 27 50  1  0  0  0
M  END
> <i_i_glide_confnum>
156

> <i_i_glide_lignum>
2951

> <i_i_glide_posenum>
387

> <i_i_glide_rotatable_bonds>
10

> <i_m_Source_File_Index>
4576

> <b_m_subgroup_collapsed>
0

> <r_i_docking_score>
-5.25274

> <r_i_glide_ecoul>
-5.14929

> <r_i_glide_eff_state_penalty>
0

> <r_i_glide_einternal>
3.6216

> <r_i_glide_emodel>
-60.4453

> <r_i_glide_energy>
-45.3574

> <r_i_glide_erotb>
0.69816

> <r_i_glide_esite>
-0.0971367

> <r_i_glide_evdw>
-40.2081

> <r_i_glide_gscore>
-5.25274

> <r_i_glide_hbond>
-0.34506

> <r_i_glide_ligand_efficiency>
-0.187598

> <r_i_glide_ligand_efficiency_ln>
-1.21249

> <r_i_glide_ligand_efficiency_sa>
-0.569657

> <r_i_glide_lipo>
-2.45474

> <r_i_glide_metal>
0

> <r_i_glide_rewards>
-0.271164

> <s_i_glide_gridfile>
wee1_glide-grid

> <s_m_Source_File>
wee1_decoys_glide_SP.sdf

> <s_m_Source_Path>
/Users/zhangxujun/Desktop

> <s_m_entry_id>
4851

> <s_m_entry_name>
wee1_decoys_glide_SP.4576

> <s_m_subgroup_title>
wee1_decoys_glide_SP

> <s_m_subgroupid>
wee1_decoys_glide_SP


$$$$
