@<TRIPOS>MOLECULE
ZINC40946590_2562
53   55    1
SMALL
USER_CHARGES


@<TRIPOS>ATOM
      1 C1          4.9955   52.9188   21.8603 C.3       1 UNK         0.0000 
      2 C2          5.1466   54.4212   22.2052 C.3       1 UNK         0.0000 
      3 H3          4.1661   54.8966   22.1561 H         1 UNK         0.0000 
      4 C4          5.9839   55.2474   21.1948 C.2       1 UNK         0.0000 
      5 O5          6.7800   56.0967   21.6005 O.2       1 UNK         0.0000 
      6 N6          5.7731   54.9820   19.8875 N.am      1 UNK         0.0000 
      7 C7          6.2282   55.6889   18.7748 C.2       1 UNK         0.0000 
      8 C8          6.2476   55.2146   17.4393 C.2       1 UNK         0.0000 
      9 C9          6.5304   56.2708   16.5480 C.2       1 UNK         0.0000 
     10 C10         6.8226   57.4640   17.1680 C.2       1 UNK         0.0000 
     11 S11         6.7081   57.3775   18.8817 S.3       1 UNK         0.0000 
     12 C12         7.1608   58.5663   16.2033 C.3       1 UNK         0.0000 
     13 C13         7.3654   57.7692   14.9045 C.3       1 UNK         0.0000 
     14 C14         6.5813   56.4533   15.0490 C.3       1 UNK         0.0000 
     15 C15         5.9039   53.8770   16.9942 C.2       1 UNK         0.0000 
     16 O16         5.3657   53.6598   15.9130 O.2       1 UNK         0.0000 
     17 N17         6.2056   52.8968   17.8494 N.am      1 UNK         0.0000 
     18 O18         5.7068   54.5836   23.5166 O.3       1 UNK         0.0000 
     19 C19         4.9551   54.3587   24.6550 C.ar      1 UNK         0.0000 
     20 C20         5.6242   54.4933   25.8685 C.ar      1 UNK         0.0000 
     21 C21         4.9660   54.2566   27.0720 C.ar      1 UNK         0.0000 
     22 C22         3.6191   53.8623   27.0906 C.ar      1 UNK         0.0000 
     23 C23         2.9453   53.7489   25.8649 C.ar      1 UNK         0.0000 
     24 C24         3.5975   54.0126   24.6635 C.ar      1 UNK         0.0000 
     25 C25         2.9043   53.5962   28.4415 C.3       1 UNK         0.0000 
     26 C26         1.5806   52.7998   28.2816 C.3       1 UNK         0.0000 
     27 C27         2.5820   54.9529   29.1085 C.3       1 UNK         0.0000 
     28 C28         3.8015   52.7587   29.3899 C.3       1 UNK         0.0000 
     29 H29         4.7288   52.7384   20.8190 H         1 UNK         0.0000 
     30 H30         5.9044   52.3626   22.0811 H         1 UNK         0.0000 
     31 H31         4.2002   52.4730   22.4524 H         1 UNK         0.0000 
     32 H32         5.2561   54.1421   19.6707 H         1 UNK         0.0000 
     33 H33         6.3518   59.2946   16.1159 H         1 UNK         0.0000 
     34 H34         8.0657   59.1115   16.4726 H         1 UNK         0.0000 
     35 H35         7.0652   58.3349   14.0216 H         1 UNK         0.0000 
     36 H36         8.4263   57.5417   14.7860 H         1 UNK         0.0000 
     37 H37         7.0661   55.6300   14.5231 H         1 UNK         0.0000 
     38 H38         5.5785   56.5643   14.6337 H         1 UNK         0.0000 
     39 H39         6.8275   53.0828   18.6171 H         1 UNK         0.0000 
     40 H40         5.9029   51.9322   17.6818 H         1 UNK         0.0000 
     41 H41         6.6663   54.7753   25.8729 H         1 UNK         0.0000 
     42 H42         5.5211   54.3850   27.9886 H         1 UNK         0.0000 
     43 H43         1.9046   53.4704   25.8164 H         1 UNK         0.0000 
     44 H44         3.0313   53.9198   23.7510 H         1 UNK         0.0000 
     45 H45         1.1354   52.5598   29.2484 H         1 UNK         0.0000 
     46 H46         1.7420   51.8543   27.7610 H         1 UNK         0.0000 
     47 H47         0.8234   53.3573   27.7301 H         1 UNK         0.0000 
     48 H48         3.4846   55.5400   29.2832 H         1 UNK         0.0000 
     49 H49         1.9231   55.5566   28.4823 H         1 UNK         0.0000 
     50 H50         2.0848   54.8237   30.0709 H         1 UNK         0.0000 
     51 H51         4.7048   53.2904   29.6821 H         1 UNK         0.0000 
     52 H52         3.2840   52.5027   30.3155 H         1 UNK         0.0000 
     53 H53         4.1097   51.8230   28.9219 H         1 UNK         0.0000 
@<TRIPOS>BOND
     1    1    2 1    
     2    1   29 1    
     3    1   30 1    
     4    1   31 1    
     5    2    3 1    
     6    2    4 1    
     7    2   18 1    
     8    4    5 2    
     9    4    6 am   BACKBONE|DICT|INTERRES
    10    6    7 am   BACKBONE|DICT|INTERRES
    11    6   32 1    
    12    7   11 1    
    13    7    8 2    
    14    8    9 1    
    15    8   15 1    
    16    9   14 1    
    17    9   10 2    
    18   10   11 1    
    19   10   12 1    
    20   12   13 1    
    21   12   33 1    
    22   12   34 1    
    23   13   14 1    
    24   13   35 1    
    25   13   36 1    
    26   14   37 1    
    27   14   38 1    
    28   15   16 2    
    29   15   17 am   BACKBONE|DICT|INTERRES
    30   17   39 1    
    31   17   40 1    
    32   18   19 1    
    33   19   24 ar   
    34   19   20 ar   
    35   20   21 ar   
    36   20   41 1    
    37   21   22 ar   
    38   21   42 1    
    39   22   23 ar   
    40   22   25 1    
    41   23   24 ar   
    42   23   43 1    
    43   24   44 1    
    44   25   26 1    
    45   25   27 1    
    46   25   28 1    
    47   26   45 1    
    48   26   46 1    
    49   26   47 1    
    50   27   48 1    
    51   27   49 1    
    52   27   50 1    
    53   28   51 1    
    54   28   52 1    
    55   28   53 1    
@<TRIPOS>SUBSTRUCTURE
     1 UNK         1 GROUP             0       ****    0 ROOT    
