@<TRIPOS>MOLECULE
ZINC12530378_5006
60   64    1
SMALL
USER_CHARGES


@<TRIPOS>ATOM
      1 C1          3.9130   54.6750   28.9571 C.3       1 UNK         0.0000 
      2 C2          4.1360   53.4503   28.0546 C.3       1 UNK         0.0000 
      3 O3          4.3406   53.8011   26.6874 O.3       1 UNK         0.0000 
      4 C4          5.5227   54.3061   26.2487 C.2       1 UNK         0.0000 
      5 O5          6.4684   54.5817   26.9936 O.2       1 UNK         0.0000 
      6 C6          5.5738   54.4967   24.7619 C.ar      1 UNK         0.0000 
      7 C7          6.7043   55.1013   24.2103 C.ar      1 UNK         0.0000 
      8 C8          6.8364   55.2450   22.8370 C.ar      1 UNK         0.0000 
      9 C9          5.8424   54.7741   21.9719 C.ar      1 UNK         0.0000 
     10 C10         4.7020   54.1743   22.5145 C.ar      1 UNK         0.0000 
     11 C11         4.5590   54.0551   23.8983 C.ar      1 UNK         0.0000 
     12 N12         5.8843   54.9141   20.5694 N.am      1 UNK         0.0000 
     13 C13         6.8454   55.4745   19.7958 C.2       1 UNK         0.0000 
     14 O14         7.9780   55.7361   20.2071 O.2       1 UNK         0.0000 
     15 N15         6.4434   55.8212   18.5421 N.am      1 UNK         0.0000 
     16 C16         7.3137   56.7325   17.7496 C.3       1 UNK         0.0000 
     17 C17         6.4102   57.6130   16.9199 C.ar      1 UNK         0.0000 
     18 C18         5.0846   57.3249   16.6487 C.ar      1 UNK         0.0000 
     19 N19         4.5876   58.3555   15.8675 N.pl3     1 UNK         0.0000 
     20 H20         3.6304   58.4509   15.5573 H         1 UNK         0.0000 
     21 C21         5.5871   59.2884   15.6791 C.ar      1 UNK         0.0000 
     22 N22         6.7068   58.8345   16.3396 N.pl3     1 UNK         0.0000 
     23 C23         4.3767   56.0725   17.1314 C.3       1 UNK         0.0000 
     24 C24         5.4077   55.0637   17.7640 C.3       1 UNK         0.0000 
     25 H25         4.8189   54.4336   18.4299 H         1 UNK         0.0000 
     26 C26         6.0237   54.0587   16.7881 C.2       1 UNK         0.0000 
     27 N27         7.1317   53.3768   16.9254 N.2       1 UNK         0.0000 
     28 C28         7.1764   52.6680   15.8096 C.2       1 UNK         0.0000 
     29 N29         6.1615   52.8442   14.9859 N.2       1 UNK         0.0000 
     30 O30         5.3651   53.7822   15.6372 O.3       1 UNK         0.0000 
     31 C31         8.3055   51.7224   15.4946 C.ar      1 UNK         0.0000 
     32 C32         8.4931   51.2455   14.1890 C.ar      1 UNK         0.0000 
     33 C33         9.5306   50.3629   13.8979 C.ar      1 UNK         0.0000 
     34 C34        10.3935   49.9450   14.9097 C.ar      1 UNK         0.0000 
     35 C35        10.2176   50.4102   16.2137 C.ar      1 UNK         0.0000 
     36 C36         9.1828   51.2974   16.5014 C.ar      1 UNK         0.0000 
     37 C37        11.5209   48.9850   14.5759 C.3       1 UNK         0.0000 
     38 H38         4.8075   55.2953   29.0159 H         1 UNK         0.0000 
     39 H39         3.0948   55.2943   28.5890 H         1 UNK         0.0000 
     40 H40         3.6676   54.3634   29.9718 H         1 UNK         0.0000 
     41 H41         4.9701   52.8490   28.4211 H         1 UNK         0.0000 
     42 H42         3.2548   52.8100   28.0997 H         1 UNK         0.0000 
     43 H43         7.5049   55.4645   24.8361 H         1 UNK         0.0000 
     44 H44         7.7340   55.7278   22.4883 H         1 UNK         0.0000 
     45 H45         3.9111   53.8140   21.8715 H         1 UNK         0.0000 
     46 H46         3.6666   53.5829   24.2847 H         1 UNK         0.0000 
     47 H47         5.0266   54.6589   20.1066 H         1 UNK         0.0000 
     48 H48         7.9316   57.3338   18.4198 H         1 UNK         0.0000 
     49 H49         8.0016   56.1568   17.1284 H         1 UNK         0.0000 
     50 H50         5.4813   60.2560   15.2032 H         1 UNK         0.0000 
     51 H51         3.6648   56.3588   17.9066 H         1 UNK         0.0000 
     52 H52         3.7884   55.6039   16.3420 H         1 UNK         0.0000 
     53 H53         7.8360   51.5569   13.3901 H         1 UNK         0.0000 
     54 H54         9.6714   50.0066   12.8865 H         1 UNK         0.0000 
     55 H55        10.8783   50.0934   17.0078 H         1 UNK         0.0000 
     56 H56         9.0634   51.6434   17.5181 H         1 UNK         0.0000 
     57 H57        12.2200   49.4504   13.8793 H         1 UNK         0.0000 
     58 H58        12.0679   48.6619   15.4615 H         1 UNK         0.0000 
     59 H59        11.1246   48.0983   14.0815 H         1 UNK         0.0000 
     60 H60         7.5718   59.3472   16.4441 H         1 UNK         0.0000 
@<TRIPOS>BOND
     1    1    2 1    
     2    1   38 1    
     3    1   39 1    
     4    1   40 1    
     5    2    3 1    
     6    2   41 1    
     7    2   42 1    
     8    3    4 1    
     9    4    5 2    
    10    4    6 1    
    11    6   11 ar   
    12    6    7 ar   
    13    7    8 ar   
    14    7   43 1    
    15    8    9 ar   
    16    8   44 1    
    17    9   10 ar   
    18    9   12 1    
    19   10   11 ar   
    20   10   45 1    
    21   11   46 1    
    22   12   13 am   BACKBONE|DICT|INTERRES
    23   12   47 1    
    24   13   14 2    
    25   13   15 am   BACKBONE|DICT|INTERRES
    26   15   24 1    
    27   15   16 1    
    28   16   17 1    
    29   16   48 1    
    30   16   49 1    
    31   17   22 ar   
    32   17   18 ar   
    33   18   19 ar   
    34   18   23 1    
    35   19   20 1    
    36   19   21 ar   
    37   21   22 ar   
    38   21   50 1    
    39   22   60 1    
    40   23   24 1    
    41   23   51 1    
    42   23   52 1    
    43   24   25 1    
    44   24   26 1    
    45   26   30 1    
    46   26   27 2    
    47   27   28 1    
    48   28   29 2    
    49   28   31 1    
    50   29   30 1    
    51   31   36 ar   
    52   31   32 ar   
    53   32   33 ar   
    54   32   53 1    
    55   33   34 ar   
    56   33   54 1    
    57   34   35 ar   
    58   34   37 1    
    59   35   36 ar   
    60   35   55 1    
    61   36   56 1    
    62   37   57 1    
    63   37   58 1    
    64   37   59 1    
@<TRIPOS>SUBSTRUCTURE
     1 UNK         1 GROUP             0       ****    0 ROOT    
