ZINC11730525_12
                    3D
 Schrodinger Suite 2024-2.
 47 50  0  0  1  0            999 V2000
   11.2376   50.2901   16.1315 C   0  0  0  0  0  0
   11.2741   51.6804   16.4408 O   0  0  0  0  0  0
   10.0906   52.3447   16.6970 C   0  0  0  0  0  0
    8.8202   51.7536   16.6150 C   0  0  0  0  0  0
    7.6794   52.4989   16.8996 C   0  0  0  0  0  0
    7.8037   53.8390   17.2700 C   0  0  0  0  0  0
    9.0626   54.4330   17.3608 C   0  0  0  0  0  0
   10.1993   53.6851   17.0707 C   0  0  0  0  0  0
    6.3450   54.8185   17.6061 S   0  0  0  0  0  0
    6.6214   56.1769   17.1240 O   0  0  0  0  0  0
    5.1834   54.0715   17.1165 O   0  0  0  0  0  0
    6.2613   54.9262   19.4244 C   0  0  0  0  0  0
    5.4936   54.2094   20.3633 C   0  0  0  0  0  0
    5.9062   54.7487   21.5780 N   0  0  0  0  0  0
    6.8351   55.6964   21.3807 N   0  0  0  0  0  0
    7.0496   55.7918   20.0289 N   0  0  0  0  0  0
    5.4985   54.4723   22.9089 C   0  0  0  0  0  0
    4.1432   54.2725   23.2046 C   0  0  0  0  0  0
    3.7379   54.0971   24.5253 C   0  0  0  0  0  0
    4.6826   54.1195   25.5495 C   0  0  0  0  0  0
    6.0344   54.2954   25.2635 C   0  0  0  0  0  0
    6.4459   54.4661   23.9446 C   0  0  0  0  0  0
    4.2733   53.9646   26.8711 N   0  0  0  0  0  0
    4.4675   53.1284   20.2112 C   0  0  0  0  0  0
    4.5075   51.9696   20.9958 C   0  0  0  0  0  0
    3.5040   51.0078   20.8775 C   0  0  0  0  0  0
    2.4814   51.1848   19.9516 C   0  0  0  0  0  0
    2.4420   52.3240   19.1558 C   0  0  0  0  0  0
    3.4276   53.2966   19.2956 C   0  0  0  0  0  0
    1.5099   50.2511   19.8391 F   0  0  0  0  0  0
   12.2545   49.9271   15.9834 H   0  0  0  0  0  0
   10.6832   50.0965   15.2115 H   0  0  0  0  0  0
   10.7961   49.7108   16.9445 H   0  0  0  0  0  0
    8.7019   50.7182   16.3355 H   0  0  0  0  0  0
    6.7051   52.0330   16.8389 H   0  0  0  0  0  0
    9.1625   55.4703   17.6484 H   0  0  0  0  0  0
   11.1750   54.1432   17.1424 H   0  0  0  0  0  0
    3.3949   54.2918   22.4245 H   0  0  0  0  0  0
    2.6898   53.9615   24.7478 H   0  0  0  0  0  0
    6.7656   54.3011   26.0578 H   0  0  0  0  0  0
    7.4999   54.6124   23.7386 H   0  0  0  0  0  0
    3.3478   53.5908   27.0194 H   0  0  0  0  0  0
    4.9886   53.7647   27.5545 H   0  0  0  0  0  0
    5.3019   51.8230   21.7126 H   0  0  0  0  0  0
    3.5043   50.1224   21.4937 H   0  0  0  0  0  0
    1.6411   52.4615   18.4457 H   0  0  0  0  0  0
    3.3553   54.1984   18.7070 H   0  0  0  0  0  0
  1  2  1  0  0  0
  1 31  1  0  0  0
  1 32  1  0  0  0
  1 33  1  0  0  0
  2  3  1  0  0  0
  3  8  2  0  0  0
  3  4  1  0  0  0
  4  5  2  0  0  0
  4 34  1  0  0  0
  5  6  1  0  0  0
  5 35  1  0  0  0
  6  7  2  0  0  0
  6  9  1  0  0  0
  7  8  1  0  0  0
  7 36  1  0  0  0
  8 37  1  0  0  0
  9 10  2  0  0  0
  9 11  2  0  0  0
  9 12  1  0  0  0
 12 16  1  0  0  0
 12 13  2  0  0  0
 13 14  1  0  0  0
 13 24  1  0  0  0
 14 15  1  0  0  0
 14 17  1  0  0  0
 15 16  2  0  0  0
 17 22  2  0  0  0
 17 18  1  0  0  0
 18 19  2  0  0  0
 18 38  1  0  0  0
 19 20  1  0  0  0
 19 39  1  0  0  0
 20 21  2  0  0  0
 20 23  1  0  0  0
 21 22  1  0  0  0
 21 40  1  0  0  0
 22 41  1  0  0  0
 23 42  1  0  0  0
 23 43  1  0  0  0
 24 29  2  0  0  0
 24 25  1  0  0  0
 25 26  2  0  0  0
 25 44  1  0  0  0
 26 27  1  0  0  0
 26 45  1  0  0  0
 27 28  2  0  0  0
 27 30  1  0  0  0
 28 29  1  0  0  0
 28 46  1  0  0  0
 29 47  1  0  0  0
M  END
> <i_i_glide_confnum>
7

> <i_i_glide_lignum>
13

> <i_i_glide_posenum>
1

> <i_i_glide_rotatable_bonds>
5

> <i_m_Source_File_Index>
1752

> <b_m_subgroup_collapsed>
0

> <r_i_docking_score>
-4.31496

> <r_i_glide_ecoul>
0.0180768

> <r_i_glide_eff_state_penalty>
0

> <r_i_glide_einternal>
0.652372

> <r_i_glide_emodel>
-48.783

> <r_i_glide_energy>
-37.5339

> <r_i_glide_erotb>
0.440248

> <r_i_glide_esite>
-0.0383833

> <r_i_glide_evdw>
-37.552

> <r_i_glide_gscore>
-4.31496

> <r_i_glide_hbond>
0

> <r_i_glide_ligand_efficiency>
-0.143832

> <r_i_glide_ligand_efficiency_ln>
-0.980407

> <r_i_glide_ligand_efficiency_sa>
-0.44692

> <r_i_glide_lipo>
-2.05955

> <r_i_glide_metal>
0

> <r_i_glide_rewards>
-0.782391

> <s_i_glide_gridfile>
wee1_glide-grid

> <s_m_Source_File>
wee1_decoys_glide_SP.sdf

> <s_m_Source_Path>
/Users/zhangxujun/Desktop

> <s_m_entry_id>
2027

> <s_m_entry_name>
wee1_decoys_glide_SP.1752

> <s_m_subgroup_title>
wee1_decoys_glide_SP

> <s_m_subgroupid>
wee1_decoys_glide_SP


$$$$
