@<TRIPOS>MOLECULE
ZINC13398400_529
57   60    1
SMALL
USER_CHARGES


@<TRIPOS>ATOM
      1 C1          6.5834   54.4957   27.1299 C.ar      1 UNK         0.0000 
      2 C2          6.5777   54.5164   25.7404 C.ar      1 UNK         0.0000 
      3 C3          5.3857   54.3258   25.0299 C.ar      1 UNK         0.0000 
      4 C4          4.2053   54.0972   25.7517 C.ar      1 UNK         0.0000 
      5 C5          4.1840   54.0539   27.1579 C.ar      1 UNK         0.0000 
      6 C6          5.4033   54.2721   27.8307 C.ar      1 UNK         0.0000 
      7 N7          2.9543   53.7615   27.8291 N.am      1 UNK         0.0000 
      8 C8          1.7476   53.3001   27.1195 C.3       1 UNK         0.0000 
      9 C9          0.6261   53.2842   28.1328 C.3       1 UNK         0.0000 
     10 C10         1.3426   53.2259   29.4491 C.3       1 UNK         0.0000 
     11 C11         2.7476   53.7543   29.1810 C.2       1 UNK         0.0000 
     12 O12         3.5077   54.0955   30.0820 O.2       1 UNK         0.0000 
     13 C13         5.3617   54.3192   23.5173 C.2       1 UNK         0.0000 
     14 O14         4.4677   53.7221   22.9172 O.2       1 UNK         0.0000 
     15 N15         6.3546   55.0186   22.9243 N.am      1 UNK         0.0000 
     16 C16         6.6403   55.1940   21.5606 C.ar      1 UNK         0.0000 
     17 C17         5.7877   54.8366   20.5066 C.ar      1 UNK         0.0000 
     18 C18         6.2531   54.8750   19.1943 C.ar      1 UNK         0.0000 
     19 C19         7.5724   55.2544   18.9355 C.ar      1 UNK         0.0000 
     20 C20         8.3913   55.6833   19.9769 C.ar      1 UNK         0.0000 
     21 C21         7.9082   55.6950   21.2794 C.ar      1 UNK         0.0000 
     22 S22         8.2379   55.1300   17.2739 S.o2      1 UNK         0.0000 
     23 O23         9.6377   54.7093   17.4079 O.2       1 UNK         0.0000 
     24 O24         7.2856   54.3149   16.5099 O.2       1 UNK         0.0000 
     25 N25         8.2069   56.7636   16.5705 N.pl3     1 UNK         0.0000 
     26 C26         6.9049   57.4742   16.5218 C.3       1 UNK         0.0000 
     27 C27         6.7004   58.3524   17.7781 C.3       1 UNK         0.0000 
     28 C28         7.9064   59.2964   17.9952 C.3       1 UNK         0.0000 
     29 C29         9.2509   58.5161   18.0154 C.3       1 UNK         0.0000 
     30 H30         9.2852   57.8751   18.8852 H         1 UNK         0.0000 
     31 C31         9.3884   57.6529   16.7358 C.3       1 UNK         0.0000 
     32 C32        10.4679   59.4533   18.2083 C.2       1 UNK         0.0000 
     33 O33        10.3048   60.4967   18.8817 O.co2     1 UNK         0.0000 
     34 H34         7.5047   54.6408   27.6767 H         1 UNK         0.0000 
     35 H35         7.5114   54.6661   25.2220 H         1 UNK         0.0000 
     36 H36         3.2978   53.9304   25.1895 H         1 UNK         0.0000 
     37 H37         5.4901   54.2514   28.9036 H         1 UNK         0.0000 
     38 H38         1.4934   53.9627   26.2923 H         1 UNK         0.0000 
     39 H39         1.9184   52.2998   26.7171 H         1 UNK         0.0000 
     40 H40        -0.0732   52.4612   27.9791 H         1 UNK         0.0000 
     41 H41         0.0571   54.2140   28.0817 H         1 UNK         0.0000 
     42 H42         1.4378   52.1950   29.7934 H         1 UNK         0.0000 
     43 H43         0.8312   53.7901   30.2301 H         1 UNK         0.0000 
     44 H44         7.0365   55.4228   23.5455 H         1 UNK         0.0000 
     45 H45         4.7835   54.4807   20.6769 H         1 UNK         0.0000 
     46 H46         5.6048   54.5558   18.3917 H         1 UNK         0.0000 
     47 H47         9.4212   55.9545   19.7899 H         1 UNK         0.0000 
     48 H48         8.5693   56.0104   22.0725 H         1 UNK         0.0000 
     49 H49         6.9129   58.1154   15.6402 H         1 UNK         0.0000 
     50 H50         6.1016   56.7503   16.3830 H         1 UNK         0.0000 
     51 H51         5.7871   58.9380   17.6674 H         1 UNK         0.0000 
     52 H52         6.5419   57.7338   18.6603 H         1 UNK         0.0000 
     53 H53         7.9046   60.0157   17.1730 H         1 UNK         0.0000 
     54 H54         7.7513   59.8470   18.9241 H         1 UNK         0.0000 
     55 H55        10.2984   57.0513   16.7115 H         1 UNK         0.0000 
     56 H56         9.4177   58.3136   15.8676 H         1 UNK         0.0000 
     57 O57        11.5675   59.1079   17.7243 O.co2     1 UNK         0.0000 
@<TRIPOS>BOND
     1    1    6 ar   
     2    1    2 ar   
     3    1   34 1    
     4    2    3 ar   
     5    2   35 1    
     6    3    4 ar   
     7    3   13 1    
     8    4    5 ar   
     9    4   36 1    
    10    5    6 ar   
    11    5    7 1    
    12    6   37 1    
    13    7   11 am   BACKBONE|DICT|INTERRES
    14    7    8 1    
    15    8    9 1    
    16    8   38 1    
    17    8   39 1    
    18    9   10 1    
    19    9   40 1    
    20    9   41 1    
    21   10   11 1    
    22   10   42 1    
    23   10   43 1    
    24   11   12 2    
    25   13   14 2    
    26   13   15 am   BACKBONE|DICT|INTERRES
    27   15   16 1    
    28   15   44 1    
    29   16   21 ar   
    30   16   17 ar   
    31   17   18 ar   
    32   17   45 1    
    33   18   19 ar   
    34   18   46 1    
    35   19   20 ar   
    36   19   22 1    
    37   20   21 ar   
    38   20   47 1    
    39   21   48 1    
    40   22   23 2    
    41   22   24 2    
    42   22   25 1    
    43   25   31 1    
    44   25   26 1    
    45   26   27 1    
    46   26   49 1    
    47   26   50 1    
    48   27   28 1    
    49   27   51 1    
    50   27   52 1    
    51   28   29 1    
    52   28   53 1    
    53   28   54 1    
    54   29   30 1    
    55   29   31 1    
    56   29   32 1    
    57   31   55 1    
    58   31   56 1    
    59   32   33 2    
    60   32   57 1    
@<TRIPOS>SUBSTRUCTURE
     1 UNK         1 GROUP             0       ****    0 ROOT    
