@<TRIPOS>MOLECULE
ZINC13075835_1025
63   66    1
SMALL
USER_CHARGES


@<TRIPOS>ATOM
      1 C1          1.5475   53.2967   26.4801 C.ar      1 UNK         0.0000 
      2 C2          1.0331   52.4541   25.5018 C.ar      1 UNK         0.0000 
      3 C3          0.3048   51.3269   25.8776 C.ar      1 UNK         0.0000 
      4 C4          0.0892   51.0431   27.2226 C.ar      1 UNK         0.0000 
      5 C5          0.6072   51.8856   28.2032 C.ar      1 UNK         0.0000 
      6 C6          1.3548   53.0147   27.8415 C.ar      1 UNK         0.0000 
      7 C7          1.8625   53.9984   28.9137 C.3       1 UNK         0.0000 
      8 C8          1.5484   55.5131   28.7434 C.3       1 UNK         0.0000 
      9 C9          1.2192   55.6431   30.2303 C.3       1 UNK         0.0000 
     10 C10         1.0706   54.1231   30.2512 C.3       1 UNK         0.0000 
     11 C11         3.3755   53.6585   29.0282 C.2       1 UNK         0.0000 
     12 O12         3.8410   53.0873   30.0171 O.2       1 UNK         0.0000 
     13 O13         4.0932   54.1201   27.9710 O.3       1 UNK         0.0000 
     14 C14         5.5072   53.9416   27.8724 C.3       1 UNK         0.0000 
     15 C15         5.9934   54.3788   26.4774 C.2       1 UNK         0.0000 
     16 O16         7.1032   54.8967   26.3795 O.2       1 UNK         0.0000 
     17 N17         5.1785   54.1129   25.4298 N.am      1 UNK         0.0000 
     18 C18         5.3591   54.3476   24.0509 C.ar      1 UNK         0.0000 
     19 C19         4.2485   54.0947   23.2400 C.ar      1 UNK         0.0000 
     20 C20         4.3192   54.2791   21.8613 C.ar      1 UNK         0.0000 
     21 C21         5.5054   54.7296   21.2744 C.ar      1 UNK         0.0000 
     22 C22         6.6209   54.9802   22.0777 C.ar      1 UNK         0.0000 
     23 C23         6.5520   54.7889   23.4580 C.ar      1 UNK         0.0000 
     24 S24         5.6044   54.9488   19.4817 S.o2      1 UNK         0.0000 
     25 O25         6.6622   54.0203   19.0829 O.2       1 UNK         0.0000 
     26 O26         4.2751   54.5853   18.9836 O.2       1 UNK         0.0000 
     27 N27         5.9462   56.6800   19.4577 N.2       1 UNK         0.0000 
     28 C28         7.0634   57.1400   19.0635 C.2       1 UNK         0.0000 
     29 C29         8.4057   56.4384   18.8024 C.3       1 UNK         0.0000 
     30 C30         8.8010   56.3148   17.3161 C.3       1 UNK         0.0000 
     31 C31         9.4322   57.5803   16.7145 C.3       1 UNK         0.0000 
     32 C32         8.5905   58.8700   16.7949 C.3       1 UNK         0.0000 
     33 C33         8.1734   59.3038   18.2146 C.3       1 UNK         0.0000 
     34 N34         7.1049   58.4971   18.7991 N.pl3     1 UNK         0.0000 
     35 Cl35       -0.3134   50.2664   24.6641 Cl        1 UNK         0.0000 
     36 H36         2.0943   54.1770   26.1829 H         1 UNK         0.0000 
     37 H37         1.1943   52.6693   24.4579 H         1 UNK         0.0000 
     38 H38        -0.4809   50.1657   27.5057 H         1 UNK         0.0000 
     39 H39         0.4257   51.6484   29.2411 H         1 UNK         0.0000 
     40 H40         2.3713   56.1426   28.4068 H         1 UNK         0.0000 
     41 H41         0.7023   55.6964   28.0812 H         1 UNK         0.0000 
     42 H42         2.0495   56.0218   30.8252 H         1 UNK         0.0000 
     43 H43         0.3181   56.2051   30.4816 H         1 UNK         0.0000 
     44 H44         0.0306   53.8012   30.1706 H         1 UNK         0.0000 
     45 H45         1.5017   53.6210   31.1185 H         1 UNK         0.0000 
     46 H46         6.0300   54.5116   28.6449 H         1 UNK         0.0000 
     47 H47         5.7630   52.8882   28.0083 H         1 UNK         0.0000 
     48 H48         4.3000   53.6817   25.6739 H         1 UNK         0.0000 
     49 H49         3.3190   53.7480   23.6691 H         1 UNK         0.0000 
     50 H50         3.4480   54.0756   21.2515 H         1 UNK         0.0000 
     51 H51         7.5490   55.3075   21.6342 H         1 UNK         0.0000 
     52 H52         7.4427   54.9807   24.0341 H         1 UNK         0.0000 
     53 H53         9.2015   56.9449   19.3498 H         1 UNK         0.0000 
     54 H54         8.4357   55.4570   19.2622 H         1 UNK         0.0000 
     55 H55         9.5097   55.4911   17.2153 H         1 UNK         0.0000 
     56 H56         7.9348   56.0109   16.7229 H         1 UNK         0.0000 
     57 H57         9.6754   57.3857   15.6699 H         1 UNK         0.0000 
     58 H58        10.3912   57.7579   17.2033 H         1 UNK         0.0000 
     59 H59         7.7020   58.7765   16.1707 H         1 UNK         0.0000 
     60 H60         9.1687   59.6790   16.3482 H         1 UNK         0.0000 
     61 H61         7.9068   60.3595   18.2257 H         1 UNK         0.0000 
     62 H62         9.0348   59.2232   18.8793 H         1 UNK         0.0000 
     63 H63         6.2123   58.9720   18.8136 H         1 UNK         0.0000 
@<TRIPOS>BOND
     1    1    6 ar   
     2    1    2 ar   
     3    1   36 1    
     4    2    3 ar   
     5    2   37 1    
     6    3    4 ar   
     7    3   35 1    
     8    4    5 ar   
     9    4   38 1    
    10    5    6 ar   
    11    5   39 1    
    12    6    7 1    
    13    7   10 1    
    14    7    8 1    
    15    7   11 1    
    16    8    9 1    
    17    8   40 1    
    18    8   41 1    
    19    9   10 1    
    20    9   42 1    
    21    9   43 1    
    22   10   44 1    
    23   10   45 1    
    24   11   12 2    
    25   11   13 1    
    26   13   14 1    
    27   14   15 1    
    28   14   46 1    
    29   14   47 1    
    30   15   16 2    
    31   15   17 am   BACKBONE|DICT|INTERRES
    32   17   18 1    
    33   17   48 1    
    34   18   23 ar   
    35   18   19 ar   
    36   19   20 ar   
    37   19   49 1    
    38   20   21 ar   
    39   20   50 1    
    40   21   22 ar   
    41   21   24 1    
    42   22   23 ar   
    43   22   51 1    
    44   23   52 1    
    45   24   25 2    
    46   24   26 2    
    47   24   27 1    
    48   27   28 2    
    49   28   34 1    
    50   28   29 1    
    51   29   30 1    
    52   29   53 1    
    53   29   54 1    
    54   30   31 1    
    55   30   55 1    
    56   30   56 1    
    57   31   32 1    
    58   31   57 1    
    59   31   58 1    
    60   32   33 1    
    61   32   59 1    
    62   32   60 1    
    63   33   34 1    
    64   33   61 1    
    65   33   62 1    
    66   34   63 1    
@<TRIPOS>SUBSTRUCTURE
     1 UNK         1 GROUP             0       ****    0 ROOT    
