@<TRIPOS>MOLECULE
ZINC63375392_5365
64   69    1
SMALL
USER_CHARGES


@<TRIPOS>ATOM
      1 C1          4.1457   56.0532   18.2842 C.3       1 UNK         0.0000 
      2 C2          5.3172   55.1459   17.9449 C.ar      1 UNK         0.0000 
      3 C3          6.1554   55.5623   16.9042 C.ar      1 UNK         0.0000 
      4 C4          7.1970   54.7532   16.4592 C.ar      1 UNK         0.0000 
      5 C5          7.3996   53.5062   17.0427 C.ar      1 UNK         0.0000 
      6 C6          6.5736   53.0888   18.0820 C.ar      1 UNK         0.0000 
      7 C7          5.5439   53.8983   18.5737 C.ar      1 UNK         0.0000 
      8 C8          4.7250   53.3616   19.7725 C.3       1 UNK         0.0000 
      9 H9          5.2222   52.4294   20.0483 H         1 UNK         0.0000 
     10 C10         4.7201   54.2921   21.0271 C.3       1 UNK         0.0000 
     11 H11         4.4995   55.2925   20.6894 H         1 UNK         0.0000 
     12 C12         3.7846   53.8494   22.1370 C.2       1 UNK         0.0000 
     13 C13         4.3725   54.0610   23.3202 C.2       1 UNK         0.0000 
     14 C14         3.8732   53.9023   24.6945 C.2       1 UNK         0.0000 
     15 C15         4.6746   54.1629   25.7469 C.2       1 UNK         0.0000 
     16 C16         6.0353   54.6025   25.4729 C.2       1 UNK         0.0000 
     17 C17         6.5047   54.7369   24.2032 C.2       1 UNK         0.0000 
     18 C18         5.6907   54.4580   23.1009 C.2       1 UNK         0.0000 
     19 N19         5.9555   54.4969   21.8084 N.pl3     1 UNK         0.0000 
     20 C20         2.4343   53.2829   21.7828 C.3       1 UNK         0.0000 
     21 C21         2.5317   52.3627   20.5366 C.3       1 UNK         0.0000 
     22 H22         2.9477   51.3992   20.8243 H         1 UNK         0.0000 
     23 N23         3.3383   52.8979   19.4636 N.am      1 UNK         0.0000 
     24 C24         2.7777   52.6278   18.2601 C.2       1 UNK         0.0000 
     25 O25         3.2945   52.7468   17.1493 O.2       1 UNK         0.0000 
     26 N26         1.4984   52.2255   18.5096 N.am      1 UNK         0.0000 
     27 C27         1.2202   52.1320   19.8298 C.2       1 UNK         0.0000 
     28 O28         0.1406   51.9038   20.3780 O.2       1 UNK         0.0000 
     29 C29         0.5450   51.9927   17.4835 C.ar      1 UNK         0.0000 
     30 C30         0.1688   53.0984   16.7050 C.ar      1 UNK         0.0000 
     31 C31        -0.7710   52.9743   15.6874 C.ar      1 UNK         0.0000 
     32 C32        -1.3593   51.7395   15.4335 C.ar      1 UNK         0.0000 
     33 C33        -1.0075   50.6315   16.2002 C.ar      1 UNK         0.0000 
     34 C34        -0.0538   50.7253   17.2264 C.ar      1 UNK         0.0000 
     35 C35         0.2356   49.4711   18.0263 C.2       1 UNK         0.0000 
     36 O36        -0.6760   48.6930   18.3136 O.2       1 UNK         0.0000 
     37 N37         1.5045   49.2791   18.4319 N.am      1 UNK         0.0000 
     38 C38         1.8972   48.4261   19.5509 C.3       1 UNK         0.0000 
     39 C39         1.3203   48.8956   20.8823 C.2       1 UNK         0.0000 
     40 C40         2.0258   49.2968   21.9505 C.2       1 UNK         0.0000 
     41 H41         4.4799   56.8977   18.8814 H         1 UNK         0.0000 
     42 H42         3.7070   56.4582   17.3706 H         1 UNK         0.0000 
     43 H43         3.3368   55.5287   18.7845 H         1 UNK         0.0000 
     44 H44         5.9887   56.5145   16.4214 H         1 UNK         0.0000 
     45 H45         7.8308   55.0804   15.6487 H         1 UNK         0.0000 
     46 H46         8.1841   52.8560   16.6816 H         1 UNK         0.0000 
     47 H47         6.7049   52.0997   18.4960 H         1 UNK         0.0000 
     48 H48         2.8639   53.5730   24.8956 H         1 UNK         0.0000 
     49 H49         4.3214   54.0438   26.7619 H         1 UNK         0.0000 
     50 H50         6.6795   54.8414   26.3068 H         1 UNK         0.0000 
     51 H51         7.5045   55.0942   24.0564 H         1 UNK         0.0000 
     52 H52         2.0397   52.6945   22.6122 H         1 UNK         0.0000 
     53 H53         1.7166   54.0894   21.6817 H         1 UNK         0.0000 
     54 H54         0.6115   54.0692   16.8863 H         1 UNK         0.0000 
     55 H55        -1.0447   53.8351   15.0947 H         1 UNK         0.0000 
     56 H56        -2.0909   51.6403   14.6457 H         1 UNK         0.0000 
     57 H57        -1.4880   49.6873   15.9862 H         1 UNK         0.0000 
     58 H58         2.2463   49.7824   17.9615 H         1 UNK         0.0000 
     59 H59         1.6025   47.3926   19.3522 H         1 UNK         0.0000 
     60 H60         2.9867   48.4270   19.6007 H         1 UNK         0.0000 
     61 H61         0.2404   48.9038   20.9456 H         1 UNK         0.0000 
     62 H62         1.5368   49.6181   22.8596 H         1 UNK         0.0000 
     63 H63         3.1042   49.3052   21.9332 H         1 UNK         0.0000 
     64 H64         6.8492   54.7513   21.3965 H         1 UNK         0.0000 
@<TRIPOS>BOND
     1    1    2 1    
     2    1   41 1    
     3    1   42 1    
     4    1   43 1    
     5    2    7 ar   
     6    2    3 ar   
     7    3    4 ar   
     8    3   44 1    
     9    4    5 ar   
    10    4   45 1    
    11    5    6 ar   
    12    5   46 1    
    13    6    7 ar   
    14    6   47 1    
    15    7    8 1    
    16    8    9 1    
    17    8   23 1    
    18    8   10 1    
    19   10   11 1    
    20   10   19 1    
    21   10   12 1    
    22   12   13 2    
    23   12   20 1    
    24   13   18 1    
    25   13   14 1    
    26   14   15 2    
    27   14   48 1    
    28   15   16 1    
    29   15   49 1    
    30   16   17 2    
    31   16   50 1    
    32   17   18 1    
    33   17   51 1    
    34   18   19 2    
    35   19   64 1    
    36   20   21 1    
    37   20   52 1    
    38   20   53 1    
    39   21   22 1    
    40   21   27 1    
    41   21   23 1    
    42   23   24 am   BACKBONE|DICT|INTERRES
    43   24   25 2    
    44   24   26 am   BACKBONE|DICT|INTERRES
    45   26   27 am   BACKBONE|DICT|INTERRES
    46   26   29 1    
    47   27   28 2    
    48   29   34 ar   
    49   29   30 ar   
    50   30   31 ar   
    51   30   54 1    
    52   31   32 ar   
    53   31   55 1    
    54   32   33 ar   
    55   32   56 1    
    56   33   34 ar   
    57   33   57 1    
    58   34   35 1    
    59   35   36 2    
    60   35   37 am   BACKBONE|DICT|INTERRES
    61   37   38 1    
    62   37   58 1    
    63   38   39 1    
    64   38   59 1    
    65   38   60 1    
    66   39   40 2    
    67   39   61 1    
    68   40   62 1    
    69   40   63 1    
@<TRIPOS>SUBSTRUCTURE
     1 UNK         1 GROUP             0       ****    0 ROOT    
