@<TRIPOS>MOLECULE
ZINC39859556_2986
61   64    1
SMALL
USER_CHARGES


@<TRIPOS>ATOM
      1 C1          7.0927   54.0299   27.5354 C.3       1 UNK         0.0000 
      2 O2          6.5465   54.9926   26.6455 O.3       1 UNK         0.0000 
      3 C3          5.3983   54.5906   26.0067 C.ar      1 UNK         0.0000 
      4 C4          5.4763   54.2940   24.6474 C.ar      1 UNK         0.0000 
      5 C5          4.3366   53.9267   23.9222 C.ar      1 UNK         0.0000 
      6 C6          3.1149   53.8303   24.6049 C.ar      1 UNK         0.0000 
      7 C7          3.0364   54.0967   25.9681 C.ar      1 UNK         0.0000 
      8 C8          4.1682   54.5153   26.6777 C.ar      1 UNK         0.0000 
      9 O9          4.1497   54.8936   28.0082 O.3       1 UNK         0.0000 
     10 C10         2.9163   55.1541   28.6803 C.3       1 UNK         0.0000 
     11 C11         2.5372   54.0162   29.6225 C.ar      1 UNK         0.0000 
     12 C12         1.2194   53.9249   30.0804 C.ar      1 UNK         0.0000 
     13 C13         0.8757   52.9576   31.0200 C.ar      1 UNK         0.0000 
     14 C14         1.8572   52.0968   31.5041 C.ar      1 UNK         0.0000 
     15 C15         3.1655   52.1494   31.0235 C.ar      1 UNK         0.0000 
     16 C16         3.5043   53.1111   30.0782 C.ar      1 UNK         0.0000 
     17 C17         4.4913   53.4347   22.4766 C.3       1 UNK         0.0000 
     18 N18         3.4369   52.4957   22.0768 N.am      1 UNK         0.0000 
     19 C19         3.4467   51.7560   20.9507 C.2       1 UNK         0.0000 
     20 O20         4.3061   51.9076   20.0858 O.2       1 UNK         0.0000 
     21 C21         2.3633   50.7098   20.7944 C.ar      1 UNK         0.0000 
     22 C22         1.4244   50.4541   21.8100 C.ar      1 UNK         0.0000 
     23 C23         0.4490   49.4761   21.6372 C.ar      1 UNK         0.0000 
     24 C24         0.4053   48.7409   20.4567 C.ar      1 UNK         0.0000 
     25 C25         1.3303   48.9750   19.4426 C.ar      1 UNK         0.0000 
     26 C26         2.3038   49.9553   19.6119 C.ar      1 UNK         0.0000 
     27 F27        -0.5401   47.7868   20.2950 F         1 UNK         0.0000 
     28 N28         4.6864   54.4963   21.4845 N.am      1 UNK         0.0000 
     29 C29         5.8710   55.0211   21.1194 C.2       1 UNK         0.0000 
     30 O30         6.8901   54.8968   21.7986 O.2       1 UNK         0.0000 
     31 C31         5.9141   55.7572   19.7977 C.ar      1 UNK         0.0000 
     32 C32         7.0467   56.5162   19.4692 C.ar      1 UNK         0.0000 
     33 C33         7.1134   57.2047   18.2607 C.ar      1 UNK         0.0000 
     34 C34         6.0562   57.1218   17.3613 C.ar      1 UNK         0.0000 
     35 C35         4.9381   56.3492   17.6547 C.ar      1 UNK         0.0000 
     36 C36         4.8708   55.6613   18.8625 C.ar      1 UNK         0.0000 
     37 F37         6.1263   57.7792   16.1822 F         1 UNK         0.0000 
     38 H38         7.9052   54.4956   28.0840 H         1 UNK         0.0000 
     39 H39         6.3745   53.6649   28.2690 H         1 UNK         0.0000 
     40 H40         7.4993   53.1747   26.9946 H         1 UNK         0.0000 
     41 H41         6.4430   54.3329   24.1711 H         1 UNK         0.0000 
     42 H42         2.2153   53.5203   24.0978 H         1 UNK         0.0000 
     43 H43         2.0792   53.9846   26.4544 H         1 UNK         0.0000 
     44 H44         3.0822   56.0410   29.2918 H         1 UNK         0.0000 
     45 H45         2.0907   55.4229   28.0199 H         1 UNK         0.0000 
     46 H46         0.4671   54.6162   29.7334 H         1 UNK         0.0000 
     47 H47        -0.1347   52.8883   31.3996 H         1 UNK         0.0000 
     48 H48         1.5934   51.3726   32.2600 H         1 UNK         0.0000 
     49 H49         3.9200   51.4785   31.4087 H         1 UNK         0.0000 
     50 H50         4.5247   53.1716   29.7255 H         1 UNK         0.0000 
     51 H51         5.4032   52.8259   22.4876 H         1 UNK         0.0000 
     52 H52         2.5735   52.5506   22.5884 H         1 UNK         0.0000 
     53 H53         1.4351   50.9909   22.7463 H         1 UNK         0.0000 
     54 H54        -0.2716   49.2803   22.4200 H         1 UNK         0.0000 
     55 H55         1.3011   48.3937   18.5324 H         1 UNK         0.0000 
     56 H56         3.0208   50.1111   18.8124 H         1 UNK         0.0000 
     57 H57         3.8478   54.8661   21.0640 H         1 UNK         0.0000 
     58 H58         7.8902   56.5678   20.1421 H         1 UNK         0.0000 
     59 H59         7.9847   57.7934   18.0152 H         1 UNK         0.0000 
     60 H60         4.1307   56.2811   16.9399 H         1 UNK         0.0000 
     61 H61         3.9958   55.0532   19.0503 H         1 UNK         0.0000 
@<TRIPOS>BOND
     1    1    2 1    
     2    1   38 1    
     3    1   39 1    
     4    1   40 1    
     5    2    3 1    
     6    3    8 ar   
     7    3    4 ar   
     8    4    5 ar   
     9    4   41 1    
    10    5    6 ar   
    11    5   17 1    
    12    6    7 ar   
    13    6   42 1    
    14    7    8 ar   
    15    7   43 1    
    16    8    9 1    
    17    9   10 1    
    18   10   11 1    
    19   10   44 1    
    20   10   45 1    
    21   11   16 ar   
    22   11   12 ar   
    23   12   13 ar   
    24   12   46 1    
    25   13   14 ar   
    26   13   47 1    
    27   14   15 ar   
    28   14   48 1    
    29   15   16 ar   
    30   15   49 1    
    31   16   50 1    
    32   17   18 1    
    33   17   28 1    
    34   17   51 1    
    35   18   19 am   BACKBONE|DICT|INTERRES
    36   18   52 1    
    37   19   20 2    
    38   19   21 1    
    39   21   26 ar   
    40   21   22 ar   
    41   22   23 ar   
    42   22   53 1    
    43   23   24 ar   
    44   23   54 1    
    45   24   25 ar   
    46   24   27 1    
    47   25   26 ar   
    48   25   55 1    
    49   26   56 1    
    50   28   29 am   BACKBONE|DICT|INTERRES
    51   28   57 1    
    52   29   30 2    
    53   29   31 1    
    54   31   36 ar   
    55   31   32 ar   
    56   32   33 ar   
    57   32   58 1    
    58   33   34 ar   
    59   33   59 1    
    60   34   35 ar   
    61   34   37 1    
    62   35   36 ar   
    63   35   60 1    
    64   36   61 1    
@<TRIPOS>SUBSTRUCTURE
     1 UNK         1 GROUP             0       ****    0 ROOT    
