@<TRIPOS>MOLECULE
ZINC16013194_2520
56   60    1
SMALL
USER_CHARGES


@<TRIPOS>ATOM
      1 C1          2.9602   54.2219   29.2216 C.3       1 UNK         0.0000 
      2 C2          2.3707   53.5719   27.9775 C.ar      1 UNK         0.0000 
      3 C3          2.7008   54.0965   26.7213 C.ar      1 UNK         0.0000 
      4 C4          2.1468   53.5630   25.5563 C.ar      1 UNK         0.0000 
      5 C5          1.2882   52.4678   25.6445 C.ar      1 UNK         0.0000 
      6 C6          1.0027   51.9158   26.8807 C.ar      1 UNK         0.0000 
      7 C7          1.5054   52.4638   28.0666 C.ar      1 UNK         0.0000 
      8 C8          1.1505   51.8550   29.4150 C.3       1 UNK         0.0000 
      9 N9          0.2669   50.7518   26.6976 N.am      1 UNK         0.0000 
     10 C10         0.0619   50.4587   25.4052 C.2       1 UNK         0.0000 
     11 O11        -0.4360   49.4266   24.9564 O.2       1 UNK         0.0000 
     12 C12         0.5252   51.7127   24.5891 C.3       1 UNK         0.0000 
     13 C13        -0.6388   52.5359   23.9153 C.3       1 UNK         0.0000 
     14 H14        -0.4167   53.6048   23.9262 H         1 UNK         0.0000 
     15 C15        -0.7127   52.0636   22.4854 C.3       1 UNK         0.0000 
     16 H16        -0.5426   52.8965   21.8049 H         1 UNK         0.0000 
     17 C17         0.3788   50.9872   22.3521 C.3       1 UNK         0.0000 
     18 H18        -0.0610   50.0070   22.5640 H         1 UNK         0.0000 
     19 N19         1.3128   51.2727   23.4340 N.3       1 UNK         0.0000 
     20 C20         0.9969   50.8777   20.9395 C.3       1 UNK         0.0000 
     21 C21         1.9037   49.6597   20.7260 C.2       1 UNK         0.0000 
     22 O22         2.2027   48.9042   21.6469 O.2       1 UNK         0.0000 
     23 N23         2.3561   49.4544   19.4929 N.am      1 UNK         0.0000 
     24 C24        -2.1162   51.4973   22.3305 C.2       1 UNK         0.0000 
     25 O25        -2.5509   50.9830   21.3000 O.2       1 UNK         0.0000 
     26 N26        -2.7685   51.6837   23.5045 N.am      1 UNK         0.0000 
     27 C27        -2.0575   52.3333   24.4560 C.2       1 UNK         0.0000 
     28 O28        -2.4407   52.6831   25.5726 O.2       1 UNK         0.0000 
     29 C29        -4.1148   51.1490   23.7601 C.3       1 UNK         0.0000 
     30 C30        -4.0765   49.6820   24.1776 C.ar      1 UNK         0.0000 
     31 C31        -4.4329   48.6880   23.2623 C.ar      1 UNK         0.0000 
     32 C32        -4.3542   47.3464   23.6295 C.ar      1 UNK         0.0000 
     33 C33        -3.9309   47.0021   24.9117 C.ar      1 UNK         0.0000 
     34 C34        -3.6060   47.9904   25.8383 C.ar      1 UNK         0.0000 
     35 C35        -3.6846   49.3325   25.4740 C.ar      1 UNK         0.0000 
     36 F36        -3.8281   45.6971   25.2542 F         1 UNK         0.0000 
     37 H37         2.1696   54.4498   29.9361 H         1 UNK         0.0000 
     38 H38         3.6658   53.5463   29.7045 H         1 UNK         0.0000 
     39 H39         3.4720   55.1581   28.9953 H         1 UNK         0.0000 
     40 H40         3.3722   54.9389   26.6431 H         1 UNK         0.0000 
     41 H41         2.3898   53.9992   24.5983 H         1 UNK         0.0000 
     42 H42         0.6475   50.8964   29.2896 H         1 UNK         0.0000 
     43 H43         2.0453   51.6856   30.0126 H         1 UNK         0.0000 
     44 H44         0.4956   52.5225   29.9750 H         1 UNK         0.0000 
     45 H45         0.0024   50.1112   27.4337 H         1 UNK         0.0000 
     46 H46         1.8814   50.4579   23.6380 H         1 UNK         0.0000 
     47 H47         0.1949   50.8234   20.2026 H         1 UNK         0.0000 
     48 H48         1.5676   51.7802   20.7164 H         1 UNK         0.0000 
     49 H49         2.1838   50.1119   18.7472 H         1 UNK         0.0000 
     50 H50         2.9795   48.6792   19.3222 H         1 UNK         0.0000 
     51 H51        -4.6112   51.7187   24.5480 H         1 UNK         0.0000 
     52 H52        -4.7396   51.2625   22.8735 H         1 UNK         0.0000 
     53 H53        -4.7415   48.9514   22.2605 H         1 UNK         0.0000 
     54 H54        -4.6101   46.5745   22.9199 H         1 UNK         0.0000 
     55 H55        -3.2752   47.7193   26.8321 H         1 UNK         0.0000 
     56 H56        -3.4064   50.0914   26.1924 H         1 UNK         0.0000 
@<TRIPOS>BOND
     1    1    2 1    
     2    1   37 1    
     3    1   38 1    
     4    1   39 1    
     5    2    7 ar   
     6    2    3 ar   
     7    3    4 ar   
     8    3   40 1    
     9    4    5 ar   
    10    4   41 1    
    11    5   12 1    
    12    5    6 ar   
    13    6    7 ar   
    14    6    9 1    
    15    7    8 1    
    16    8   42 1    
    17    8   43 1    
    18    8   44 1    
    19    9   10 am   BACKBONE|DICT|INTERRES
    20    9   45 1    
    21   10   11 2    
    22   10   12 1    
    23   12   19 1    
    24   12   13 1    
    25   13   14 1    
    26   13   27 1    
    27   13   15 1    
    28   15   16 1    
    29   15   17 1    
    30   15   24 1    
    31   17   18 1    
    32   17   19 1    
    33   17   20 1    
    34   19   46 1    
    35   20   21 1    
    36   20   47 1    
    37   20   48 1    
    38   21   22 2    
    39   21   23 am   BACKBONE|DICT|INTERRES
    40   23   49 1    
    41   23   50 1    
    42   24   25 2    
    43   24   26 am   BACKBONE|DICT|INTERRES
    44   26   27 am   BACKBONE|DICT|INTERRES
    45   26   29 1    
    46   27   28 2    
    47   29   30 1    
    48   29   51 1    
    49   29   52 1    
    50   30   35 ar   
    51   30   31 ar   
    52   31   32 ar   
    53   31   53 1    
    54   32   33 ar   
    55   32   54 1    
    56   33   34 ar   
    57   33   36 1    
    58   34   35 ar   
    59   34   55 1    
    60   35   56 1    
@<TRIPOS>SUBSTRUCTURE
     1 UNK         1 GROUP             0       ****    0 ROOT    
