@<TRIPOS>MOLECULE
ZINC13362272_5631
48   50    1
SMALL
USER_CHARGES


@<TRIPOS>ATOM
      1 C1          2.1608   53.5182   25.6040 C.ar      1 UNK         0.0000 
      2 C2          1.9041   53.6948   26.9605 C.ar      1 UNK         0.0000 
      3 C3          2.8986   54.1895   27.8072 C.ar      1 UNK         0.0000 
      4 C4          4.1574   54.4968   27.2833 C.ar      1 UNK         0.0000 
      5 C5          4.4126   54.3222   25.9263 C.ar      1 UNK         0.0000 
      6 C6          3.4189   53.8305   25.0731 C.ar      1 UNK         0.0000 
      7 C7          3.7643   53.6004   23.6519 C.2       1 UNK         0.0000 
      8 C8          2.9603   53.0441   22.7154 C.2       1 UNK         0.0000 
      9 C9          3.3957   52.7731   21.3397 C.2       1 UNK         0.0000 
     10 O10         4.4924   53.1923   20.9588 O.2       1 UNK         0.0000 
     11 C11         2.4865   52.0210   20.4017 C.ar      1 UNK         0.0000 
     12 C12         2.8136   51.9664   19.0363 C.ar      1 UNK         0.0000 
     13 C13         2.0046   51.2837   18.1332 C.ar      1 UNK         0.0000 
     14 C14         0.8469   50.6468   18.5797 C.ar      1 UNK         0.0000 
     15 C15         0.5173   50.6643   19.9354 C.ar      1 UNK         0.0000 
     16 C16         1.3347   51.3407   20.8392 C.ar      1 UNK         0.0000 
     17 S17        -0.2137   49.8305   17.3884 S.o2      1 UNK         0.0000 
     18 O18        -1.5210   49.5996   18.0128 O.2       1 UNK         0.0000 
     19 O19        -0.1106   50.5943   16.1398 O.2       1 UNK         0.0000 
     20 N20         0.5325   48.2523   17.0549 N.pl3     1 UNK         0.0000 
     21 C21         0.3181   47.0629   17.7706 C.ar      1 UNK         0.0000 
     22 C22         0.7453   45.8716   17.1794 C.ar      1 UNK         0.0000 
     23 C23         0.5474   44.6521   17.8248 C.ar      1 UNK         0.0000 
     24 C24        -0.0760   44.6022   19.0811 C.ar      1 UNK         0.0000 
     25 C25        -0.4969   45.8054   19.6705 C.ar      1 UNK         0.0000 
     26 C26        -0.2955   47.0220   19.0253 C.ar      1 UNK         0.0000 
     27 C27        -0.2709   43.2965   19.7943 C.2       1 UNK         0.0000 
     28 O28         0.1910   42.2464   19.2821 O.co2     1 UNK         0.0000 
     29 C29         2.6154   54.4009   29.2938 C.3       1 UNK         0.0000 
     30 F30         2.3049   55.6809   29.4994 F         1 UNK         0.0000 
     31 F31         1.5979   53.6520   29.7201 F         1 UNK         0.0000 
     32 F32         3.6840   54.0991   30.0338 F         1 UNK         0.0000 
     33 H33         1.3689   53.1234   24.9848 H         1 UNK         0.0000 
     34 H34         0.9246   53.4512   27.3446 H         1 UNK         0.0000 
     35 H35         4.9410   54.8769   27.9240 H         1 UNK         0.0000 
     36 H36         5.3948   54.5588   25.5432 H         1 UNK         0.0000 
     37 H37         4.7672   53.8960   23.3674 H         1 UNK         0.0000 
     38 H38         1.9551   52.7643   22.9713 H         1 UNK         0.0000 
     39 H39         3.7090   52.4400   18.6533 H         1 UNK         0.0000 
     40 H40         2.2796   51.2516   17.0867 H         1 UNK         0.0000 
     41 H41        -0.3729   50.1659   20.2929 H         1 UNK         0.0000 
     42 H42         1.0460   51.3038   21.8795 H         1 UNK         0.0000 
     43 H43         1.1508   48.2183   16.2593 H         1 UNK         0.0000 
     44 H44         1.2290   45.8857   16.2123 H         1 UNK         0.0000 
     45 H45         0.8861   43.7457   17.3403 H         1 UNK         0.0000 
     46 H46        -0.9707   45.8086   20.6426 H         1 UNK         0.0000 
     47 H47        -0.6222   47.9233   19.5167 H         1 UNK         0.0000 
     48 O48        -0.8955   43.2962   20.8810 O.co2     1 UNK         0.0000 
@<TRIPOS>BOND
     1    1    6 ar   
     2    1    2 ar   
     3    1   33 1    
     4    2    3 ar   
     5    2   34 1    
     6    3    4 ar   
     7    3   29 1    
     8    4    5 ar   
     9    4   35 1    
    10    5    6 ar   
    11    5   36 1    
    12    6    7 1    
    13    7    8 2    
    14    7   37 1    
    15    8    9 1    
    16    8   38 1    
    17    9   10 2    
    18    9   11 1    
    19   11   16 ar   
    20   11   12 ar   
    21   12   13 ar   
    22   12   39 1    
    23   13   14 ar   
    24   13   40 1    
    25   14   15 ar   
    26   14   17 1    
    27   15   16 ar   
    28   15   41 1    
    29   16   42 1    
    30   17   18 2    
    31   17   19 2    
    32   17   20 1    
    33   20   21 1    
    34   20   43 1    
    35   21   26 ar   
    36   21   22 ar   
    37   22   23 ar   
    38   22   44 1    
    39   23   24 ar   
    40   23   45 1    
    41   24   25 ar   
    42   24   27 1    
    43   25   26 ar   
    44   25   46 1    
    45   26   47 1    
    46   27   28 2    
    47   27   48 1    
    48   29   30 1    
    49   29   31 1    
    50   29   32 1    
@<TRIPOS>SUBSTRUCTURE
     1 UNK         1 GROUP             0       ****    0 ROOT    
