@<TRIPOS>MOLECULE
ZINC16293283_5388
69   72    1
SMALL
USER_CHARGES


@<TRIPOS>ATOM
      1 C1         -5.5787   50.9337   30.3601 C.3       1 UNK         0.0000 
      2 C2         -5.1258   51.0413   28.9154 C.ar      1 UNK         0.0000 
      3 C3         -5.9230   51.6989   27.9785 C.ar      1 UNK         0.0000 
      4 C4         -5.4964   51.8113   26.6572 C.ar      1 UNK         0.0000 
      5 C5         -4.2663   51.2734   26.2554 C.ar      1 UNK         0.0000 
      6 C6         -3.4870   50.5899   27.2019 C.ar      1 UNK         0.0000 
      7 C7         -3.9060   50.4917   28.5270 C.ar      1 UNK         0.0000 
      8 C8         -3.8691   51.3337   24.7921 C.2       1 UNK         0.0000 
      9 O9         -4.7615   51.1878   23.9511 O.2       1 UNK         0.0000 
     10 N10        -2.5648   51.5106   24.4333 N.am      1 UNK         0.0000 
     11 C11        -2.1754   51.3783   23.0166 C.3       1 UNK         0.0000 
     12 C12        -0.8672   50.5548   22.9486 C.3       1 UNK         0.0000 
     13 N13         0.2150   51.0923   23.7824 N.pl3     1 UNK         0.0000 
     14 C14        -0.2293   51.3120   25.1692 C.3       1 UNK         0.0000 
     15 C15        -1.5438   52.1182   25.3046 C.3       1 UNK         0.0000 
     16 C16         1.2415   51.8220   23.1970 C.ar      1 UNK         0.0000 
     17 C17         1.4570   53.1642   23.5293 C.ar      1 UNK         0.0000 
     18 C18         2.5155   53.8663   22.9613 C.ar      1 UNK         0.0000 
     19 C19         3.3861   53.2228   22.0774 C.ar      1 UNK         0.0000 
     20 C20         3.1345   51.9107   21.6795 C.ar      1 UNK         0.0000 
     21 C21         2.0610   51.2173   22.2350 C.ar      1 UNK         0.0000 
     22 N22         4.5346   53.8742   21.5931 N.pl3     1 UNK         0.0000 
     23 C23         5.5170   54.4936   22.3160 C.2       1 UNK         0.0000 
     24 S24         6.7022   55.3002   21.4604 S.2       1 UNK         0.0000 
     25 N25         5.4190   54.3477   23.6791 N.am      1 UNK         0.0000 
     26 C26         6.0509   54.9218   24.7322 C.2       1 UNK         0.0000 
     27 O27         7.0099   55.6936   24.6778 O.2       1 UNK         0.0000 
     28 C28         5.4809   54.5289   26.0727 C.ar      1 UNK         0.0000 
     29 C29         6.3102   54.4588   27.1956 C.ar      1 UNK         0.0000 
     30 C30         5.7878   54.0957   28.4332 C.ar      1 UNK         0.0000 
     31 C31         4.4314   53.7954   28.5698 C.ar      1 UNK         0.0000 
     32 C32         3.5754   53.8711   27.4610 C.ar      1 UNK         0.0000 
     33 C33         4.1150   54.2457   26.2330 C.ar      1 UNK         0.0000 
     34 O34         2.2155   53.6121   27.4443 O.3       1 UNK         0.0000 
     35 C35         1.4845   53.1125   28.5668 C.3       1 UNK         0.0000 
     36 C36         1.9323   51.7101   29.0197 C.3       1 UNK         0.0000 
     37 C37         1.3200   54.1493   29.6956 C.3       1 UNK         0.0000 
     38 H38        -4.7244   50.8889   31.0398 H         1 UNK         0.0000 
     39 H39        -6.1685   51.8063   30.6507 H         1 UNK         0.0000 
     40 H40        -6.1918   50.0412   30.5032 H         1 UNK         0.0000 
     41 H41        -6.8743   52.1194   28.2688 H         1 UNK         0.0000 
     42 H42        -6.1343   52.3152   25.9444 H         1 UNK         0.0000 
     43 H43        -2.5621   50.1056   26.9232 H         1 UNK         0.0000 
     44 H44        -3.2936   49.9539   29.2382 H         1 UNK         0.0000 
     45 H45        -1.9967   52.3679   22.5933 H         1 UNK         0.0000 
     46 H46        -2.9372   50.8876   22.4071 H         1 UNK         0.0000 
     47 H47        -0.5526   50.4790   21.9071 H         1 UNK         0.0000 
     48 H48        -1.0564   49.5395   23.3030 H         1 UNK         0.0000 
     49 H49        -0.3733   50.3210   25.6033 H         1 UNK         0.0000 
     50 H50         0.5609   51.7978   25.7446 H         1 UNK         0.0000 
     51 H51        -1.8328   52.2118   26.3498 H         1 UNK         0.0000 
     52 H52        -1.3576   53.1309   24.9503 H         1 UNK         0.0000 
     53 H53         0.8188   53.6653   24.2410 H         1 UNK         0.0000 
     54 H54         2.6782   54.8963   23.2385 H         1 UNK         0.0000 
     55 H55         3.7841   51.4162   20.9700 H         1 UNK         0.0000 
     56 H56         1.8914   50.1897   21.9467 H         1 UNK         0.0000 
     57 H57         4.6429   53.8798   20.5884 H         1 UNK         0.0000 
     58 H58         4.6903   53.7110   23.9617 H         1 UNK         0.0000 
     59 H59         7.3658   54.6787   27.1239 H         1 UNK         0.0000 
     60 H60         6.4512   54.0582   29.2814 H         1 UNK         0.0000 
     61 H61         4.0768   53.5140   29.5460 H         1 UNK         0.0000 
     62 H62         3.4364   54.3160   25.4004 H         1 UNK         0.0000 
     63 H63         0.4782   52.9700   28.1684 H         1 UNK         0.0000 
     64 H64         1.2871   51.3369   29.8147 H         1 UNK         0.0000 
     65 H65         2.9561   51.6761   29.3836 H         1 UNK         0.0000 
     66 H66         1.8602   51.0035   28.1909 H         1 UNK         0.0000 
     67 H67         0.7627   53.7332   30.5361 H         1 UNK         0.0000 
     68 H68         2.2646   54.5262   30.0789 H         1 UNK         0.0000 
     69 H69         0.7620   55.0131   29.3329 H         1 UNK         0.0000 
@<TRIPOS>BOND
     1    1    2 1    
     2    1   38 1    
     3    1   39 1    
     4    1   40 1    
     5    2    7 ar   
     6    2    3 ar   
     7    3    4 ar   
     8    3   41 1    
     9    4    5 ar   
    10    4   42 1    
    11    5    6 ar   
    12    5    8 1    
    13    6    7 ar   
    14    6   43 1    
    15    7   44 1    
    16    8    9 2    
    17    8   10 am   BACKBONE|DICT|INTERRES
    18   10   15 1    
    19   10   11 1    
    20   11   12 1    
    21   11   45 1    
    22   11   46 1    
    23   12   13 1    
    24   12   47 1    
    25   12   48 1    
    26   13   14 1    
    27   13   16 1    
    28   14   15 1    
    29   14   49 1    
    30   14   50 1    
    31   15   51 1    
    32   15   52 1    
    33   16   21 ar   
    34   16   17 ar   
    35   17   18 ar   
    36   17   53 1    
    37   18   19 ar   
    38   18   54 1    
    39   19   20 ar   
    40   19   22 1    
    41   20   21 ar   
    42   20   55 1    
    43   21   56 1    
    44   22   23 1    
    45   22   57 1    
    46   23   24 2    
    47   23   25 am   BACKBONE|DICT|INTERRES
    48   25   26 am   BACKBONE|DICT|INTERRES
    49   25   58 1    
    50   26   27 2    
    51   26   28 1    
    52   28   33 ar   
    53   28   29 ar   
    54   29   30 ar   
    55   29   59 1    
    56   30   31 ar   
    57   30   60 1    
    58   31   32 ar   
    59   31   61 1    
    60   32   33 ar   
    61   32   34 1    
    62   33   62 1    
    63   34   35 1    
    64   35   36 1    
    65   35   37 1    
    66   35   63 1    
    67   36   64 1    
    68   36   65 1    
    69   36   66 1    
    70   37   67 1    
    71   37   68 1    
    72   37   69 1    
@<TRIPOS>SUBSTRUCTURE
     1 UNK         1 GROUP             0       ****    0 ROOT    
