ZINC12754936_2704
                    3D
 Schrodinger Suite 2024-2.
 54 57  0  0  1  0            999 V2000
   -1.3550   50.2842   22.6487 C   0  0  0  0  0  0
   -1.2614   50.5151   24.1496 C   0  0  0  0  0  0
   -0.2292   49.8915   24.8617 C   0  0  0  0  0  0
   -0.0792   50.1158   26.2286 C   0  0  0  0  0  0
   -0.9583   50.9824   26.8808 C   0  0  0  0  0  0
   -2.0143   51.5653   26.1988 C   0  0  0  0  0  0
   -2.1687   51.3493   24.8336 C   0  0  0  0  0  0
   -3.5119   52.1758   23.9967 S   0  0  0  0  0  0
   -2.8954   53.2966   23.2817 O   0  0  0  0  0  0
   -4.2567   51.1357   23.2812 O   0  0  0  0  0  0
   -4.6054   52.8501   25.2042 N   0  0  0  0  0  0
   -4.3925   54.1879   25.7900 C   0  0  0  0  0  0
   -0.8228   51.2968   28.2249 N   0  0  0  0  0  0
   -0.0204   52.2231   28.7765 C   0  0  0  0  0  0
   -0.2040   52.5269   29.9533 O   0  0  0  0  0  0
    1.1012   52.7858   28.0245 C   0  0  0  0  0  0
    2.2097   53.3773   28.6395 C   0  0  0  0  0  0
    3.0704   53.7574   27.6113 C   0  0  0  0  0  0
    2.3956   53.4829   26.4343 N   0  0  0  0  0  0
    1.2109   52.8997   26.7151 N   0  0  0  0  0  0
    2.7743   53.6933   25.0686 C   0  0  0  0  0  0
    4.1055   53.9688   24.7140 C   0  0  0  0  0  0
    4.4787   54.0967   23.3814 C   0  0  0  0  0  0
    3.5262   53.9657   22.3817 C   0  0  0  0  0  0
    2.1993   53.7012   22.7054 C   0  0  0  0  0  0
    1.8211   53.5717   24.0396 C   0  0  0  0  0  0
    3.9032   54.0907   21.0901 F   0  0  0  0  0  0
    4.4418   54.4056   27.8164 C   0  0  0  0  0  0
    4.6308   54.7630   29.3069 C   0  0  0  0  0  0
    4.0866   53.6658   30.2375 C   0  0  0  0  0  0
    2.5699   53.5272   30.1036 C   0  0  0  0  0  0
   -2.2322   49.6827   22.4086 H   0  0  0  0  0  0
   -1.4473   51.2345   22.1231 H   0  0  0  0  0  0
   -0.4702   49.7847   22.2536 H   0  0  0  0  0  0
    0.4680   49.2355   24.3599 H   0  0  0  0  0  0
    0.7223   49.6367   26.7720 H   0  0  0  0  0  0
   -2.6900   52.2013   26.7457 H   0  0  0  0  0  0
   -5.4653   52.3385   25.4221 H   0  0  0  0  0  0
   -4.2095   54.9173   25.0003 H   0  0  0  0  0  0
   -5.2779   54.4794   26.3541 H   0  0  0  0  0  0
   -3.5492   54.1716   26.4793 H   0  0  0  0  0  0
   -1.4712   50.8283   28.8447 H   0  0  0  0  0  0
    4.9008   54.0295   25.4320 H   0  0  0  0  0  0
    5.5089   54.2886   23.1196 H   0  0  0  0  0  0
    1.4688   53.6022   21.9160 H   0  0  0  0  0  0
    0.7831   53.3590   24.2569 H   0  0  0  0  0  0
    5.2231   53.6930   27.5479 H   0  0  0  0  0  0
    4.5754   55.2965   27.2039 H   0  0  0  0  0  0
    4.1096   55.6963   29.5186 H   0  0  0  0  0  0
    5.6865   54.9466   29.5128 H   0  0  0  0  0  0
    4.3048   53.8717   31.2803 H   0  0  0  0  0  0
    4.5729   52.7146   30.0082 H   0  0  0  0  0  0
    2.0539   54.4083   30.4829 H   0  0  0  0  0  0
    2.2252   52.6818   30.7002 H   0  0  0  0  0  0
  1  2  1  0  0  0
  1 32  1  0  0  0
  1 33  1  0  0  0
  1 34  1  0  0  0
  2  7  2  0  0  0
  2  3  1  0  0  0
  3  4  2  0  0  0
  3 35  1  0  0  0
  4  5  1  0  0  0
  4 36  1  0  0  0
  5  6  2  0  0  0
  5 13  1  0  0  0
  6  7  1  0  0  0
  6 37  1  0  0  0
  7  8  1  0  0  0
  8  9  2  0  0  0
  8 10  2  0  0  0
  8 11  1  0  0  0
 11 12  1  0  0  0
 11 38  1  0  0  0
 12 39  1  0  0  0
 12 40  1  0  0  0
 12 41  1  0  0  0
 13 14  1  0  0  0
 13 42  1  0  0  0
 14 15  2  0  0  0
 14 16  1  0  0  0
 16 20  2  0  0  0
 16 17  1  0  0  0
 17 31  1  0  0  0
 17 18  2  0  0  0
 18 19  1  0  0  0
 18 28  1  0  0  0
 19 20  1  0  0  0
 19 21  1  0  0  0
 21 26  2  0  0  0
 21 22  1  0  0  0
 22 23  2  0  0  0
 22 43  1  0  0  0
 23 24  1  0  0  0
 23 44  1  0  0  0
 24 25  2  0  0  0
 24 27  1  0  0  0
 25 26  1  0  0  0
 25 45  1  0  0  0
 26 46  1  0  0  0
 28 29  1  0  0  0
 28 47  1  0  0  0
 28 48  1  0  0  0
 29 30  1  0  0  0
 29 49  1  0  0  0
 29 50  1  0  0  0
 30 31  1  0  0  0
 30 51  1  0  0  0
 30 52  1  0  0  0
 31 53  1  0  0  0
 31 54  1  0  0  0
M  END
> <i_i_glide_confnum>
127

> <i_i_glide_lignum>
2705

> <i_i_glide_posenum>
348

> <i_i_glide_rotatable_bonds>
6

> <i_m_Source_File_Index>
2980

> <b_m_subgroup_collapsed>
0

> <r_i_docking_score>
0.383193

> <r_i_glide_ecoul>
-1.91821

> <r_i_glide_eff_state_penalty>
0

> <r_i_glide_einternal>
4.11229

> <r_i_glide_emodel>
-22.9315

> <r_i_glide_energy>
-40.9162

> <r_i_glide_erotb>
0.510282

> <r_i_glide_esite>
-0.102913

> <r_i_glide_evdw>
-38.998

> <r_i_glide_gscore>
0.383193

> <r_i_glide_hbond>
0

> <r_i_glide_ligand_efficiency>
0.0123611

> <r_i_glide_ligand_efficiency_ln>
0.0864217

> <r_i_glide_ligand_efficiency_sa>
0.0388308

> <r_i_glide_lipo>
-2.32541

> <r_i_glide_metal>
0

> <r_i_glide_rewards>
4.53887

> <s_i_glide_gridfile>
wee1_glide-grid

> <s_m_Source_File>
wee1_decoys_glide_SP.sdf

> <s_m_Source_Path>
/Users/zhangxujun/Desktop

> <s_m_entry_id>
3255

> <s_m_entry_name>
wee1_decoys_glide_SP.2980

> <s_m_subgroup_title>
wee1_decoys_glide_SP

> <s_m_subgroupid>
wee1_decoys_glide_SP


$$$$
