ZINC16098442_17
                    3D
 Schrodinger Suite 2024-2.
 54 56  0  0  1  0            999 V2000
    1.1495   56.6770   31.0949 C   0  0  0  0  0  0
    1.4852   55.6456   30.0486 C   0  0  0  0  0  0
    2.5614   55.8592   29.2054 C   0  0  0  0  0  0
    2.9299   54.9004   28.2685 C   0  0  0  0  0  0
    2.2065   53.7169   28.1538 C   0  0  0  0  0  0
    1.1003   53.4986   28.9966 C   0  0  0  0  0  0
    0.7499   54.4692   29.9438 C   0  0  0  0  0  0
    0.1644   51.9703   28.9951 S   0  0  0  0  0  0
    1.0977   50.8967   28.6572 O   0  0  0  0  0  0
   -0.5769   51.9394   30.2576 O   0  0  0  0  0  0
   -1.0632   52.0921   27.7197 N   0  0  0  0  0  0
   -0.9269   51.6363   26.4032 C   0  0  0  0  0  0
   -0.2965   50.4298   26.0807 C   0  0  0  0  0  0
   -0.2021   50.0204   24.7536 C   0  0  0  0  0  0
   -0.7607   50.8121   23.7454 C   0  0  0  0  0  0
   -1.4554   51.9792   24.0716 C   0  0  0  0  0  0
   -1.5365   52.3848   25.3984 C   0  0  0  0  0  0
   -0.6058   50.3397   22.0229 S   0  0  0  0  0  0
   -0.4378   48.8835   22.0783 O   0  0  0  0  0  0
   -1.8965   50.7685   21.4686 O   0  0  0  0  0  0
    0.7891   51.2431   21.3736 N   0  0  0  0  0  0
    1.6655   51.9797   21.9395 C   0  0  0  0  0  0
    1.9683   52.3498   23.4052 C   0  0  0  0  0  0
    2.3966   53.7981   23.7136 C   0  0  0  0  0  0
    3.8842   54.0550   23.4822 C   0  0  0  0  0  0
    4.2537   54.1333   22.0012 C   0  0  0  0  0  0
    3.9948   52.8516   21.1849 C   0  0  0  0  0  0
    2.5837   52.4981   21.0424 N   0  0  0  0  0  0
    2.6884   52.6985   27.1430 C   0  0  0  0  0  0
    0.1883   57.1312   30.8816 H   0  0  0  0  0  0
    1.1043   56.2022   32.0725 H   0  0  0  0  0  0
    1.9028   57.4650   31.1573 H   0  0  0  0  0  0
    3.1050   56.7841   29.2871 H   0  0  0  0  0  0
    3.7867   55.0850   27.6357 H   0  0  0  0  0  0
   -0.0815   54.3096   30.6167 H   0  0  0  0  0  0
   -1.9247   52.5495   27.9718 H   0  0  0  0  0  0
    0.0943   49.7845   26.8538 H   0  0  0  0  0  0
    0.3047   49.0947   24.5170 H   0  0  0  0  0  0
   -1.9132   52.5795   23.2999 H   0  0  0  0  0  0
   -2.0767   53.2862   25.6427 H   0  0  0  0  0  0
    1.1106   52.2228   24.0322 H   0  0  0  0  0  0
    2.7043   51.6563   23.8066 H   0  0  0  0  0  0
    1.7945   54.5018   23.1326 H   0  0  0  0  0  0
    2.1549   54.0302   24.7515 H   0  0  0  0  0  0
    4.4859   53.2953   23.9774 H   0  0  0  0  0  0
    4.1653   54.9730   23.9815 H   0  0  0  0  0  0
    5.2963   54.4385   21.8994 H   0  0  0  0  0  0
    3.6670   54.9345   21.5616 H   0  0  0  0  0  0
    4.4791   52.0081   21.6773 H   0  0  0  0  0  0
    4.4596   52.9263   20.1993 H   0  0  0  0  0  0
    2.3755   52.1979   20.1042 H   0  0  0  0  0  0
    1.8663   52.3394   26.5261 H   0  0  0  0  0  0
    3.4539   53.0947   26.4760 H   0  0  0  0  0  0
    3.1134   51.8536   27.6802 H   0  0  0  0  0  0
  1  2  1  0  0  0
  1 30  1  0  0  0
  1 31  1  0  0  0
  1 32  1  0  0  0
  2  7  2  0  0  0
  2  3  1  0  0  0
  3  4  2  0  0  0
  3 33  1  0  0  0
  4  5  1  0  0  0
  4 34  1  0  0  0
  5  6  2  0  0  0
  5 29  1  0  0  0
  6  7  1  0  0  0
  6  8  1  0  0  0
  7 35  1  0  0  0
  8  9  2  0  0  0
  8 10  2  0  0  0
  8 11  1  0  0  0
 11 12  1  0  0  0
 11 36  1  0  0  0
 12 17  2  0  0  0
 12 13  1  0  0  0
 13 14  2  0  0  0
 13 37  1  0  0  0
 14 15  1  0  0  0
 14 38  1  0  0  0
 15 16  2  0  0  0
 15 18  1  0  0  0
 16 17  1  0  0  0
 16 39  1  0  0  0
 17 40  1  0  0  0
 18 19  2  0  0  0
 18 20  2  0  0  0
 18 21  1  0  0  0
 21 22  2  0  0  0
 22 28  1  0  0  0
 22 23  1  0  0  0
 23 24  1  0  0  0
 23 41  1  0  0  0
 23 42  1  0  0  0
 24 25  1  0  0  0
 24 43  1  0  0  0
 24 44  1  0  0  0
 25 26  1  0  0  0
 25 45  1  0  0  0
 25 46  1  0  0  0
 26 27  1  0  0  0
 26 47  1  0  0  0
 26 48  1  0  0  0
 27 28  1  0  0  0
 27 49  1  0  0  0
 27 50  1  0  0  0
 28 51  1  0  0  0
 29 52  1  0  0  0
 29 53  1  0  0  0
 29 54  1  0  0  0
M  END
> <i_i_glide_confnum>
151

> <i_i_glide_lignum>
18

> <i_i_glide_posenum>
285

> <i_i_glide_rotatable_bonds>
5

> <i_m_Source_File_Index>
1097

> <b_m_subgroup_collapsed>
0

> <r_i_docking_score>
-4.79226

> <r_i_glide_ecoul>
-1.11566

> <r_i_glide_eff_state_penalty>
0

> <r_i_glide_einternal>
4.07748

> <r_i_glide_emodel>
-42.0594

> <r_i_glide_energy>
-33.9266

> <r_i_glide_erotb>
0.525141

> <r_i_glide_esite>
-0.154452

> <r_i_glide_evdw>
-32.8109

> <r_i_glide_gscore>
-4.79226

> <r_i_glide_hbond>
0

> <r_i_glide_ligand_efficiency>
-0.16525

> <r_i_glide_ligand_efficiency_ln>
-1.09731

> <r_i_glide_ligand_efficiency_sa>
-0.507701

> <r_i_glide_lipo>
-2.79155

> <r_i_glide_metal>
0

> <r_i_glide_rewards>
-0.563508

> <s_i_glide_gridfile>
wee1_glide-grid

> <s_m_Source_File>
wee1_decoys_glide_SP.sdf

> <s_m_Source_Path>
/Users/zhangxujun/Desktop

> <s_m_entry_id>
1372

> <s_m_entry_name>
wee1_decoys_glide_SP.1097

> <s_m_subgroup_title>
wee1_decoys_glide_SP

> <s_m_subgroupid>
wee1_decoys_glide_SP


$$$$
