@<TRIPOS>MOLECULE
ZINC58948814_750
72   75    1
SMALL
USER_CHARGES


@<TRIPOS>ATOM
      1 C1          6.4902   54.5332   24.8224 C.3       1 UNK         0.0000 
      2 C2          5.4519   54.3575   25.9133 C.ar      1 UNK         0.0000 
      3 C3          4.1045   54.2639   25.5635 C.ar      1 UNK         0.0000 
      4 C4          3.1405   54.1069   26.5526 C.ar      1 UNK         0.0000 
      5 C5          3.5270   54.0432   27.8920 C.ar      1 UNK         0.0000 
      6 C6          4.8754   54.1222   28.2466 C.ar      1 UNK         0.0000 
      7 C7          5.8398   54.2777   27.2542 C.ar      1 UNK         0.0000 
      8 S8          2.2709   53.9096   29.1579 S.o2      1 UNK         0.0000 
      9 O9          2.8999   53.2890   30.3306 O.2       1 UNK         0.0000 
     10 O10         1.6608   55.2407   29.2614 O.2       1 UNK         0.0000 
     11 N11         1.0779   52.7823   28.4929 N.pl3     1 UNK         0.0000 
     12 C12         1.3549   51.3398   28.4550 C.3       1 UNK         0.0000 
     13 C13         0.8923   50.7733   27.0931 C.3       1 UNK         0.0000 
     14 C14        -0.6082   51.0923   26.8162 C.3       1 UNK         0.0000 
     15 C15        -0.8752   52.6120   26.9969 C.3       1 UNK         0.0000 
     16 C16        -0.3426   53.1511   28.3441 C.3       1 UNK         0.0000 
     17 C17        -0.9996   50.6549   25.3773 C.2       1 UNK         0.0000 
     18 O18        -1.7812   51.3340   24.7034 O.2       1 UNK         0.0000 
     19 N19        -0.5071   49.4886   24.9180 N.am      1 UNK         0.0000 
     20 C20        -0.7050   48.9768   23.5619 C.3       1 UNK         0.0000 
     21 C21         0.1013   49.7183   22.4959 C.ar      1 UNK         0.0000 
     22 C22         1.4327   49.3684   22.2717 C.ar      1 UNK         0.0000 
     23 C23         2.1541   49.9793   21.2516 C.ar      1 UNK         0.0000 
     24 C24         1.5515   50.9478   20.4479 C.ar      1 UNK         0.0000 
     25 C25         0.2198   51.3072   20.6732 C.ar      1 UNK         0.0000 
     26 C26        -0.5052   50.6909   21.6932 C.ar      1 UNK         0.0000 
     27 C27         2.3315   51.5486   19.2821 C.3       1 UNK         0.0000 
     28 N28         3.0352   52.8967   19.5831 N.4       1 UNK         0.0000 
     29 C29         4.0474   52.7571   20.7484 C.3       1 UNK         0.0000 
     30 C30         4.6989   54.1285   21.0138 C.3       1 UNK         0.0000 
     31 C31         5.3688   54.6887   19.7489 C.3       1 UNK         0.0000 
     32 C32         4.3678   54.7876   18.5773 C.3       1 UNK         0.0000 
     33 H33         3.5657   55.4603   18.8834 H         1 UNK         0.0000 
     34 C34         3.7371   53.4026   18.2967 C.3       1 UNK         0.0000 
     35 C35         5.0251   55.3696   17.3160 C.3       1 UNK         0.0000 
     36 H36         6.3713   55.5015   24.3319 H         1 UNK         0.0000 
     37 H37         6.3693   53.7570   24.0655 H         1 UNK         0.0000 
     38 H38         7.5045   54.4596   25.2115 H         1 UNK         0.0000 
     39 H39         3.8024   54.3201   24.5277 H         1 UNK         0.0000 
     40 H40         2.0964   54.0622   26.2777 H         1 UNK         0.0000 
     41 H41         5.1770   54.0785   29.2830 H         1 UNK         0.0000 
     42 H42         6.8817   54.3416   27.5356 H         1 UNK         0.0000 
     43 H43         2.4165   51.1713   28.6343 H         1 UNK         0.0000 
     44 H44         0.7968   50.8962   29.2773 H         1 UNK         0.0000 
     45 H45         1.5039   51.2978   26.3621 H         1 UNK         0.0000 
     46 H46         1.0943   49.7027   27.0778 H         1 UNK         0.0000 
     47 H47        -1.2391   50.4969   27.4780 H         1 UNK         0.0000 
     48 H48        -1.9394   52.8468   26.9314 H         1 UNK         0.0000 
     49 H49        -0.2999   53.1342   26.2346 H         1 UNK         0.0000 
     50 H50        -0.8943   52.6969   29.1670 H         1 UNK         0.0000 
     51 H51        -0.4513   54.2308   28.4209 H         1 UNK         0.0000 
     52 H52         0.0642   48.9344   25.5410 H         1 UNK         0.0000 
     53 H53        -0.4133   47.9257   23.5571 H         1 UNK         0.0000 
     54 H54        -1.7677   48.9825   23.3030 H         1 UNK         0.0000 
     55 H55         1.9056   48.6133   22.8803 H         1 UNK         0.0000 
     56 H56         3.1801   49.6944   21.0804 H         1 UNK         0.0000 
     57 H57        -0.2586   52.0504   20.0519 H         1 UNK         0.0000 
     58 H58        -1.5364   50.9648   21.8587 H         1 UNK         0.0000 
     59 H59         3.1145   50.8691   18.9330 H         1 UNK         0.0000 
     60 H60         1.6695   51.7501   18.4380 H         1 UNK         0.0000 
     61 H61         3.4858   52.4383   21.6271 H         1 UNK         0.0000 
     62 H62         4.7684   51.9885   20.4620 H         1 UNK         0.0000 
     63 H63         3.9480   54.8289   21.3829 H         1 UNK         0.0000 
     64 H64         5.4384   54.0326   21.8083 H         1 UNK         0.0000 
     65 H65         5.8059   55.6684   19.9473 H         1 UNK         0.0000 
     66 H66         6.2129   54.0590   19.4613 H         1 UNK         0.0000 
     67 H67         4.4680   52.6493   17.9895 H         1 UNK         0.0000 
     68 H68         2.9674   53.4879   17.5272 H         1 UNK         0.0000 
     69 H69         5.8375   54.7356   16.9585 H         1 UNK         0.0000 
     70 H70         4.3049   55.4709   16.5032 H         1 UNK         0.0000 
     71 H71         5.4387   56.3606   17.5064 H         1 UNK         0.0000 
     72 H72         2.3290   53.5777   19.8446 H         1 UNK         0.0000 
@<TRIPOS>BOND
     1    1    2 1    
     2    1   36 1    
     3    1   37 1    
     4    1   38 1    
     5    2    7 ar   
     6    2    3 ar   
     7    3    4 ar   
     8    3   39 1    
     9    4    5 ar   
    10    4   40 1    
    11    5    6 ar   
    12    5    8 1    
    13    6    7 ar   
    14    6   41 1    
    15    7   42 1    
    16    8    9 2    
    17    8   10 2    
    18    8   11 1    
    19   11   16 1    
    20   11   12 1    
    21   12   13 1    
    22   12   43 1    
    23   12   44 1    
    24   13   14 1    
    25   13   45 1    
    26   13   46 1    
    27   14   15 1    
    28   14   17 1    
    29   14   47 1    
    30   15   16 1    
    31   15   48 1    
    32   15   49 1    
    33   16   50 1    
    34   16   51 1    
    35   17   18 2    
    36   17   19 am   BACKBONE|DICT|INTERRES
    37   19   20 1    
    38   19   52 1    
    39   20   21 1    
    40   20   53 1    
    41   20   54 1    
    42   21   26 ar   
    43   21   22 ar   
    44   22   23 ar   
    45   22   55 1    
    46   23   24 ar   
    47   23   56 1    
    48   24   25 ar   
    49   24   27 1    
    50   25   26 ar   
    51   25   57 1    
    52   26   58 1    
    53   27   28 1    
    54   27   59 1    
    55   27   60 1    
    56   28   34 1    
    57   28   29 1    
    58   28   72 1    
    59   29   30 1    
    60   29   61 1    
    61   29   62 1    
    62   30   31 1    
    63   30   63 1    
    64   30   64 1    
    65   31   32 1    
    66   31   65 1    
    67   31   66 1    
    68   32   33 1    
    69   32   34 1    
    70   32   35 1    
    71   34   67 1    
    72   34   68 1    
    73   35   69 1    
    74   35   70 1    
    75   35   71 1    
@<TRIPOS>SUBSTRUCTURE
     1 UNK         1 GROUP             0       ****    0 ROOT    
