@<TRIPOS>MOLECULE
ZINC09104403_2798
53   57    1
SMALL
USER_CHARGES


@<TRIPOS>ATOM
      1 C1          1.0341   50.2577   23.8103 C.3       1 UNK         0.0000 
      2 S2          1.8782   51.1622   22.4815 S.3       1 UNK         0.0000 
      3 C3          1.7071   50.2774   20.9366 C.ar      1 UNK         0.0000 
      4 C4          1.0368   49.0484   20.9196 C.ar      1 UNK         0.0000 
      5 C5          0.8134   48.3704   19.7218 C.ar      1 UNK         0.0000 
      6 C6          1.2431   48.9222   18.5192 C.ar      1 UNK         0.0000 
      7 C7          1.9034   50.1480   18.5140 C.ar      1 UNK         0.0000 
      8 C8          2.1643   50.8210   19.7116 C.ar      1 UNK         0.0000 
      9 N9          2.8482   52.0423   19.5992 N.am      1 UNK         0.0000 
     10 C10         4.0084   52.3389   20.2165 C.2       1 UNK         0.0000 
     11 O11         4.6569   51.5256   20.8841 O.2       1 UNK         0.0000 
     12 C12         4.5138   53.7943   20.0688 C.3       1 UNK         0.0000 
     13 H13         3.6523   54.4119   19.8065 H         1 UNK         0.0000 
     14 C14         5.6046   53.8643   18.9608 C.3       1 UNK         0.0000 
     15 C15         6.3579   55.2129   18.9670 C.3       1 UNK         0.0000 
     16 C16         7.1620   55.4465   20.2695 C.3       1 UNK         0.0000 
     17 C17         6.3030   55.0389   21.4569 C.2       1 UNK         0.0000 
     18 C18         5.1068   54.3119   21.3877 C.2       1 UNK         0.0000 
     19 N19         4.5126   54.0940   22.5485 N.2       1 UNK         0.0000 
     20 C20         5.2263   54.4925   23.5618 C.2       1 UNK         0.0000 
     21 S21         6.7044   55.2964   23.1297 S.3       1 UNK         0.0000 
     22 N22         4.7703   54.2610   24.8439 N.am      1 UNK         0.0000 
     23 C23         5.3836   54.4969   26.0207 C.2       1 UNK         0.0000 
     24 O24         6.5075   54.9951   26.1395 O.2       1 UNK         0.0000 
     25 C25         4.5683   54.1188   27.2419 C.ar      1 UNK         0.0000 
     26 C26         5.0251   54.4956   28.5234 C.ar      1 UNK         0.0000 
     27 C27         4.2967   54.1892   29.6779 C.ar      1 UNK         0.0000 
     28 C28         3.1065   53.4914   29.5286 C.ar      1 UNK         0.0000 
     29 C29         2.6510   53.1102   28.3021 C.ar      1 UNK         0.0000 
     30 C30         3.3516   53.4003   27.1392 C.ar      1 UNK         0.0000 
     31 O31         1.4882   52.4215   28.4471 O.3       1 UNK         0.0000 
     32 C32         1.1103   52.6135   29.7837 C.3       1 UNK         0.0000 
     33 O33         2.2449   53.0528   30.4822 O.3       1 UNK         0.0000 
     34 H34         1.0967   50.8220   24.7403 H         1 UNK         0.0000 
     35 H35        -0.0198   50.1112   23.5730 H         1 UNK         0.0000 
     36 H36         1.5024   49.2882   23.9750 H         1 UNK         0.0000 
     37 H37         0.6689   48.6080   21.8311 H         1 UNK         0.0000 
     38 H38         0.2982   47.4217   19.7253 H         1 UNK         0.0000 
     39 H39         1.0755   48.4002   17.5887 H         1 UNK         0.0000 
     40 H40         2.2588   50.5434   17.5723 H         1 UNK         0.0000 
     41 H41         2.6545   52.5839   18.7727 H         1 UNK         0.0000 
     42 H42         5.1495   53.6971   17.9833 H         1 UNK         0.0000 
     43 H43         6.3307   53.0576   19.0830 H         1 UNK         0.0000 
     44 H44         5.6386   56.0227   18.8304 H         1 UNK         0.0000 
     45 H45         7.0312   55.2670   18.1102 H         1 UNK         0.0000 
     46 H46         7.4607   56.4927   20.3365 H         1 UNK         0.0000 
     47 H47         8.0769   54.8557   20.2398 H         1 UNK         0.0000 
     48 H48         3.8735   53.8061   24.8908 H         1 UNK         0.0000 
     49 H49         5.9502   55.0436   28.6355 H         1 UNK         0.0000 
     50 H50         4.6706   54.4947   30.6398 H         1 UNK         0.0000 
     51 H51         2.9536   53.0595   26.1956 H         1 UNK         0.0000 
     52 H52         0.3373   53.3836   29.8315 H         1 UNK         0.0000 
     53 H53         0.7067   51.6968   30.2146 H         1 UNK         0.0000 
@<TRIPOS>BOND
     1    1    2 1    
     2    1   34 1    
     3    1   35 1    
     4    1   36 1    
     5    2    3 1    
     6    3    8 ar   
     7    3    4 ar   
     8    4    5 ar   
     9    4   37 1    
    10    5    6 ar   
    11    5   38 1    
    12    6    7 ar   
    13    6   39 1    
    14    7    8 ar   
    15    7   40 1    
    16    8    9 1    
    17    9   10 am   BACKBONE|DICT|INTERRES
    18    9   41 1    
    19   10   11 2    
    20   10   12 1    
    21   12   13 1    
    22   12   18 1    
    23   12   14 1    
    24   14   15 1    
    25   14   42 1    
    26   14   43 1    
    27   15   16 1    
    28   15   44 1    
    29   15   45 1    
    30   16   17 1    
    31   16   46 1    
    32   16   47 1    
    33   17   21 1    
    34   17   18 2    
    35   18   19 1    
    36   19   20 2    
    37   20   21 1    
    38   20   22 am   BACKBONE|DICT|INTERRES
    39   22   23 am   BACKBONE|DICT|INTERRES
    40   22   48 1    
    41   23   24 2    
    42   23   25 1    
    43   25   30 ar   
    44   25   26 ar   
    45   26   27 ar   
    46   26   49 1    
    47   27   28 ar   
    48   27   50 1    
    49   28   33 1    
    50   28   29 ar   
    51   29   30 ar   
    52   29   31 1    
    53   30   51 1    
    54   31   32 1    
    55   32   33 1    
    56   32   52 1    
    57   32   53 1    
@<TRIPOS>SUBSTRUCTURE
     1 UNK         1 GROUP             0       ****    0 ROOT    
