@<TRIPOS>MOLECULE
ZINC44729768_4734
40   42    1
SMALL
USER_CHARGES


@<TRIPOS>ATOM
      1 C1          1.2973   56.8407   30.8814 C.3       1 UNK         0.0000 
      2 C2          1.5001   55.5782   30.0857 C.2       1 UNK         0.0000 
      3 C3          2.3496   55.1961   29.0720 C.2       1 UNK         0.0000 
      4 C4          2.1145   53.8456   28.7750 C.2       1 UNK         0.0000 
      5 C5          1.0879   53.4733   29.6477 C.2       1 UNK         0.0000 
      6 O6          0.7194   54.5255   30.4222 O.3       1 UNK         0.0000 
      7 C7          0.3316   52.1899   29.9036 C.3       1 UNK         0.0000 
      8 C8          2.8411   52.9878   27.7502 C.3       1 UNK         0.0000 
      9 H9          2.6457   51.9413   27.9742 H         1 UNK         0.0000 
     10 C10         4.3623   53.1832   27.8829 C.3       1 UNK         0.0000 
     11 N11         2.3978   53.2952   26.3908 N.pl3     1 UNK         0.0000 
     12 C12         1.3001   52.6794   25.7473 C.ar      1 UNK         0.0000 
     13 C13         0.5532   51.6568   26.3615 C.ar      1 UNK         0.0000 
     14 C14        -0.5085   51.0663   25.6823 C.ar      1 UNK         0.0000 
     15 C15        -0.8536   51.4715   24.4132 C.ar      1 UNK         0.0000 
     16 C16        -0.1364   52.4849   23.7816 C.ar      1 UNK         0.0000 
     17 C17         0.9459   53.0840   24.4356 C.ar      1 UNK         0.0000 
     18 N18         1.6583   54.0655   23.7309 N.pl3     1 UNK         0.0000 
     19 C19        -2.0171   50.6457   23.9631 C.3       1 UNK         0.0000 
     20 C20        -2.2529   49.7022   25.1410 C.2       1 UNK         0.0000 
     21 O21        -3.1055   48.8189   25.1915 O.2       1 UNK         0.0000 
     22 N22        -1.3490   50.0333   26.0815 N.am      1 UNK         0.0000 
     23 H23         1.9046   57.6679   30.5257 H         1 UNK         0.0000 
     24 H24         1.5065   56.6975   31.9398 H         1 UNK         0.0000 
     25 H25         0.2736   57.1784   30.8321 H         1 UNK         0.0000 
     26 H26         3.0891   55.8233   28.6052 H         1 UNK         0.0000 
     27 H27         0.9266   51.3060   29.6777 H         1 UNK         0.0000 
     28 H28         0.0166   52.0998   30.9444 H         1 UNK         0.0000 
     29 H29        -0.5732   52.1324   29.2976 H         1 UNK         0.0000 
     30 H30         4.6986   52.9949   28.9029 H         1 UNK         0.0000 
     31 H31         4.9062   52.4986   27.2329 H         1 UNK         0.0000 
     32 H32         4.6703   54.1950   27.6181 H         1 UNK         0.0000 
     33 H33         2.6416   54.2126   26.0484 H         1 UNK         0.0000 
     34 H34         0.7918   51.2990   27.3477 H         1 UNK         0.0000 
     35 H35        -0.4013   52.7918   22.7812 H         1 UNK         0.0000 
     36 H36         1.4708   54.1783   22.7436 H         1 UNK         0.0000 
     37 H37         2.5576   54.3486   24.0896 H         1 UNK         0.0000 
     38 H38        -2.9098   51.2457   23.7908 H         1 UNK         0.0000 
     39 H39        -1.7857   50.0663   23.0702 H         1 UNK         0.0000 
     40 H40        -1.2961   49.5284   26.9672 H         1 UNK         0.0000 
@<TRIPOS>BOND
     1    1    2 1    
     2    1   23 1    
     3    1   24 1    
     4    1   25 1    
     5    2    6 1    
     6    2    3 2    
     7    3    4 1    
     8    3   26 1    
     9    4    5 2    
    10    4    8 1    
    11    5    6 1    
    12    5    7 1    
    13    7   27 1    
    14    7   28 1    
    15    7   29 1    
    16    8    9 1    
    17    8   10 1    
    18    8   11 1    
    19   10   30 1    
    20   10   31 1    
    21   10   32 1    
    22   11   12 1    
    23   11   33 1    
    24   12   17 ar   
    25   12   13 ar   
    26   13   14 ar   
    27   13   34 1    
    28   14   22 1    
    29   14   15 ar   
    30   15   16 ar   
    31   15   19 1    
    32   16   17 ar   
    33   16   35 1    
    34   17   18 1    
    35   18   36 1    
    36   18   37 1    
    37   19   20 1    
    38   19   38 1    
    39   19   39 1    
    40   20   21 2    
    41   20   22 am   BACKBONE|DICT|INTERRES
    42   22   40 1    
@<TRIPOS>SUBSTRUCTURE
     1 UNK         1 GROUP             0       ****    0 ROOT    
