@<TRIPOS>MOLECULE
ZINC04387637_4667
34   35    1
SMALL
USER_CHARGES


@<TRIPOS>ATOM
      1 C1          1.6166   53.8010   23.5947 C.3       1 UNK         0.0000 
      2 C2          1.9260   52.5023   22.8784 C.2       1 UNK         0.0000 
      3 C3          2.6591   52.4597   21.6819 C.2       1 UNK         0.0000 
      4 C4          2.8014   51.1949   21.1476 C.2       1 UNK         0.0000 
      5 S5          1.9889   50.0191   22.1060 S.3       1 UNK         0.0000 
      6 C6          1.4511   51.2259   23.2489 C.2       1 UNK         0.0000 
      7 C7          0.5977   50.7689   24.4334 C.3       1 UNK         0.0000 
      8 H8          1.0287   49.8172   24.7553 H         1 UNK         0.0000 
      9 C9         -0.9131   50.5177   24.1325 C.3       1 UNK         0.0000 
     10 H10        -0.9682   49.7088   23.4036 H         1 UNK         0.0000 
     11 C11        -1.6547   50.0168   25.4265 C.3       1 UNK         0.0000 
     12 N12        -1.2581   50.8912   26.5529 N.am      1 UNK         0.0000 
     13 C13        -0.0772   51.5310   26.7160 C.2       1 UNK         0.0000 
     14 O14         0.2881   51.9578   27.8058 O.2       1 UNK         0.0000 
     15 N15         0.7040   51.6344   25.6189 N.am      1 UNK         0.0000 
     16 C16        -3.2100   49.8597   25.3052 C.3       1 UNK         0.0000 
     17 F17        -3.8432   51.0303   25.2130 F         1 UNK         0.0000 
     18 F18        -3.7333   49.2476   26.3704 F         1 UNK         0.0000 
     19 F19        -3.5531   49.1438   24.2312 F         1 UNK         0.0000 
     20 O20        -1.1646   48.7058   25.6817 O.3       1 UNK         0.0000 
     21 C21        -1.5739   51.7346   23.4353 C.2       1 UNK         0.0000 
     22 O22        -1.8701   52.7663   24.0362 O.2       1 UNK         0.0000 
     23 C23        -1.8657   51.6011   21.9471 C.3       1 UNK         0.0000 
     24 H24         1.6851   54.6622   22.9293 H         1 UNK         0.0000 
     25 H25         0.6008   53.8213   23.9875 H         1 UNK         0.0000 
     26 H26         2.2856   53.9699   24.4385 H         1 UNK         0.0000 
     27 H27         3.0807   53.3401   21.2181 H         1 UNK         0.0000 
     28 H28         3.3219   50.9070   20.2435 H         1 UNK         0.0000 
     29 H29        -1.7583   50.7416   27.4175 H         1 UNK         0.0000 
     30 H30         1.5833   52.1033   25.7712 H         1 UNK         0.0000 
     31 H31        -1.2917   48.5020   26.6282 H         1 UNK         0.0000 
     32 H32        -2.5139   50.7449   21.7626 H         1 UNK         0.0000 
     33 H33        -2.3666   52.4960   21.5821 H         1 UNK         0.0000 
     34 H34        -0.9366   51.4775   21.3909 H         1 UNK         0.0000 
@<TRIPOS>BOND
     1    1    2 1    
     2    1   24 1    
     3    1   25 1    
     4    1   26 1    
     5    2    6 2    
     6    2    3 1    
     7    3    4 2    
     8    3   27 1    
     9    4    5 1    
    10    4   28 1    
    11    5    6 1    
    12    6    7 1    
    13    7    8 1    
    14    7   15 1    
    15    7    9 1    
    16    9   10 1    
    17    9   11 1    
    18    9   21 1    
    19   11   12 1    
    20   11   16 1    
    21   11   20 1    
    22   12   13 am   BACKBONE|DICT|INTERRES
    23   12   29 1    
    24   13   14 2    
    25   13   15 am   BACKBONE|DICT|INTERRES
    26   15   30 1    
    27   16   17 1    
    28   16   18 1    
    29   16   19 1    
    30   20   31 1    
    31   21   22 2    
    32   21   23 1    
    33   23   32 1    
    34   23   33 1    
    35   23   34 1    
@<TRIPOS>SUBSTRUCTURE
     1 UNK         1 GROUP             0       ****    0 ROOT    
