ZINC58715811_2573
                    3D
 Schrodinger Suite 2024-2.
 50 51  0  0  1  0            999 V2000
    5.1782   54.4908   27.7721 C   0  0  0  0  0  0
    4.8454   54.3505   26.2971 C   0  0  0  0  0  0
    5.8469   54.4962   25.3389 C   0  0  0  0  0  0
    5.5605   54.3750   23.9765 C   0  0  0  0  0  0
    4.2356   54.0968   23.5657 C   0  0  0  0  0  0
    3.2156   53.9942   24.5317 C   0  0  0  0  0  0
    3.5341   54.1051   25.8890 C   0  0  0  0  0  0
    1.7636   53.7429   24.1385 C   0  0  0  0  0  0
    3.8832   53.9821   22.2076 N   0  0  0  0  0  0
    4.3690   53.0667   21.3461 C   0  0  0  0  0  0
    5.1046   52.1353   21.6807 O   0  0  0  0  0  0
    3.8804   53.1902   19.8962 C   0  0  0  0  0  0
    4.9633   52.8967   18.9570 N   0  0  0  0  0  0
    5.8478   53.7976   18.5170 C   0  0  0  0  0  0
    5.9208   54.9525   18.9388 O   0  0  0  0  0  0
    6.5598   53.3053   17.4913 N   0  0  0  0  0  0
    7.1856   54.0760   16.4084 C   0  0  1  0  0  0
    7.6467   53.3271   15.7614 H   0  0  0  0  0  0
    6.1354   54.7854   15.5221 C   0  0  0  0  0  0
    8.3218   54.9975   16.8766 C   0  0  0  0  0  0
    9.6329   54.5060   16.9135 C   0  0  0  0  0  0
   10.6907   55.3365   17.2818 C   0  0  0  0  0  0
   10.4479   56.6657   17.6270 C   0  0  0  0  0  0
    9.1490   57.1685   17.5955 C   0  0  0  0  0  0
    8.0932   56.3415   17.2114 C   0  0  0  0  0  0
    8.8176   58.9807   18.0789 Br  0  0  0  0  0  0
    6.7041   54.6152   22.9963 C   0  0  0  0  0  0
    5.9866   55.2075   27.9241 H   0  0  0  0  0  0
    5.4831   53.5299   28.1879 H   0  0  0  0  0  0
    4.3222   54.8644   28.3355 H   0  0  0  0  0  0
    6.8585   54.7043   25.6545 H   0  0  0  0  0  0
    2.7572   54.0069   26.6336 H   0  0  0  0  0  0
    1.3898   54.5641   23.5268 H   0  0  0  0  0  0
    1.6887   52.8308   23.5453 H   0  0  0  0  0  0
    1.1094   53.6334   25.0038 H   0  0  0  0  0  0
    3.1944   54.6337   21.8621 H   0  0  0  0  0  0
    3.0575   52.4947   19.7321 H   0  0  0  0  0  0
    3.5041   54.1948   19.6988 H   0  0  0  0  0  0
    5.0875   51.9216   18.6764 H   0  0  0  0  0  0
    6.5966   52.2994   17.4014 H   0  0  0  0  0  0
    6.6065   55.2956   14.6816 H   0  0  0  0  0  0
    5.4248   54.0673   15.1105 H   0  0  0  0  0  0
    5.5557   55.5226   16.0783 H   0  0  0  0  0  0
    9.8376   53.4769   16.6554 H   0  0  0  0  0  0
   11.6971   54.9461   17.3196 H   0  0  0  0  0  0
   11.2670   57.2999   17.9317 H   0  0  0  0  0  0
    7.0933   56.7482   17.1960 H   0  0  0  0  0  0
    6.3589   54.9495   22.0182 H   0  0  0  0  0  0
    7.3597   55.4061   23.3615 H   0  0  0  0  0  0
    7.2999   53.7101   22.8816 H   0  0  0  0  0  0
  1  2  1  0  0  0
  1 28  1  0  0  0
  1 29  1  0  0  0
  1 30  1  0  0  0
  2  7  2  0  0  0
  2  3  1  0  0  0
  3  4  2  0  0  0
  3 31  1  0  0  0
  4  5  1  0  0  0
  4 27  1  0  0  0
  5  6  2  0  0  0
  5  9  1  0  0  0
  6  7  1  0  0  0
  6  8  1  0  0  0
  7 32  1  0  0  0
  8 33  1  0  0  0
  8 34  1  0  0  0
  8 35  1  0  0  0
  9 10  1  0  0  0
  9 36  1  0  0  0
 10 11  2  0  0  0
 10 12  1  0  0  0
 12 13  1  0  0  0
 12 37  1  0  0  0
 12 38  1  0  0  0
 13 14  1  0  0  0
 13 39  1  0  0  0
 14 15  2  0  0  0
 14 16  1  0  0  0
 16 17  1  0  0  0
 16 40  1  0  0  0
 17 18  1  0  0  0
 17 19  1  0  0  0
 17 20  1  0  0  0
 19 41  1  0  0  0
 19 42  1  0  0  0
 19 43  1  0  0  0
 20 25  2  0  0  0
 20 21  1  0  0  0
 21 22  2  0  0  0
 21 44  1  0  0  0
 22 23  1  0  0  0
 22 45  1  0  0  0
 23 24  2  0  0  0
 23 46  1  0  0  0
 24 25  1  0  0  0
 24 26  1  0  0  0
 25 47  1  0  0  0
 27 48  1  0  0  0
 27 49  1  0  0  0
 27 50  1  0  0  0
M  END
> <i_i_glide_confnum>
85

> <i_i_glide_lignum>
2574

> <i_i_glide_posenum>
58

> <i_i_glide_rotatable_bonds>
8

> <i_m_Source_File_Index>
3014

> <b_m_subgroup_collapsed>
0

> <r_i_docking_score>
-5.52171

> <r_i_glide_ecoul>
-7.49995

> <r_i_glide_eff_state_penalty>
0

> <r_i_glide_einternal>
9.33857

> <r_i_glide_emodel>
-53.8743

> <r_i_glide_energy>
-41.2576

> <r_i_glide_erotb>
0.79094

> <r_i_glide_esite>
-0.177816

> <r_i_glide_evdw>
-33.7577

> <r_i_glide_gscore>
-5.52171

> <r_i_glide_hbond>
-0.186787

> <r_i_glide_ligand_efficiency>
-0.212373

> <r_i_glide_ligand_efficiency_ln>
-1.29676

> <r_i_glide_ligand_efficiency_sa>
-0.629156

> <r_i_glide_lipo>
-2.43081

> <r_i_glide_metal>
0

> <r_i_glide_rewards>
-0.704362

> <s_i_glide_gridfile>
wee1_glide-grid

> <s_m_Source_File>
wee1_decoys_glide_SP.sdf

> <s_m_Source_Path>
/Users/zhangxujun/Desktop

> <s_m_entry_id>
3289

> <s_m_entry_name>
wee1_decoys_glide_SP.3014

> <s_m_subgroup_title>
wee1_decoys_glide_SP

> <s_m_subgroupid>
wee1_decoys_glide_SP


$$$$
