ZINC66606841_5876
                    3D
 Schrodinger Suite 2024-2.
 52 55  0  0  1  0            999 V2000
    6.8206   54.8970   21.9142 C   0  0  0  0  0  0
    5.7257   54.9812   21.0620 C   0  0  0  0  0  0
    4.4856   54.5135   21.4876 C   0  0  0  0  0  0
    4.3055   53.9956   22.7801 C   0  0  0  0  0  0
    5.4613   53.7651   23.5410 C   0  0  0  0  0  0
    6.7027   54.2402   23.1328 C   0  0  0  0  0  0
    2.8823   53.6909   23.2473 C   0  0  0  0  0  0
    2.0245   53.5899   22.3703 O   0  0  0  0  0  0
    2.5077   53.5042   24.5559 N   0  0  0  0  0  0
    3.2861   53.7341   25.7950 C   0  0  1  0  0  0
    3.9687   52.8944   25.8338 H   0  0  0  0  0  0
    4.1583   54.9711   26.0796 C   0  0  0  0  0  0
    4.9305   54.7318   27.4125 C   0  0  0  0  0  0
    4.0232   54.3247   28.6052 C   0  0  0  0  0  0
    3.0339   53.1954   28.2256 C   0  0  0  0  0  0
    2.2796   53.6101   26.9515 C   0  0  2  0  0  0
    1.8466   54.5936   27.1421 H   0  0  0  0  0  0
    1.1864   52.7169   26.4258 C   0  0  0  0  0  0
    1.1384   52.9996   24.9146 C   0  0  2  0  0  0
    0.3861   53.7610   24.7140 H   0  0  0  0  0  0
    0.5989   51.7254   24.1991 C   0  0  0  0  0  0
   -0.6205   51.5777   24.0997 O   0  0  0  0  0  0
    1.5042   50.8319   23.7460 N   0  0  0  0  0  0
    1.1724   49.8021   22.8400 N   0  0  0  0  0  0
    1.2397   50.0842   21.4668 C   0  0  0  0  0  0
    0.5677   51.1770   20.9050 C   0  0  0  0  0  0
    0.6653   51.4403   19.5434 C   0  0  0  0  0  0
    1.4282   50.6054   18.7329 C   0  0  0  0  0  0
    2.0966   49.5132   19.2759 C   0  0  0  0  0  0
    1.9964   49.2489   20.6411 C   0  0  0  0  0  0
    1.5104   50.8590   17.4082 F   0  0  0  0  0  0
    7.7822   55.2779   21.5996 H   0  0  0  0  0  0
    5.8278   55.4319   20.0852 H   0  0  0  0  0  0
    3.6413   54.6361   20.8216 H   0  0  0  0  0  0
    5.4327   53.2864   24.4994 H   0  0  0  0  0  0
    7.5659   54.0975   23.7653 H   0  0  0  0  0  0
    4.8760   55.2393   25.3176 H   0  0  0  0  0  0
    3.5073   55.8390   26.0820 H   0  0  0  0  0  0
    5.6547   53.9318   27.2508 H   0  0  0  0  0  0
    5.5326   55.6019   27.6748 H   0  0  0  0  0  0
    4.6370   54.0162   29.4541 H   0  0  0  0  0  0
    3.4607   55.1987   28.9391 H   0  0  0  0  0  0
    2.3223   53.0157   29.0333 H   0  0  0  0  0  0
    3.5394   52.2386   28.0832 H   0  0  0  0  0  0
    0.2272   52.8151   26.9374 H   0  0  0  0  0  0
    1.5046   51.6938   26.5983 H   0  0  0  0  0  0
    2.4921   51.0362   23.7715 H   0  0  0  0  0  0
    1.6727   48.9700   23.1279 H   0  0  0  0  0  0
   -0.0275   51.8349   21.5188 H   0  0  0  0  0  0
    0.1557   52.2907   19.1162 H   0  0  0  0  0  0
    2.6997   48.8837   18.6363 H   0  0  0  0  0  0
    2.5299   48.4047   21.0522 H   0  0  0  0  0  0
  1  6  2  0  0  0
  1  2  1  0  0  0
  1 32  1  0  0  0
  2  3  2  0  0  0
  2 33  1  0  0  0
  3  4  1  0  0  0
  3 34  1  0  0  0
  4  5  2  0  0  0
  4  7  1  0  0  0
  5  6  1  0  0  0
  5 35  1  0  0  0
  6 36  1  0  0  0
  7  8  2  0  0  0
  7  9  1  0  0  0
  9 19  1  0  0  0
  9 10  1  0  0  0
 10 11  1  0  0  0
 10 16  1  0  0  0
 10 12  1  0  0  0
 12 13  1  0  0  0
 12 37  1  0  0  0
 12 38  1  0  0  0
 13 14  1  0  0  0
 13 39  1  0  0  0
 13 40  1  0  0  0
 14 15  1  0  0  0
 14 41  1  0  0  0
 14 42  1  0  0  0
 15 16  1  0  0  0
 15 43  1  0  0  0
 15 44  1  0  0  0
 16 17  1  0  0  0
 16 18  1  0  0  0
 18 19  1  0  0  0
 18 45  1  0  0  0
 18 46  1  0  0  0
 19 20  1  0  0  0
 19 21  1  0  0  0
 21 22  2  0  0  0
 21 23  1  0  0  0
 23 24  1  0  0  0
 23 47  1  0  0  0
 24 25  1  0  0  0
 24 48  1  0  0  0
 25 30  2  0  0  0
 25 26  1  0  0  0
 26 27  2  0  0  0
 26 49  1  0  0  0
 27 28  1  0  0  0
 27 50  1  0  0  0
 28 29  2  0  0  0
 28 31  1  0  0  0
 29 30  1  0  0  0
 29 51  1  0  0  0
 30 52  1  0  0  0
M  END
> <i_i_glide_confnum>
10

> <i_i_glide_lignum>
5877

> <i_i_glide_posenum>
161

> <i_i_glide_rotatable_bonds>
6

> <i_m_Source_File_Index>
4541

> <b_m_subgroup_collapsed>
0

> <r_i_docking_score>
-5.12412

> <r_i_glide_ecoul>
-0.722776

> <r_i_glide_eff_state_penalty>
0

> <r_i_glide_einternal>
6.5345

> <r_i_glide_emodel>
-43.2205

> <r_i_glide_energy>
-35.2228

> <r_i_glide_erotb>
0.667054

> <r_i_glide_esite>
-0.0609727

> <r_i_glide_evdw>
-34.5

> <r_i_glide_gscore>
-5.12412

> <r_i_glide_hbond>
-0.0638124

> <r_i_glide_ligand_efficiency>
-0.183004

> <r_i_glide_ligand_efficiency_ln>
-1.1828

> <r_i_glide_ligand_efficiency_sa>
-0.555709

> <r_i_glide_lipo>
-2.87753

> <r_i_glide_metal>
0

> <r_i_glide_rewards>
-0.955442

> <s_i_glide_gridfile>
wee1_glide-grid

> <s_m_Source_File>
wee1_decoys_glide_SP.sdf

> <s_m_Source_Path>
/Users/zhangxujun/Desktop

> <s_m_entry_id>
4816

> <s_m_entry_name>
wee1_decoys_glide_SP.4541

> <s_m_subgroup_title>
wee1_decoys_glide_SP

> <s_m_subgroupid>
wee1_decoys_glide_SP


$$$$
