@<TRIPOS>MOLECULE
ZINC39992580_950
56   59    1
SMALL
USER_CHARGES


@<TRIPOS>ATOM
      1 C1         -4.1843   50.2800   29.5354 C.ar      1 UNK         0.0000 
      2 C2         -5.0571   50.5495   30.5848 C.ar      1 UNK         0.0000 
      3 C3         -6.2009   51.3079   30.3463 C.ar      1 UNK         0.0000 
      4 C4         -6.4896   51.7698   29.0640 C.ar      1 UNK         0.0000 
      5 C5         -5.6086   51.5034   28.0181 C.ar      1 UNK         0.0000 
      6 C6         -4.4368   50.7740   28.2522 C.ar      1 UNK         0.0000 
      7 C7         -3.4299   50.5104   27.2008 C.2       1 UNK         0.0000 
      8 C8         -3.0510   51.3333   26.1917 C.2       1 UNK         0.0000 
      9 C9         -3.5900   52.6474   26.0054 C.1       1 UNK         0.0000 
     10 N10        -4.0686   53.6898   25.8375 N.1       1 UNK         0.0000 
     11 C11        -2.0510   50.8739   25.2428 C.2       1 UNK         0.0000 
     12 O12        -2.0071   49.7018   24.8727 O.2       1 UNK         0.0000 
     13 N13        -1.1812   51.8275   24.8321 N.am      1 UNK         0.0000 
     14 C14        -0.1797   51.6866   23.8651 C.2       1 UNK         0.0000 
     15 C15         1.0616   52.3636   23.7998 C.2       1 UNK         0.0000 
     16 C16         1.6962   52.1715   22.5371 C.2       1 UNK         0.0000 
     17 C17         1.0233   51.2334   21.7390 C.2       1 UNK         0.0000 
     18 S18        -0.4350   50.6741   22.4680 S.3       1 UNK         0.0000 
     19 C19         1.5157   50.6863   20.4057 C.3       1 UNK         0.0000 
     20 C20         2.6128   51.6106   19.8445 C.3       1 UNK         0.0000 
     21 C21         3.6493   51.9755   20.9191 C.3       1 UNK         0.0000 
     22 C22         3.0211   52.7976   22.0674 C.3       1 UNK         0.0000 
     23 C23         1.5944   53.2422   24.8312 C.2       1 UNK         0.0000 
     24 O24         2.2974   54.2135   24.5551 O.2       1 UNK         0.0000 
     25 N25         1.2966   52.8831   26.0949 N.am      1 UNK         0.0000 
     26 C26         1.7436   53.5694   27.3116 C.3       1 UNK         0.0000 
     27 C27         3.1825   53.2023   27.7445 C.3       1 UNK         0.0000 
     28 H28         3.3587   52.1272   27.7490 H         1 UNK         0.0000 
     29 C29         4.3079   54.0200   27.0853 C.3       1 UNK         0.0000 
     30 C30         5.2462   54.3309   28.2243 C.3       1 UNK         0.0000 
     31 C31         4.2551   54.5872   29.3421 C.3       1 UNK         0.0000 
     32 O32         3.2614   53.5914   29.1260 O.3       1 UNK         0.0000 
     33 Br33       -7.3681   51.7307   31.7883 Br        1 UNK         0.0000 
     34 H34        -3.2956   49.6972   29.7286 H         1 UNK         0.0000 
     35 H35        -4.8329   50.1862   31.5792 H         1 UNK         0.0000 
     36 H36        -7.3891   52.3411   28.8858 H         1 UNK         0.0000 
     37 H37        -5.8498   51.8675   27.0307 H         1 UNK         0.0000 
     38 H38        -2.9662   49.5331   27.2770 H         1 UNK         0.0000 
     39 H39        -1.1600   52.6829   25.3659 H         1 UNK         0.0000 
     40 H40         1.9315   49.6884   20.5520 H         1 UNK         0.0000 
     41 H41         0.7015   50.5886   19.6868 H         1 UNK         0.0000 
     42 H42         3.1010   51.1247   18.9984 H         1 UNK         0.0000 
     43 H43         2.1639   52.5228   19.4467 H         1 UNK         0.0000 
     44 H44         4.0973   51.0635   21.3155 H         1 UNK         0.0000 
     45 H45         4.4676   52.5407   20.4682 H         1 UNK         0.0000 
     46 H46         2.8297   53.8159   21.7247 H         1 UNK         0.0000 
     47 H47         3.7413   52.8987   22.8799 H         1 UNK         0.0000 
     48 H48         0.7812   52.0247   26.2277 H         1 UNK         0.0000 
     49 H49         1.6528   54.6478   27.1909 H         1 UNK         0.0000 
     50 H50         1.0468   53.3107   28.1102 H         1 UNK         0.0000 
     51 H51         4.7918   53.4742   26.2734 H         1 UNK         0.0000 
     52 H52         3.9288   54.9577   26.6734 H         1 UNK         0.0000 
     53 H53         5.8759   53.4716   28.4598 H         1 UNK         0.0000 
     54 H54         5.8928   55.1883   28.0307 H         1 UNK         0.0000 
     55 H55         4.7004   54.4961   30.3310 H         1 UNK         0.0000 
     56 H56         3.7962   55.5743   29.2718 H         1 UNK         0.0000 
@<TRIPOS>BOND
     1    1    6 ar   
     2    1    2 ar   
     3    1   34 1    
     4    2    3 ar   
     5    2   35 1    
     6    3    4 ar   
     7    3   33 1    
     8    4    5 ar   
     9    4   36 1    
    10    5    6 ar   
    11    5   37 1    
    12    6    7 1    
    13    7    8 2    
    14    7   38 1    
    15    8    9 1    
    16    8   11 1    
    17    9   10 3    
    18   11   12 2    
    19   11   13 am   BACKBONE|DICT|INTERRES
    20   13   14 am   BACKBONE|DICT|INTERRES
    21   13   39 1    
    22   14   18 1    
    23   14   15 2    
    24   15   16 1    
    25   15   23 1    
    26   16   22 1    
    27   16   17 2    
    28   17   18 1    
    29   17   19 1    
    30   19   20 1    
    31   19   40 1    
    32   19   41 1    
    33   20   21 1    
    34   20   42 1    
    35   20   43 1    
    36   21   22 1    
    37   21   44 1    
    38   21   45 1    
    39   22   46 1    
    40   22   47 1    
    41   23   24 2    
    42   23   25 am   BACKBONE|DICT|INTERRES
    43   25   26 1    
    44   25   48 1    
    45   26   27 1    
    46   26   49 1    
    47   26   50 1    
    48   27   28 1    
    49   27   32 1    
    50   27   29 1    
    51   29   30 1    
    52   29   51 1    
    53   29   52 1    
    54   30   31 1    
    55   30   53 1    
    56   30   54 1    
    57   31   32 1    
    58   31   55 1    
    59   31   56 1    
@<TRIPOS>SUBSTRUCTURE
     1 UNK         1 GROUP             0       ****    0 ROOT    
