@<TRIPOS>MOLECULE
ZINC13416068_553
52   56    1
SMALL
USER_CHARGES


@<TRIPOS>ATOM
      1 C1         -1.1615   47.8586   19.4180 C.3       1 UNK         0.0000 
      2 C2         -1.2667   47.8371   20.9270 C.2       1 UNK         0.0000 
      3 C3         -1.6964   46.8801   21.8653 C.2       1 UNK         0.0000 
      4 C4         -1.5247   47.5077   23.1275 C.ar      1 UNK         0.0000 
      5 C5         -1.7361   47.1413   24.5410 C.ar      1 UNK         0.0000 
      6 O6         -2.1661   46.0969   25.0212 O.2       1 UNK         0.0000 
      7 N7         -1.3602   48.1680   25.3695 N.pl3     1 UNK         0.0000 
      8 H8         -1.4544   47.9699   26.3608 H         1 UNK         0.0000 
      9 C9         -0.8540   49.4063   25.0201 C.ar      1 UNK         0.0000 
     10 N10        -0.6585   49.7184   23.7804 N.2       1 UNK         0.0000 
     11 C11        -0.9994   48.7681   22.8679 C.ar      1 UNK         0.0000 
     12 O12        -0.8380   48.9689   21.5446 O.3       1 UNK         0.0000 
     13 C13        -0.5210   50.3593   26.1616 C.3       1 UNK         0.0000 
     14 S14        -0.9302   52.0962   25.7694 S.3       1 UNK         0.0000 
     15 C15         0.7042   52.6965   25.2959 C.ar      1 UNK         0.0000 
     16 N16         0.9389   52.6456   24.0365 N.2       1 UNK         0.0000 
     17 C17         2.1379   53.0940   23.6030 C.ar      1 UNK         0.0000 
     18 C18         3.1321   53.6446   24.4011 C.ar      1 UNK         0.0000 
     19 C19         4.2548   54.0584   23.6448 C.2       1 UNK         0.0000 
     20 C20         4.0833   53.7696   22.2776 C.2       1 UNK         0.0000 
     21 S21         2.5817   52.9689   21.9482 S.3       1 UNK         0.0000 
     22 C22         5.1026   54.0236   21.1799 C.3       1 UNK         0.0000 
     23 C23         6.2311   54.9361   21.7112 C.3       1 UNK         0.0000 
     24 C24         6.6820   54.5588   23.1364 C.3       1 UNK         0.0000 
     25 C25         5.5538   54.6558   24.1904 C.3       1 UNK         0.0000 
     26 C26         2.9085   53.7006   25.8524 C.ar      1 UNK         0.0000 
     27 O27         3.7205   54.1378   26.6733 O.2       1 UNK         0.0000 
     28 N28         1.6408   53.2221   26.1994 N.pl3     1 UNK         0.0000 
     29 C29         1.2595   53.4180   27.6270 C.3       1 UNK         0.0000 
     30 C30         1.1303   52.1454   28.4440 C.2       1 UNK         0.0000 
     31 C31         0.0215   51.8219   29.1299 C.2       1 UNK         0.0000 
     32 C32        -2.1876   45.5250   21.5647 C.2       1 UNK         0.0000 
     33 O33        -2.7597   44.8968   22.4813 O.co2     1 UNK         0.0000 
     34 O34        -1.9826   45.0747   20.4153 O.co2     1 UNK         0.0000 
     35 H35        -2.0067   47.3538   18.9486 H         1 UNK         0.0000 
     36 H36        -1.1355   48.8755   19.0228 H         1 UNK         0.0000 
     37 H37        -0.2562   47.3539   19.0775 H         1 UNK         0.0000 
     38 H38         0.5301   50.2446   26.4239 H         1 UNK         0.0000 
     39 H39        -1.0918   50.0970   27.0507 H         1 UNK         0.0000 
     40 H40         4.6356   54.4846   20.3078 H         1 UNK         0.0000 
     41 H41         5.5054   53.0656   20.8510 H         1 UNK         0.0000 
     42 H42         5.9043   55.9751   21.6827 H         1 UNK         0.0000 
     43 H43         7.0836   54.8957   21.0324 H         1 UNK         0.0000 
     44 H44         7.5041   55.2039   23.4394 H         1 UNK         0.0000 
     45 H45         7.0798   53.5424   23.1250 H         1 UNK         0.0000 
     46 H46         5.8672   54.1454   25.1025 H         1 UNK         0.0000 
     47 H47         5.4015   55.6955   24.4827 H         1 UNK         0.0000 
     48 H48         1.9764   54.0418   28.1640 H         1 UNK         0.0000 
     49 H49         0.3231   53.9732   27.6830 H         1 UNK         0.0000 
     50 H50         1.9819   51.4801   28.4514 H         1 UNK         0.0000 
     51 H51        -0.0552   50.8974   29.6814 H         1 UNK         0.0000 
     52 H52        -0.8417   52.4708   29.1422 H         1 UNK         0.0000 
@<TRIPOS>BOND
     1    1    2 1    
     2    1   35 1    
     3    1   36 1    
     4    1   37 1    
     5    2   12 1    
     6    2    3 2    
     7    3    4 1    
     8    3   32 1    
     9    4   11 ar   
    10    4    5 ar   
    11    5    6 2    
    12    5    7 ar   
    13    7    8 1    
    14    7    9 ar   
    15    9   10 ar   
    16    9   13 1    
    17   10   11 ar   
    18   11   12 1    
    19   13   14 1    
    20   13   38 1    
    21   13   39 1    
    22   14   15 1    
    23   15   28 ar   
    24   15   16 ar   
    25   16   17 ar   
    26   17   21 1    
    27   17   18 ar   
    28   18   19 1    
    29   18   26 ar   
    30   19   25 1    
    31   19   20 2    
    32   20   21 1    
    33   20   22 1    
    34   22   23 1    
    35   22   40 1    
    36   22   41 1    
    37   23   24 1    
    38   23   42 1    
    39   23   43 1    
    40   24   25 1    
    41   24   44 1    
    42   24   45 1    
    43   25   46 1    
    44   25   47 1    
    45   26   27 2    
    46   26   28 ar   
    47   28   29 1    
    48   29   30 1    
    49   29   48 1    
    50   29   49 1    
    51   30   31 2    
    52   30   50 1    
    53   31   51 1    
    54   31   52 1    
    55   32   33 2    
    56   32   34 1    
@<TRIPOS>SUBSTRUCTURE
     1 UNK         1 GROUP             0       ****    0 ROOT    
