@<TRIPOS>MOLECULE
ZINC34857286_4068
59   62    1
SMALL
USER_CHARGES


@<TRIPOS>ATOM
      1 C1         -4.8819   51.9017   26.8914 C.ar      1 UNK         0.0000 
      2 C2         -6.1332   52.4971   26.7731 C.ar      1 UNK         0.0000 
      3 C3         -6.3801   53.4299   25.7589 C.ar      1 UNK         0.0000 
      4 C4         -5.3422   53.7735   24.8822 C.ar      1 UNK         0.0000 
      5 C5         -4.0831   53.1929   25.0135 C.ar      1 UNK         0.0000 
      6 C6         -3.8527   52.2335   26.0065 C.ar      1 UNK         0.0000 
      7 C7         -2.5119   51.5595   26.1717 C.2       1 UNK         0.0000 
      8 O8         -1.9269   51.6959   27.2471 O.2       1 UNK         0.0000 
      9 N9         -2.0493   50.7539   25.1757 N.am      1 UNK         0.0000 
     10 C10        -0.8134   49.9698   25.3687 C.3       1 UNK         0.0000 
     11 C11         0.2944   50.6436   24.5275 C.3       1 UNK         0.0000 
     12 C12        -0.1141   50.8343   23.0400 C.3       1 UNK         0.0000 
     13 C13        -1.5122   51.4907   22.9264 C.3       1 UNK         0.0000 
     14 C14        -2.5599   50.7419   23.7926 C.3       1 UNK         0.0000 
     15 N15         0.9330   51.7156   22.3428 N.4       1 UNK         0.0000 
     16 C16         2.1107   50.8191   21.9117 C.3       1 UNK         0.0000 
     17 H17         2.5967   50.4865   22.8314 H         1 UNK         0.0000 
     18 C18         1.4725   49.6429   21.1668 C.3       1 UNK         0.0000 
     19 S19        -0.0401   49.2832   22.0978 S.3       1 UNK         0.0000 
     20 C20         3.2005   51.5254   21.0850 C.2       1 UNK         0.0000 
     21 O21         4.2481   50.9207   20.8817 O.2       1 UNK         0.0000 
     22 N22         2.9943   52.7925   20.6757 N.am      1 UNK         0.0000 
     23 C23         3.9784   53.6629   20.0268 C.3       1 UNK         0.0000 
     24 C24         5.3301   53.8800   20.7475 C.3       1 UNK         0.0000 
     25 C25         5.3950   54.3119   22.2290 C.ar      1 UNK         0.0000 
     26 C26         4.3441   54.0964   23.1398 C.ar      1 UNK         0.0000 
     27 C27         4.4917   54.3680   24.4994 C.ar      1 UNK         0.0000 
     28 C28         5.6849   54.8983   24.9736 C.ar      1 UNK         0.0000 
     29 C29         6.7040   55.1950   24.0789 C.ar      1 UNK         0.0000 
     30 C30         6.5768   54.8983   22.7209 C.ar      1 UNK         0.0000 
     31 Cl31        7.9027   55.2972   21.6784 Cl        1 UNK         0.0000 
     32 Cl32        5.9089   55.1975   26.6564 Cl        1 UNK         0.0000 
     33 N33        -7.7214   54.0389   25.6154 N.pl3     1 UNK         0.0000 
     34 O34        -8.0376   54.4998   24.5241 O.co2     1 UNK         0.0000 
     35 O35        -8.4599   54.0575   26.5946 O.co2     1 UNK         0.0000 
     36 H36        -4.7164   51.1735   27.6755 H         1 UNK         0.0000 
     37 H37        -6.9155   52.2149   27.4648 H         1 UNK         0.0000 
     38 H38        -5.5110   54.4933   24.0922 H         1 UNK         0.0000 
     39 H39        -3.2979   53.4876   24.3358 H         1 UNK         0.0000 
     40 H40        -1.0093   48.9639   24.9937 H         1 UNK         0.0000 
     41 H41        -0.5632   49.8086   26.4217 H         1 UNK         0.0000 
     42 H42         1.1964   50.0378   24.6093 H         1 UNK         0.0000 
     43 H43         0.5368   51.6014   24.9906 H         1 UNK         0.0000 
     44 H44        -1.4700   52.5355   23.2366 H         1 UNK         0.0000 
     45 H45        -1.8483   51.5057   21.8882 H         1 UNK         0.0000 
     46 H46        -2.6132   49.6941   23.4910 H         1 UNK         0.0000 
     47 H47        -3.5925   51.0743   23.6871 H         1 UNK         0.0000 
     48 H48         1.2206   52.4721   22.9476 H         1 UNK         0.0000 
     49 H49         1.1919   49.8943   20.1410 H         1 UNK         0.0000 
     50 H50         2.1183   48.7630   21.1433 H         1 UNK         0.0000 
     51 H51         2.0822   53.2119   20.7669 H         1 UNK         0.0000 
     52 H52         3.5046   54.6395   19.9836 H         1 UNK         0.0000 
     53 H53         4.1380   53.3255   19.0011 H         1 UNK         0.0000 
     54 H54         5.8671   54.6102   20.1417 H         1 UNK         0.0000 
     55 H55         5.9017   52.9611   20.6519 H         1 UNK         0.0000 
     56 H56         3.3991   53.6911   22.8404 H         1 UNK         0.0000 
     57 H57         3.6844   54.1586   25.1860 H         1 UNK         0.0000 
     58 H58         7.6085   55.6499   24.4486 H         1 UNK         0.0000 
     59 H59         0.5031   52.1188   21.5243 H         1 UNK         0.0000 
@<TRIPOS>BOND
     1    1    6 ar   
     2    1    2 ar   
     3    1   36 1    
     4    2    3 ar   
     5    2   37 1    
     6    3    4 ar   
     7    3   33 1    
     8    4    5 ar   
     9    4   38 1    
    10    5    6 ar   
    11    5   39 1    
    12    6    7 1    
    13    7    8 2    
    14    7    9 am   BACKBONE|DICT|INTERRES
    15    9   14 1    
    16    9   10 1    
    17   10   11 1    
    18   10   40 1    
    19   10   41 1    
    20   11   12 1    
    21   11   42 1    
    22   11   43 1    
    23   12   19 1    
    24   12   13 1    
    25   12   15 1    
    26   13   14 1    
    27   13   44 1    
    28   13   45 1    
    29   14   46 1    
    30   14   47 1    
    31   15   16 1    
    32   15   48 1    
    33   15   59 1    
    34   16   17 1    
    35   16   18 1    
    36   16   20 1    
    37   18   19 1    
    38   18   49 1    
    39   18   50 1    
    40   20   21 2    
    41   20   22 am   BACKBONE|DICT|INTERRES
    42   22   23 1    
    43   22   51 1    
    44   23   24 1    
    45   23   52 1    
    46   23   53 1    
    47   24   25 1    
    48   24   54 1    
    49   24   55 1    
    50   25   30 ar   
    51   25   26 ar   
    52   26   27 ar   
    53   26   56 1    
    54   27   28 ar   
    55   27   57 1    
    56   28   29 ar   
    57   28   32 1    
    58   29   30 ar   
    59   29   58 1    
    60   30   31 1    
    61   33   34 2    
    62   33   35 1    
@<TRIPOS>SUBSTRUCTURE
     1 UNK         1 GROUP             0       ****    0 ROOT    
