ZINC51021860_1704
                    3D
 Schrodinger Suite 2024-2.
 31 34  0  0  1  0            999 V2000
    3.0153   52.4827   30.2588 C   0  0  0  0  0  0
    4.1333   52.7448   29.4715 C   0  0  0  0  0  0
    3.9918   53.3202   28.1763 C   0  0  0  0  0  0
    2.6536   53.5476   27.7373 C   0  0  0  0  0  0
    2.4388   54.0956   26.4667 C   0  0  0  0  0  0
    3.5043   54.4468   25.6542 C   0  0  0  0  0  0
    4.8201   54.1925   26.0267 C   0  0  0  0  0  0
    5.0856   53.6622   27.3065 C   0  0  0  0  0  0
    6.4128   53.4794   27.7136 N   0  0  0  0  0  0
    6.1460   54.5811   24.8766 S   0  0  0  0  0  0
    5.5064   54.3360   23.2203 C   0  0  0  0  0  0
    6.2951   54.8639   22.1946 C   0  0  0  0  0  0
    5.8375   54.7538   20.8527 C   0  0  0  0  0  0
    6.7357   55.3014   19.9754 N   0  0  0  0  0  0
    8.1892   55.6979   22.8056 H   0  0  0  0  0  0
    7.7237   55.6968   20.7379 C   0  0  0  0  0  0
    7.5046   55.4986   22.0817 N   0  0  0  0  0  0
    4.6838   54.1512   20.5419 N   0  0  0  0  0  0
    3.9968   53.6435   21.6011 C   0  0  0  0  0  0
    4.3488   53.6944   22.9127 N   0  0  0  0  0  0
    1.5609   53.2641   28.5017 N   0  0  0  0  0  0
    1.7558   52.7503   29.7380 C   0  0  0  0  0  0
    3.1248   52.0699   31.2511 H   0  0  0  0  0  0
    5.1044   52.4965   29.8489 H   0  0  0  0  0  0
    1.4298   54.2465   26.1256 H   0  0  0  0  0  0
    3.2743   54.9207   24.7138 H   0  0  0  0  0  0
    6.6212   53.1259   28.6341 H   0  0  0  0  0  0
    7.1455   53.6678   27.0463 H   0  0  0  0  0  0
    8.6552   56.1321   20.4010 H   0  0  0  0  0  0
    3.0634   53.1500   21.3704 H   0  0  0  0  0  0
    0.8651   52.5448   30.3157 H   0  0  0  0  0  0
  1 22  2  0  0  0
  1  2  1  0  0  0
  1 23  1  0  0  0
  2  3  2  0  0  0
  2 24  1  0  0  0
  3  8  1  0  0  0
  3  4  1  0  0  0
  4  5  1  0  0  0
  4 21  2  0  0  0
  5  6  2  0  0  0
  5 25  1  0  0  0
  6  7  1  0  0  0
  6 26  1  0  0  0
  7  8  2  0  0  0
  7 10  1  0  0  0
  8  9  1  0  0  0
  9 27  1  0  0  0
  9 28  1  0  0  0
 10 11  1  0  0  0
 11 20  2  0  0  0
 11 12  1  0  0  0
 12 13  2  0  0  0
 12 17  1  0  0  0
 13 14  1  0  0  0
 13 18  1  0  0  0
 14 16  2  0  0  0
 15 17  1  0  0  0
 16 29  1  0  0  0
 16 17  1  0  0  0
 18 19  2  0  0  0
 19 30  1  0  0  0
 19 20  1  0  0  0
 21 22  1  0  0  0
 22 31  1  0  0  0
M  END
> <i_i_glide_confnum>
4

> <i_i_glide_lignum>
1705

> <i_i_glide_posenum>
242

> <i_i_glide_rotatable_bonds>
2

> <i_m_Source_File_Index>
3248

> <b_m_subgroup_collapsed>
0

> <r_i_docking_score>
-6.70337

> <r_i_glide_ecoul>
-2.27379

> <r_i_glide_eff_state_penalty>
0

> <r_i_glide_einternal>
1.05489

> <r_i_glide_emodel>
-55.4001

> <r_i_glide_energy>
-38.8914

> <r_i_glide_erotb>
0.42217

> <r_i_glide_esite>
0

> <r_i_glide_evdw>
-36.6176

> <r_i_glide_gscore>
-6.70337

> <r_i_glide_hbond>
-0.304434

> <r_i_glide_ligand_efficiency>
-0.319208

> <r_i_glide_ligand_efficiency_ln>
-1.65739

> <r_i_glide_ligand_efficiency_sa>
-0.880671

> <r_i_glide_lipo>
-2.51439

> <r_i_glide_metal>
0

> <r_i_glide_rewards>
-2.13476

> <s_i_glide_gridfile>
wee1_glide-grid

> <s_m_Source_File>
wee1_decoys_glide_SP.sdf

> <s_m_Source_Path>
/Users/zhangxujun/Desktop

> <s_m_entry_id>
3523

> <s_m_entry_name>
wee1_decoys_glide_SP.3248

> <s_m_subgroup_title>
wee1_decoys_glide_SP

> <s_m_subgroupid>
wee1_decoys_glide_SP


$$$$
