@<TRIPOS>MOLECULE
ZINC00333535_1621
42   44    1
SMALL
USER_CHARGES


@<TRIPOS>ATOM
      1 C1          1.5542   53.3517   26.7587 C.3       1 UNK         0.0000 
      2 C2          2.2177   53.2866   25.3535 C.3       1 UNK         0.0000 
      3 C3          1.2889   53.7900   24.2448 C.3       1 UNK         0.0000 
      4 C4          1.6573   52.3215   24.2883 C.3       1 UNK         0.0000 
      5 H5          2.3244   51.9664   23.5026 H         1 UNK         0.0000 
      6 C6          0.5000   51.3435   24.6135 C.2       1 UNK         0.0000 
      7 O7         -0.4969   51.7214   25.2369 O.2       1 UNK         0.0000 
      8 N8          0.6490   50.0792   24.1547 N.am      1 UNK         0.0000 
      9 N9         -0.3248   49.1249   24.4716 N.am      1 UNK         0.0000 
     10 C10        -1.3255   48.8828   23.5940 C.2       1 UNK         0.0000 
     11 O11        -1.4403   49.4301   22.4934 O.2       1 UNK         0.0000 
     12 C12        -2.4157   47.9796   24.1255 C.ar      1 UNK         0.0000 
     13 C13        -3.0733   48.4318   25.2837 C.ar      1 UNK         0.0000 
     14 C14        -4.1338   47.7305   25.8418 C.ar      1 UNK         0.0000 
     15 C15        -4.5787   46.5648   25.2393 C.ar      1 UNK         0.0000 
     16 C16        -3.9466   46.0969   24.0931 C.ar      1 UNK         0.0000 
     17 C17        -2.8470   46.7617   23.5103 C.ar      1 UNK         0.0000 
     18 C18        -2.1927   46.0969   22.3129 C.2       1 UNK         0.0000 
     19 O19        -1.3569   46.7202   21.6252 O.co2     1 UNK         0.0000 
     20 C20         3.7030   53.7168   25.3105 C.ar      1 UNK         0.0000 
     21 C21         4.4813   53.7146   26.4805 C.ar      1 UNK         0.0000 
     22 C22         5.8173   54.1088   26.4513 C.ar      1 UNK         0.0000 
     23 C23         6.3944   54.4986   25.2466 C.ar      1 UNK         0.0000 
     24 C24         5.6486   54.4908   24.0731 C.ar      1 UNK         0.0000 
     25 C25         4.3133   54.0966   24.1042 C.ar      1 UNK         0.0000 
     26 H26         0.4693   53.2965   26.7642 H         1 UNK         0.0000 
     27 H27         1.9326   52.5577   27.4024 H         1 UNK         0.0000 
     28 H28         1.8016   54.2932   27.2498 H         1 UNK         0.0000 
     29 H29         0.2710   54.0968   24.4815 H         1 UNK         0.0000 
     30 H30         1.6710   54.4050   23.4311 H         1 UNK         0.0000 
     31 H31         1.4706   49.6980   23.7080 H         1 UNK         0.0000 
     32 H32        -0.0482   48.4946   25.2116 H         1 UNK         0.0000 
     33 H33        -2.7653   49.3472   25.7723 H         1 UNK         0.0000 
     34 H34        -4.6126   48.0992   26.7374 H         1 UNK         0.0000 
     35 H35        -5.4133   46.0235   25.6604 H         1 UNK         0.0000 
     36 H36        -4.3354   45.1887   23.6546 H         1 UNK         0.0000 
     37 H37         4.0655   53.4048   27.4262 H         1 UNK         0.0000 
     38 H38         6.4021   54.1061   27.3595 H         1 UNK         0.0000 
     39 H39         7.4318   54.7954   25.2123 H         1 UNK         0.0000 
     40 H40         6.1062   54.7815   23.1383 H         1 UNK         0.0000 
     41 H41         3.7708   54.0839   23.1724 H         1 UNK         0.0000 
     42 O42        -2.4959   44.8979   22.0829 O.co2     1 UNK         0.0000 
@<TRIPOS>BOND
     1    1    2 1    
     2    1   26 1    
     3    1   27 1    
     4    1   28 1    
     5    2    4 1    
     6    2    3 1    
     7    2   20 1    
     8    3    4 1    
     9    3   29 1    
    10    3   30 1    
    11    4    5 1    
    12    4    6 1    
    13    6    7 2    
    14    6    8 am   BACKBONE|DICT|INTERRES
    15    8    9 1    
    16    8   31 1    
    17    9   10 am   BACKBONE|DICT|INTERRES
    18    9   32 1    
    19   10   11 2    
    20   10   12 1    
    21   12   17 ar   
    22   12   13 ar   
    23   13   14 ar   
    24   13   33 1    
    25   14   15 ar   
    26   14   34 1    
    27   15   16 ar   
    28   15   35 1    
    29   16   17 ar   
    30   16   36 1    
    31   17   18 1    
    32   18   19 2    
    33   18   42 1    
    34   20   25 ar   
    35   20   21 ar   
    36   21   22 ar   
    37   21   37 1    
    38   22   23 ar   
    39   22   38 1    
    40   23   24 ar   
    41   23   39 1    
    42   24   25 ar   
    43   24   40 1    
    44   25   41 1    
@<TRIPOS>SUBSTRUCTURE
     1 UNK         1 GROUP             0       ****    0 ROOT    
