ZINC13309697_5792
                    3D
 Schrodinger Suite 2024-2.
 52 55  0  0  1  0            999 V2000
   -0.9018   48.0239   21.3158 C   0  0  0  0  0  0
   -0.8952   48.2128   22.7269 O   0  0  0  0  0  0
   -1.8947   47.6527   23.5009 C   0  0  0  0  0  0
   -2.8245   46.7244   22.9941 C   0  0  0  0  0  0
   -3.7810   46.1413   23.8238 C   0  0  0  0  0  0
   -3.8076   46.4493   25.1810 C   0  0  0  0  0  0
   -2.8957   47.3653   25.7010 C   0  0  0  0  0  0
   -1.9638   47.9902   24.8702 C   0  0  0  0  0  0
   -1.1337   48.9379   25.4953 N   0  0  0  0  0  0
   -0.9056   50.2019   25.0797 C   0  0  0  0  0  0
   -1.2632   50.6685   23.9952 O   0  0  0  0  0  0
   -0.2057   51.0803   26.0814 C   0  0  0  0  0  0
   -0.7076   51.1665   27.3886 C   0  0  0  0  0  0
   -0.0964   51.9999   28.3543 C   0  0  0  0  0  0
   -0.5719   52.0883   29.6832 C   0  0  0  0  0  0
    0.0142   52.9689   30.5857 C   0  0  0  0  0  0
    1.0855   53.7645   30.1990 C   0  0  0  0  0  0
    1.6221   53.6567   28.9200 C   0  0  0  0  0  0
    1.0368   52.7722   27.9816 C   0  0  0  0  0  0
    1.5503   52.6298   26.6803 C   0  0  0  0  0  0
    0.9289   51.8245   25.7268 C   0  0  0  0  0  0
    1.5061   51.7128   24.4804 O   0  0  0  0  0  0
    1.3824   52.9940   23.4093 S   0  0  0  0  0  0
    0.9198   52.4778   22.1169 O   0  0  0  0  0  0
    0.6988   54.0971   24.0795 O   0  0  0  0  0  0
    3.1162   53.4642   23.2478 C   0  0  0  0  0  0
    3.7974   53.2115   22.0568 C   0  0  0  0  0  0
    5.1424   53.5478   21.9353 C   0  0  0  0  0  0
    5.8369   54.0986   23.0157 C   0  0  0  0  0  0
    5.1764   54.3673   24.2233 C   0  0  0  0  0  0
    3.7977   54.0973   24.2948 C   0  0  0  0  0  0
    5.9187   54.8967   25.4201 C   0  0  0  0  0  0
    5.3098   54.8984   26.5141 O   0  0  0  0  0  0
   -0.0732   48.5826   20.8780 H   0  0  0  0  0  0
   -0.7748   46.9743   21.0442 H   0  0  0  0  0  0
   -1.8261   48.3975   20.8719 H   0  0  0  0  0  0
   -2.8201   46.4465   21.9524 H   0  0  0  0  0  0
   -4.5000   45.4489   23.4116 H   0  0  0  0  0  0
   -4.5394   45.9939   25.8317 H   0  0  0  0  0  0
   -2.9289   47.6064   26.7566 H   0  0  0  0  0  0
   -0.8901   48.7283   26.4576 H   0  0  0  0  0  0
   -1.5739   50.5887   27.6867 H   0  0  0  0  0  0
   -1.4053   51.4702   29.9946 H   0  0  0  0  0  0
   -0.3719   53.0373   31.5934 H   0  0  0  0  0  0
    1.5046   54.4714   30.8957 H   0  0  0  0  0  0
    2.4702   54.2613   28.6290 H   0  0  0  0  0  0
    2.4608   53.1395   26.4486 H   0  0  0  0  0  0
    3.2869   52.7576   21.2192 H   0  0  0  0  0  0
    5.6507   53.3634   21.0005 H   0  0  0  0  0  0
    6.8914   54.3163   22.9099 H   0  0  0  0  0  0
    3.2565   54.3921   25.1740 H   0  0  0  0  0  0
    7.1026   55.2894   25.2771 O   0  5  0  0  0  0
  1  2  1  0  0  0
  1 34  1  0  0  0
  1 35  1  0  0  0
  1 36  1  0  0  0
  2  3  1  0  0  0
  3  8  2  0  0  0
  3  4  1  0  0  0
  4  5  2  0  0  0
  4 37  1  0  0  0
  5  6  1  0  0  0
  5 38  1  0  0  0
  6  7  2  0  0  0
  6 39  1  0  0  0
  7  8  1  0  0  0
  7 40  1  0  0  0
  8  9  1  0  0  0
  9 10  1  0  0  0
  9 41  1  0  0  0
 10 11  2  0  0  0
 10 12  1  0  0  0
 12 21  2  0  0  0
 12 13  1  0  0  0
 13 14  2  0  0  0
 13 42  1  0  0  0
 14 19  1  0  0  0
 14 15  1  0  0  0
 15 16  2  0  0  0
 15 43  1  0  0  0
 16 17  1  0  0  0
 16 44  1  0  0  0
 17 18  2  0  0  0
 17 45  1  0  0  0
 18 19  1  0  0  0
 18 46  1  0  0  0
 19 20  2  0  0  0
 20 21  1  0  0  0
 20 47  1  0  0  0
 21 22  1  0  0  0
 22 23  1  0  0  0
 23 24  2  0  0  0
 23 25  2  0  0  0
 23 26  1  0  0  0
 26 31  2  0  0  0
 26 27  1  0  0  0
 27 28  2  0  0  0
 27 48  1  0  0  0
 28 29  1  0  0  0
 28 49  1  0  0  0
 29 30  2  0  0  0
 29 50  1  0  0  0
 30 31  1  0  0  0
 30 32  1  0  0  0
 31 51  1  0  0  0
 32 33  2  0  0  0
 32 52  1  0  0  0
M  CHG  1  52  -1
M  END
> <i_i_glide_confnum>
96

> <i_i_glide_lignum>
5793

> <i_i_glide_posenum>
368

> <i_i_glide_rotatable_bonds>
8

> <i_m_Source_File_Index>
1014

> <b_m_subgroup_collapsed>
0

> <r_i_docking_score>
-6.05333

> <r_i_glide_ecoul>
-8.99875

> <r_i_glide_eff_state_penalty>
0

> <r_i_glide_einternal>
6.96103

> <r_i_glide_emodel>
-67.9696

> <r_i_glide_energy>
-49.3651

> <r_i_glide_erotb>
0.535168

> <r_i_glide_esite>
-0.127431

> <r_i_glide_evdw>
-40.3663

> <r_i_glide_gscore>
-6.05333

> <r_i_glide_hbond>
-0.318858

> <r_i_glide_ligand_efficiency>
-0.178039

> <r_i_glide_ligand_efficiency_ln>
-1.33735

> <r_i_glide_ligand_efficiency_sa>
-0.576777

> <r_i_glide_lipo>
-1.93106

> <r_i_glide_metal>
0

> <r_i_glide_rewards>
-0.843014

> <s_i_glide_gridfile>
wee1_glide-grid

> <s_m_Source_File>
wee1_decoys_glide_SP.sdf

> <s_m_Source_Path>
/Users/zhangxujun/Desktop

> <s_m_entry_id>
1289

> <s_m_entry_name>
wee1_decoys_glide_SP.1014

> <s_m_subgroup_title>
wee1_decoys_glide_SP

> <s_m_subgroupid>
wee1_decoys_glide_SP


$$$$
