@<TRIPOS>MOLECULE
ZINC12060029_2446
57   60    1
SMALL
USER_CHARGES


@<TRIPOS>ATOM
      1 C1          4.1047   53.9404   28.9401 C.ar      1 UNK         0.0000 
      2 C2          2.8997   53.9566   28.2499 C.ar      1 UNK         0.0000 
      3 C3          2.8784   54.0969   26.8644 C.ar      1 UNK         0.0000 
      4 C4          4.0864   54.2175   26.1176 C.ar      1 UNK         0.0000 
      5 C5          5.3230   54.1958   26.8456 C.ar      1 UNK         0.0000 
      6 C6          5.3084   54.0587   28.2561 C.ar      1 UNK         0.0000 
      7 C7          6.5480   54.3192   26.1508 C.ar      1 UNK         0.0000 
      8 C8          6.5627   54.4670   24.7703 C.ar      1 UNK         0.0000 
      9 C9          5.3732   54.4934   24.0541 C.ar      1 UNK         0.0000 
     10 C10         4.1327   54.3737   24.6880 C.ar      1 UNK         0.0000 
     11 C11         2.8599   54.4965   23.8283 C.3       1 UNK         0.0000 
     12 C12         2.0688   53.1950   23.5947 C.2       1 UNK         0.0000 
     13 O13         1.9586   52.3571   24.4899 O.2       1 UNK         0.0000 
     14 N14         1.5039   53.0595   22.3748 N.am      1 UNK         0.0000 
     15 N15         0.8627   51.8651   22.0327 N.am      1 UNK         0.0000 
     16 C16        -0.4419   51.6583   22.3245 C.2       1 UNK         0.0000 
     17 O17        -1.1702   52.4903   22.8746 O.2       1 UNK         0.0000 
     18 C18        -0.9949   50.2758   21.9109 C.3       1 UNK         0.0000 
     19 C19        -0.8235   49.2831   23.0841 C.3       1 UNK         0.0000 
     20 C20        -1.2435   47.8810   22.5958 C.3       1 UNK         0.0000 
     21 N21        -2.5972   47.8661   21.9784 N.pl3     1 UNK         0.0000 
     22 C22        -2.9357   48.9522   21.0120 C.3       1 UNK         0.0000 
     23 C23        -2.4799   50.3505   21.4833 C.3       1 UNK         0.0000 
     24 S24        -3.8995   46.9637   22.7765 S.o2      1 UNK         0.0000 
     25 O25        -5.0707   46.9716   21.8918 O.2       1 UNK         0.0000 
     26 O26        -3.3441   45.6967   23.2720 O.2       1 UNK         0.0000 
     27 C27        -4.3261   47.9703   24.1993 C.ar      1 UNK         0.0000 
     28 C28        -5.2433   49.0152   24.0285 C.ar      1 UNK         0.0000 
     29 C29        -5.5903   49.8325   25.1043 C.ar      1 UNK         0.0000 
     30 C30        -5.0252   49.6073   26.3588 C.ar      1 UNK         0.0000 
     31 C31        -4.1113   48.5680   26.5340 C.ar      1 UNK         0.0000 
     32 C32        -3.7480   47.7552   25.4603 C.ar      1 UNK         0.0000 
     33 F33        -2.8460   46.7662   25.6637 F         1 UNK         0.0000 
     34 H34         4.1128   53.8325   30.0138 H         1 UNK         0.0000 
     35 H35         1.9709   53.8617   28.7929 H         1 UNK         0.0000 
     36 H36         1.9257   54.1026   26.3580 H         1 UNK         0.0000 
     37 H37         6.2430   54.0473   28.7998 H         1 UNK         0.0000 
     38 H38         7.4752   54.2886   26.7051 H         1 UNK         0.0000 
     39 H39         7.5050   54.5562   24.2476 H         1 UNK         0.0000 
     40 H40         5.4229   54.6153   22.9812 H         1 UNK         0.0000 
     41 H41         2.1913   55.2294   24.2737 H         1 UNK         0.0000 
     42 H42         3.1311   54.9036   22.8529 H         1 UNK         0.0000 
     43 H43         1.5682   53.7221   21.6127 H         1 UNK         0.0000 
     44 H44         1.4672   51.2030   21.5674 H         1 UNK         0.0000 
     45 H45        -0.3710   49.9576   21.0711 H         1 UNK         0.0000 
     46 H46         0.2178   49.1900   23.3988 H         1 UNK         0.0000 
     47 H47        -1.4686   49.5343   23.9307 H         1 UNK         0.0000 
     48 H48        -0.5430   47.4802   21.8626 H         1 UNK         0.0000 
     49 H49        -1.2340   47.1827   23.4346 H         1 UNK         0.0000 
     50 H50        -2.4990   48.6851   20.0489 H         1 UNK         0.0000 
     51 H51        -4.0131   48.9599   20.8496 H         1 UNK         0.0000 
     52 H52        -3.1288   50.6290   22.3173 H         1 UNK         0.0000 
     53 H53        -2.6228   51.0193   20.6324 H         1 UNK         0.0000 
     54 H54        -5.6901   49.1986   23.0606 H         1 UNK         0.0000 
     55 H55        -6.2991   50.6369   24.9670 H         1 UNK         0.0000 
     56 H56        -5.2965   50.2320   27.1970 H         1 UNK         0.0000 
     57 H57        -3.6881   48.3922   27.5133 H         1 UNK         0.0000 
@<TRIPOS>BOND
     1    1    6 ar   
     2    1    2 ar   
     3    1   34 1    
     4    2    3 ar   
     5    2   35 1    
     6    3    4 ar   
     7    3   36 1    
     8    4   10 ar   
     9    4    5 ar   
    10    5    6 ar   
    11    5    7 ar   
    12    6   37 1    
    13    7    8 ar   
    14    7   38 1    
    15    8    9 ar   
    16    8   39 1    
    17    9   10 ar   
    18    9   40 1    
    19   10   11 1    
    20   11   12 1    
    21   11   41 1    
    22   11   42 1    
    23   12   13 2    
    24   12   14 am   BACKBONE|DICT|INTERRES
    25   14   15 1    
    26   14   43 1    
    27   15   16 am   BACKBONE|DICT|INTERRES
    28   15   44 1    
    29   16   17 2    
    30   16   18 1    
    31   18   23 1    
    32   18   19 1    
    33   18   45 1    
    34   19   20 1    
    35   19   46 1    
    36   19   47 1    
    37   20   21 1    
    38   20   48 1    
    39   20   49 1    
    40   21   22 1    
    41   21   24 1    
    42   22   23 1    
    43   22   50 1    
    44   22   51 1    
    45   23   52 1    
    46   23   53 1    
    47   24   25 2    
    48   24   26 2    
    49   24   27 1    
    50   27   32 ar   
    51   27   28 ar   
    52   28   29 ar   
    53   28   54 1    
    54   29   30 ar   
    55   29   55 1    
    56   30   31 ar   
    57   30   56 1    
    58   31   32 ar   
    59   31   57 1    
    60   32   33 1    
@<TRIPOS>SUBSTRUCTURE
     1 UNK         1 GROUP             0       ****    0 ROOT    
