ZINC40325717_953
                    3D
 Schrodinger Suite 2024-2.
 67 71  0  0  1  0            999 V2000
    5.9037   54.4808   23.8585 C   0  0  0  0  0  0
    6.8553   54.4861   24.8695 C   0  0  0  0  0  0
    6.4610   54.4704   26.2030 C   0  0  0  0  0  0
    5.1041   54.4890   26.5296 C   0  0  0  0  0  0
    4.1525   54.5427   25.5049 C   0  0  0  0  0  0
    4.5509   54.4961   24.1732 C   0  0  0  0  0  0
    4.7333   54.4662   28.0133 C   0  0  0  0  0  0
    3.2399   54.6169   28.3823 C   0  0  0  0  0  0
    2.4867   53.3574   28.3373 N   0  0  0  0  0  0
    1.9208   52.8103   27.1075 C   0  0  0  0  0  0
    1.2108   51.5309   27.5081 C   0  0  1  0  0  0
    1.5009   50.6910   26.8823 H   0  0  0  0  0  0
    1.7217   51.2682   28.9129 C   0  0  0  0  0  0
    2.4618   52.5077   29.3896 C   0  0  0  0  0  0
    2.9558   52.6527   30.5080 O   0  0  0  0  0  0
   -0.3194   51.6873   27.4696 C   0  0  0  0  0  0
   -0.8955   52.3753   28.3123 O   0  0  0  0  0  0
   -0.9054   51.0545   26.4363 N   0  0  0  0  0  0
   -2.2521   50.9372   26.1057 C   0  0  0  0  0  0
   -2.7608   50.4981   24.8621 C   0  0  0  0  0  0
   -4.1767   50.6424   24.8059 C   0  0  0  0  0  0
   -4.7223   51.0347   26.0408 C   0  0  0  0  0  0
   -3.5160   51.2973   27.2459 S   0  0  0  0  0  0
   -6.1962   51.2829   26.3223 C   0  0  0  0  0  0
   -7.0382   50.6198   25.2165 C   0  0  0  0  0  0
   -6.5004   50.9615   23.8188 C   0  0  0  0  0  0
   -5.0765   50.4068   23.5826 C   0  0  0  0  0  0
   -1.9326   50.0980   23.7299 C   0  0  0  0  0  0
   -2.2330   50.3667   22.5676 O   0  0  0  0  0  0
   -0.7914   49.4625   24.0660 N   0  0  0  0  0  0
    0.3095   49.1372   23.1536 C   0  0  0  0  0  0
    1.1522   50.3039   22.6178 C   0  0  0  0  0  0
    1.0189   51.6101   23.1092 C   0  0  0  0  0  0
    1.7808   52.6427   22.5735 C   0  0  0  0  0  0
    2.6882   52.3722   21.5526 C   0  0  0  0  0  0
    2.8403   51.0775   21.0620 C   0  0  0  0  0  0
    2.0718   50.0454   21.5958 C   0  0  0  0  0  0
    6.2188   54.4797   22.8253 H   0  0  0  0  0  0
    7.9019   54.4925   24.6146 H   0  0  0  0  0  0
    7.2063   54.4420   26.9849 H   0  0  0  0  0  0
    3.1000   54.6221   25.7115 H   0  0  0  0  0  0
    3.8153   54.5255   23.3840 H   0  0  0  0  0  0
    5.2705   55.2968   28.4621 H   0  0  0  0  0  0
    5.1594   53.5831   28.4924 H   0  0  0  0  0  0
    2.7472   55.4222   27.8361 H   0  0  0  0  0  0
    3.2137   54.9337   29.4261 H   0  0  0  0  0  0
    2.7496   52.5314   26.4557 H   0  0  0  0  0  0
    1.3042   53.4993   26.5269 H   0  0  0  0  0  0
    0.9339   51.0495   29.6354 H   0  0  0  0  0  0
    2.3775   50.4068   28.8814 H   0  0  0  0  0  0
   -0.2763   50.6764   25.7449 H   0  0  0  0  0  0
   -6.4821   50.8962   27.3015 H   0  0  0  0  0  0
   -6.3918   52.3556   26.3345 H   0  0  0  0  0  0
   -7.0460   49.5357   25.3519 H   0  0  0  0  0  0
   -8.0763   50.9384   25.3073 H   0  0  0  0  0  0
   -7.1739   50.5753   23.0529 H   0  0  0  0  0  0
   -6.4944   52.0454   23.6931 H   0  0  0  0  0  0
   -4.6720   50.8728   22.6837 H   0  0  0  0  0  0
   -5.1278   49.3368   23.3733 H   0  0  0  0  0  0
   -0.7661   49.0092   24.9694 H   0  0  0  0  0  0
   -0.0817   48.5603   22.3117 H   0  0  0  0  0  0
    0.9887   48.4685   23.6830 H   0  0  0  0  0  0
    0.3201   51.8419   23.8958 H   0  0  0  0  0  0
    1.6608   53.6511   22.9416 H   0  0  0  0  0  0
    3.2739   53.1757   21.1322 H   0  0  0  0  0  0
    3.5394   50.8814   20.2605 H   0  0  0  0  0  0
    2.1891   49.0464   21.2007 H   0  0  0  0  0  0
  1  6  2  0  0  0
  1  2  1  0  0  0
  1 38  1  0  0  0
  2  3  2  0  0  0
  2 39  1  0  0  0
  3  4  1  0  0  0
  3 40  1  0  0  0
  4  5  2  0  0  0
  4  7  1  0  0  0
  5  6  1  0  0  0
  5 41  1  0  0  0
  6 42  1  0  0  0
  7  8  1  0  0  0
  7 43  1  0  0  0
  7 44  1  0  0  0
  8  9  1  0  0  0
  8 45  1  0  0  0
  8 46  1  0  0  0
  9 14  1  0  0  0
  9 10  1  0  0  0
 10 11  1  0  0  0
 10 47  1  0  0  0
 10 48  1  0  0  0
 11 12  1  0  0  0
 11 13  1  0  0  0
 11 16  1  0  0  0
 13 14  1  0  0  0
 13 49  1  0  0  0
 13 50  1  0  0  0
 14 15  2  0  0  0
 16 17  2  0  0  0
 16 18  1  0  0  0
 18 19  1  0  0  0
 18 51  1  0  0  0
 19 23  1  0  0  0
 19 20  2  0  0  0
 20 21  1  0  0  0
 20 28  1  0  0  0
 21 27  1  0  0  0
 21 22  2  0  0  0
 22 23  1  0  0  0
 22 24  1  0  0  0
 24 25  1  0  0  0
 24 52  1  0  0  0
 24 53  1  0  0  0
 25 26  1  0  0  0
 25 54  1  0  0  0
 25 55  1  0  0  0
 26 27  1  0  0  0
 26 56  1  0  0  0
 26 57  1  0  0  0
 27 58  1  0  0  0
 27 59  1  0  0  0
 28 29  2  0  0  0
 28 30  1  0  0  0
 30 31  1  0  0  0
 30 60  1  0  0  0
 31 32  1  0  0  0
 31 61  1  0  0  0
 31 62  1  0  0  0
 32 37  2  0  0  0
 32 33  1  0  0  0
 33 34  2  0  0  0
 33 63  1  0  0  0
 34 35  1  0  0  0
 34 64  1  0  0  0
 35 36  2  0  0  0
 35 65  1  0  0  0
 36 37  1  0  0  0
 36 66  1  0  0  0
 37 67  1  0  0  0
M  END
> <i_i_glide_confnum>
126

> <i_i_glide_lignum>
954

> <i_i_glide_posenum>
258

> <i_i_glide_rotatable_bonds>
10

> <i_m_Source_File_Index>
863

> <b_m_subgroup_collapsed>
0

> <r_i_docking_score>
-5.81428

> <r_i_glide_ecoul>
-4.62661

> <r_i_glide_eff_state_penalty>
0

> <r_i_glide_einternal>
5.68149

> <r_i_glide_emodel>
-64.1591

> <r_i_glide_energy>
-47.7861

> <r_i_glide_erotb>
0.730598

> <r_i_glide_esite>
-0.105104

> <r_i_glide_evdw>
-43.1595

> <r_i_glide_gscore>
-5.81428

> <r_i_glide_hbond>
-0.142862

> <r_i_glide_ligand_efficiency>
-0.161508

> <r_i_glide_ligand_efficiency_ln>
-1.26852

> <r_i_glide_ligand_efficiency_sa>
-0.533287

> <r_i_glide_lipo>
-2.8901

> <r_i_glide_metal>
0

> <r_i_glide_rewards>
-0.554841

> <s_i_glide_gridfile>
wee1_glide-grid

> <s_m_Source_File>
wee1_decoys_glide_SP.sdf

> <s_m_Source_Path>
/Users/zhangxujun/Desktop

> <s_m_entry_id>
1138

> <s_m_entry_name>
wee1_decoys_glide_SP.863

> <s_m_subgroup_title>
wee1_decoys_glide_SP

> <s_m_subgroupid>
wee1_decoys_glide_SP


$$$$
