@<TRIPOS>MOLECULE
ZINC03618800_2334
60   63    1
SMALL
USER_CHARGES


@<TRIPOS>ATOM
      1 C1          2.5747   52.2978   29.3831 C.3       1 UNK         0.0000 
      2 C2          3.4144   52.9303   28.2880 C.ar      1 UNK         0.0000 
      3 C3          4.7885   53.0588   28.4314 C.ar      1 UNK         0.0000 
      4 C4          5.5676   53.6186   27.4186 C.ar      1 UNK         0.0000 
      5 C5          4.9766   54.0963   26.2174 C.ar      1 UNK         0.0000 
      6 C6          3.5678   53.9317   26.0752 C.ar      1 UNK         0.0000 
      7 C7          2.8176   53.3587   27.1099 C.ar      1 UNK         0.0000 
      8 C8          2.7540   54.3724   24.8635 C.3       1 UNK         0.0000 
      9 C9          5.8572   54.8557   25.2276 C.2       1 UNK         0.0000 
     10 O10         6.6485   55.6908   25.6810 O.2       1 UNK         0.0000 
     11 C11         5.8895   54.5945   23.7387 C.ar      1 UNK         0.0000 
     12 C12         6.7045   55.3822   22.9157 C.ar      1 UNK         0.0000 
     13 C13         6.6097   55.3183   21.5287 C.ar      1 UNK         0.0000 
     14 C14         5.7126   54.4332   20.9203 C.ar      1 UNK         0.0000 
     15 C15         4.9974   53.5472   21.7378 C.ar      1 UNK         0.0000 
     16 C16         5.1187   53.6142   23.1211 C.ar      1 UNK         0.0000 
     17 C17         5.5723   54.4136   19.4122 C.2       1 UNK         0.0000 
     18 O18         6.0713   55.3208   18.7373 O.2       1 UNK         0.0000 
     19 N19         4.8854   53.3707   18.8905 N.am      1 UNK         0.0000 
     20 N20         4.7743   53.2970   17.5069 N.am      1 UNK         0.0000 
     21 C21         3.5258   53.2783   17.0002 C.2       1 UNK         0.0000 
     22 O22         2.4798   53.2942   17.6574 O.2       1 UNK         0.0000 
     23 N23         3.5565   53.3523   15.6604 N.am      1 UNK         0.0000 
     24 C24         2.5328   54.0101   14.8478 C.3       1 UNK         0.0000 
     25 C25         2.2482   53.4181   13.4805 C.3       1 UNK         0.0000 
     26 C26         1.2853   53.1647   14.6029 C.3       1 UNK         0.0000 
     27 C27         2.3667   55.5063   15.1225 C.ar      1 UNK         0.0000 
     28 C28         1.2436   55.9987   15.7969 C.ar      1 UNK         0.0000 
     29 C29         1.1403   57.3592   16.0750 C.ar      1 UNK         0.0000 
     30 C30         2.1603   58.2238   15.6828 C.ar      1 UNK         0.0000 
     31 C31         3.2831   57.7413   15.0150 C.ar      1 UNK         0.0000 
     32 C32         3.3866   56.3808   14.7355 C.ar      1 UNK         0.0000 
     33 C33         7.0738   53.5731   27.6344 C.3       1 UNK         0.0000 
     34 H34         1.7525   52.9626   29.6549 H         1 UNK         0.0000 
     35 H35         2.1358   51.3633   29.0277 H         1 UNK         0.0000 
     36 H36         3.1576   52.0986   30.2839 H         1 UNK         0.0000 
     37 H37         5.2709   52.6812   29.3192 H         1 UNK         0.0000 
     38 H38         1.7488   53.2385   27.0018 H         1 UNK         0.0000 
     39 H39         3.1442   55.2965   24.4368 H         1 UNK         0.0000 
     40 H40         2.7087   53.6049   24.0963 H         1 UNK         0.0000 
     41 H41         1.7052   54.4968   25.1258 H         1 UNK         0.0000 
     42 H42         7.3932   56.0961   23.3429 H         1 UNK         0.0000 
     43 H43         7.2256   55.9780   20.9332 H         1 UNK         0.0000 
     44 H44         4.3295   52.8054   21.3232 H         1 UNK         0.0000 
     45 H45         4.5783   52.9002   23.7112 H         1 UNK         0.0000 
     46 H46         4.8972   52.4511   19.3087 H         1 UNK         0.0000 
     47 H47         5.4787   52.6761   17.1337 H         1 UNK         0.0000 
     48 H48         4.3616   52.9953   15.1680 H         1 UNK         0.0000 
     49 H49         1.9626   54.0976   12.6783 H         1 UNK         0.0000 
     50 H50         2.8728   52.5997   13.1222 H         1 UNK         0.0000 
     51 H51         1.2332   52.1699   15.0454 H         1 UNK         0.0000 
     52 H52         0.3074   53.6404   14.5628 H         1 UNK         0.0000 
     53 H53         0.4660   55.3293   16.1324 H         1 UNK         0.0000 
     54 H54         0.2843   57.7438   16.6102 H         1 UNK         0.0000 
     55 H55         2.0873   59.2773   15.9159 H         1 UNK         0.0000 
     56 H56         4.0733   58.4197   14.7280 H         1 UNK         0.0000 
     57 H57         4.2641   56.0039   14.2298 H         1 UNK         0.0000 
     58 H58         7.4957   54.5621   27.8130 H         1 UNK         0.0000 
     59 H59         7.5045   53.1621   26.7265 H         1 UNK         0.0000 
     60 H60         7.3698   52.9050   28.4433 H         1 UNK         0.0000 
@<TRIPOS>BOND
     1    1    2 1    
     2    1   34 1    
     3    1   35 1    
     4    1   36 1    
     5    2    7 ar   
     6    2    3 ar   
     7    3    4 ar   
     8    3   37 1    
     9    4    5 ar   
    10    4   33 1    
    11    5    6 ar   
    12    5    9 1    
    13    6    7 ar   
    14    6    8 1    
    15    7   38 1    
    16    8   39 1    
    17    8   40 1    
    18    8   41 1    
    19    9   10 2    
    20    9   11 1    
    21   11   16 ar   
    22   11   12 ar   
    23   12   13 ar   
    24   12   42 1    
    25   13   14 ar   
    26   13   43 1    
    27   14   15 ar   
    28   14   17 1    
    29   15   16 ar   
    30   15   44 1    
    31   16   45 1    
    32   17   18 2    
    33   17   19 am   BACKBONE|DICT|INTERRES
    34   19   20 1    
    35   19   46 1    
    36   20   21 am   BACKBONE|DICT|INTERRES
    37   20   47 1    
    38   21   22 2    
    39   21   23 am   BACKBONE|DICT|INTERRES
    40   23   24 1    
    41   23   48 1    
    42   24   26 1    
    43   24   25 1    
    44   24   27 1    
    45   25   26 1    
    46   25   49 1    
    47   25   50 1    
    48   26   51 1    
    49   26   52 1    
    50   27   32 ar   
    51   27   28 ar   
    52   28   29 ar   
    53   28   53 1    
    54   29   30 ar   
    55   29   54 1    
    56   30   31 ar   
    57   30   55 1    
    58   31   32 ar   
    59   31   56 1    
    60   32   57 1    
    61   33   58 1    
    62   33   59 1    
    63   33   60 1    
@<TRIPOS>SUBSTRUCTURE
     1 UNK         1 GROUP             0       ****    0 ROOT    
