ZINC39933351_353
                    3D
 Schrodinger Suite 2024-2.
 63 67  0  0  1  0            999 V2000
    5.5103   54.4975   28.5250 C   0  0  0  0  0  0
    4.0961   54.1441   28.1039 C   0  0  0  0  0  0
    3.0723   54.1326   29.0474 C   0  0  0  0  0  0
    1.7760   53.8178   28.6575 C   0  0  0  0  0  0
    1.5048   53.5194   27.3239 C   0  0  0  0  0  0
    2.5086   53.5279   26.3373 C   0  0  0  0  0  0
    3.8088   53.8526   26.7672 C   0  0  0  0  0  0
    2.2097   53.2305   24.9701 N   0  0  0  0  0  0
    2.8491   53.9852   23.8746 C   0  0  2  0  0  0
    2.7217   55.0560   24.0421 H   0  0  0  0  0  0
    1.9954   53.5747   22.7708 N   0  0  0  0  0  0
    0.9190   52.8134   23.1869 N   0  0  0  0  0  0
    1.1078   52.5858   24.4098 C   0  0  0  0  0  0
    0.1913   51.7211   25.1249 C   0  0  0  0  0  0
   -1.1577   51.8026   25.0968 C   0  0  0  0  0  0
   -2.0864   52.7112   24.3995 C   0  0  0  0  0  0
   -3.4195   52.6020   24.5694 C   0  0  0  0  0  0
   -3.9123   51.5588   25.4581 C   0  0  0  0  0  0
   -3.0726   50.7105   26.1077 C   0  0  0  0  0  0
   -1.6875   50.8167   25.9378 C   0  0  0  0  0  0
   -0.7348   50.0967   26.4817 N   0  3  0  0  0  0
    0.5885   50.5649   26.0237 C   0  0  0  0  0  0
    4.6274   53.7029   23.5492 S   0  0  0  0  0  0
    4.9312   54.4968   21.9395 C   0  0  1  0  0  0
    4.1990   55.2971   21.8917 H   0  0  0  0  0  0
    6.3335   55.1377   21.8704 C   0  0  0  0  0  0
    4.6398   53.5838   20.7330 C   0  0  0  0  0  0
    4.7164   52.3584   20.8435 O   0  0  0  0  0  0
    4.3045   54.2364   19.6000 N   0  0  0  0  0  0
    3.8123   53.7165   18.3931 C   0  0  0  0  0  0
    3.9641   54.5171   17.2597 C   0  0  0  0  0  0
    3.4726   54.0905   16.0288 C   0  0  0  0  0  0
    2.8063   52.8607   15.9183 C   0  0  0  0  0  0
    2.6338   52.0768   17.0661 C   0  0  0  0  0  0
    3.1312   52.4967   18.2963 C   0  0  0  0  0  0
    2.2626   52.3730   14.5958 C   0  0  0  0  0  0
    1.3117   51.5970   14.5315 O   0  0  0  0  0  0
    2.8661   52.8113   13.4901 N   0  0  0  0  0  0
    5.5058   55.1450   29.4028 H   0  0  0  0  0  0
    6.0829   53.5979   28.7510 H   0  0  0  0  0  0
    6.0265   55.0466   27.7366 H   0  0  0  0  0  0
    3.2816   54.3644   30.0805 H   0  0  0  0  0  0
    0.9788   53.8072   29.3867 H   0  0  0  0  0  0
    0.4804   53.2972   27.0754 H   0  0  0  0  0  0
    4.6382   53.8607   26.0867 H   0  0  0  0  0  0
    1.7266   54.2195   22.0373 H   0  0  0  0  0  0
   -1.7230   53.4880   23.7420 H   0  0  0  0  0  0
   -4.1056   53.2685   24.0667 H   0  0  0  0  0  0
   -4.9785   51.4568   25.6044 H   0  0  0  0  0  0
   -3.4884   49.9528   26.7589 H   0  0  0  0  0  0
    1.0765   49.7404   25.4996 H   0  0  0  0  0  0
    1.1614   50.8471   26.9065 H   0  0  0  0  0  0
    6.5399   55.5846   20.8962 H   0  0  0  0  0  0
    6.4391   55.9278   22.6131 H   0  0  0  0  0  0
    7.1225   54.4185   22.0829 H   0  0  0  0  0  0
    4.4528   55.2326   19.5919 H   0  0  0  0  0  0
    4.4663   55.4721   17.3209 H   0  0  0  0  0  0
    3.6059   54.7353   15.1715 H   0  0  0  0  0  0
    2.1367   51.1172   17.0105 H   0  0  0  0  0  0
    2.9831   51.8606   19.1572 H   0  0  0  0  0  0
    3.7050   53.3658   13.5528 H   0  0  0  0  0  0
    2.5250   52.5005   12.5947 H   0  0  0  0  0  0
   -0.8960   49.3287   27.1493 H   0  0  0  0  0  0
  1  2  1  0  0  0
  1 39  1  0  0  0
  1 40  1  0  0  0
  1 41  1  0  0  0
  2  7  2  0  0  0
  2  3  1  0  0  0
  3  4  2  0  0  0
  3 42  1  0  0  0
  4  5  1  0  0  0
  4 43  1  0  0  0
  5  6  2  0  0  0
  5 44  1  0  0  0
  6  7  1  0  0  0
  6  8  1  0  0  0
  7 45  1  0  0  0
  8 13  1  0  0  0
  8  9  1  0  0  0
  9 10  1  0  0  0
  9 11  1  0  0  0
  9 23  1  0  0  0
 11 12  1  0  0  0
 11 46  1  0  0  0
 12 13  2  0  0  0
 13 14  1  0  0  0
 14 22  1  0  0  0
 14 15  2  0  0  0
 15 20  1  0  0  0
 15 16  1  0  0  0
 16 17  2  0  0  0
 16 47  1  0  0  0
 17 18  1  0  0  0
 17 48  1  0  0  0
 18 19  2  0  0  0
 18 49  1  0  0  0
 19 20  1  0  0  0
 19 50  1  0  0  0
 20 21  2  0  0  0
 21 22  1  0  0  0
 21 63  1  0  0  0
 22 51  1  0  0  0
 22 52  1  0  0  0
 23 24  1  0  0  0
 24 25  1  0  0  0
 24 26  1  0  0  0
 24 27  1  0  0  0
 26 53  1  0  0  0
 26 54  1  0  0  0
 26 55  1  0  0  0
 27 28  2  0  0  0
 27 29  1  0  0  0
 29 30  1  0  0  0
 29 56  1  0  0  0
 30 35  2  0  0  0
 30 31  1  0  0  0
 31 32  2  0  0  0
 31 57  1  0  0  0
 32 33  1  0  0  0
 32 58  1  0  0  0
 33 34  2  0  0  0
 33 36  1  0  0  0
 34 35  1  0  0  0
 34 59  1  0  0  0
 35 60  1  0  0  0
 36 37  2  0  0  0
 36 38  1  0  0  0
 38 61  1  0  0  0
 38 62  1  0  0  0
M  CHG  1  21   1
M  END
> <i_i_glide_confnum>
24

> <i_i_glide_lignum>
354

> <i_i_glide_posenum>
218

> <i_i_glide_rotatable_bonds>
8

> <i_m_Source_File_Index>
4442

> <b_m_subgroup_collapsed>
0

> <r_i_docking_score>
-5.50103

> <r_i_glide_ecoul>
-2.65364

> <r_i_glide_eff_state_penalty>
0

> <r_i_glide_einternal>
27.9387

> <r_i_glide_emodel>
-45.7925

> <r_i_glide_energy>
-43.8899

> <r_i_glide_erotb>
0.572489

> <r_i_glide_esite>
-0.115682

> <r_i_glide_evdw>
-41.2363

> <r_i_glide_gscore>
-5.50103

> <r_i_glide_hbond>
-0.401576

> <r_i_glide_ligand_efficiency>
-0.152806

> <r_i_glide_ligand_efficiency_ln>
-1.20018

> <r_i_glide_ligand_efficiency_sa>
-0.504556

> <r_i_glide_lipo>
-2.17652

> <r_i_glide_metal>
0

> <r_i_glide_rewards>
-0.91988

> <s_i_glide_gridfile>
wee1_glide-grid

> <s_m_Source_File>
wee1_decoys_glide_SP.sdf

> <s_m_Source_Path>
/Users/zhangxujun/Desktop

> <s_m_entry_id>
4717

> <s_m_entry_name>
wee1_decoys_glide_SP.4442

> <s_m_subgroup_title>
wee1_decoys_glide_SP

> <s_m_subgroupid>
wee1_decoys_glide_SP


$$$$
