@<TRIPOS>MOLECULE
ZINC37494880_3825
39   41    1
SMALL
USER_CHARGES


@<TRIPOS>ATOM
      1 C1          6.0084   54.3010   27.1702 C.ar      1 UNK         0.0000 
      2 C2          5.5455   54.3398   28.4787 C.ar      1 UNK         0.0000 
      3 C3          4.1883   54.1798   28.7419 C.ar      1 UNK         0.0000 
      4 C4          3.2646   53.9744   27.7059 C.ar      1 UNK         0.0000 
      5 C5          3.7413   53.9207   26.3719 C.ar      1 UNK         0.0000 
      6 C6          5.1158   54.0967   26.1235 C.ar      1 UNK         0.0000 
      7 N7          2.8064   53.6944   25.3347 N.am      1 UNK         0.0000 
      8 C8          2.9611   53.6973   23.9946 C.2       1 UNK         0.0000 
      9 O9          3.9514   54.0972   23.3828 O.2       1 UNK         0.0000 
     10 C10         1.8556   53.0999   23.2890 C.ar      1 UNK         0.0000 
     11 C11         0.6219   52.6135   23.7393 C.ar      1 UNK         0.0000 
     12 C12        -0.0969   52.0988   22.6528 C.ar      1 UNK         0.0000 
     13 C13         0.7064   52.2739   21.5373 C.ar      1 UNK         0.0000 
     14 N14         1.8661   52.8865   21.9315 N.pl3     1 UNK         0.0000 
     15 H15         2.6238   53.1548   21.3155 H         1 UNK         0.0000 
     16 Br16       -1.8401   51.3389   22.6950 Br        1 UNK         0.0000 
     17 N17         1.9151   53.8054   28.0239 N.pl3     1 UNK         0.0000 
     18 C18         1.2429   54.5674   29.0868 C.3       1 UNK         0.0000 
     19 C19         0.9511   53.7273   30.3492 C.3       1 UNK         0.0000 
     20 C20         0.1181   52.4853   30.0092 C.3       1 UNK         0.0000 
     21 C21         0.8093   51.7068   28.8771 C.3       1 UNK         0.0000 
     22 C22         1.1281   52.6089   27.6639 C.3       1 UNK         0.0000 
     23 H23         7.0634   54.4207   26.9708 H         1 UNK         0.0000 
     24 H24         6.2488   54.4966   29.2817 H         1 UNK         0.0000 
     25 H25         3.8579   54.2110   29.7678 H         1 UNK         0.0000 
     26 H26         5.5289   54.0503   25.1282 H         1 UNK         0.0000 
     27 H27         1.8903   53.4474   25.6747 H         1 UNK         0.0000 
     28 H28         0.2624   52.6207   24.7589 H         1 UNK         0.0000 
     29 H29         0.5471   52.0339   20.4955 H         1 UNK         0.0000 
     30 H30         1.7921   55.4803   29.3272 H         1 UNK         0.0000 
     31 H31         0.3035   54.8981   28.6548 H         1 UNK         0.0000 
     32 H32         1.8859   53.4307   30.8247 H         1 UNK         0.0000 
     33 H33         0.4240   54.3366   31.0845 H         1 UNK         0.0000 
     34 H34        -0.8908   52.7764   29.7030 H         1 UNK         0.0000 
     35 H35        -0.0042   51.8544   30.8917 H         1 UNK         0.0000 
     36 H36         0.1565   50.8954   28.5551 H         1 UNK         0.0000 
     37 H37         1.7246   51.2277   29.2272 H         1 UNK         0.0000 
     38 H38         0.1958   52.9450   27.2067 H         1 UNK         0.0000 
     39 H39         1.6459   52.0189   26.9090 H         1 UNK         0.0000 
@<TRIPOS>BOND
     1    1    6 ar   
     2    1    2 ar   
     3    1   23 1    
     4    2    3 ar   
     5    2   24 1    
     6    3    4 ar   
     7    3   25 1    
     8    4    5 ar   
     9    4   17 1    
    10    5    6 ar   
    11    5    7 1    
    12    6   26 1    
    13    7    8 am   BACKBONE|DICT|INTERRES
    14    7   27 1    
    15    8    9 2    
    16    8   10 1    
    17   10   14 ar   
    18   10   11 ar   
    19   11   12 ar   
    20   11   28 1    
    21   12   13 ar   
    22   12   16 1    
    23   13   14 ar   
    24   13   29 1    
    25   14   15 1    
    26   17   22 1    
    27   17   18 1    
    28   18   19 1    
    29   18   30 1    
    30   18   31 1    
    31   19   20 1    
    32   19   32 1    
    33   19   33 1    
    34   20   21 1    
    35   20   34 1    
    36   20   35 1    
    37   21   22 1    
    38   21   36 1    
    39   21   37 1    
    40   22   38 1    
    41   22   39 1    
@<TRIPOS>SUBSTRUCTURE
     1 UNK         1 GROUP             0       ****    0 ROOT    
