@<TRIPOS>MOLECULE
ZINC33695519_3979
78   82    1
SMALL
USER_CHARGES


@<TRIPOS>ATOM
      1 C1          2.7329   51.2936   28.9546 C.3       1 UNK         0.0000 
      2 C2          3.2120   52.4816   28.1062 C.3       1 UNK         0.0000 
      3 H3          3.9885   52.1044   27.4486 H         1 UNK         0.0000 
      4 C4          3.8799   53.5845   28.9518 C.3       1 UNK         0.0000 
      5 C5          2.8587   54.2125   29.9153 C.3       1 UNK         0.0000 
      6 C6          1.6359   54.7448   29.1471 C.3       1 UNK         0.0000 
      7 C7          1.0532   53.6780   28.1983 C.3       1 UNK         0.0000 
      8 C8          2.0873   53.0727   27.2333 C.3       1 UNK         0.0000 
      9 H9          2.5342   53.8981   26.6716 H         1 UNK         0.0000 
     10 N10         1.4990   52.1322   26.2689 N.am      1 UNK         0.0000 
     11 C11         1.0799   52.4304   25.0236 C.2       1 UNK         0.0000 
     12 O12         1.0502   53.5890   24.6037 O.2       1 UNK         0.0000 
     13 C13         0.5780   51.2421   24.1495 C.3       1 UNK         0.0000 
     14 H14         0.7049   50.3273   24.7296 H         1 UNK         0.0000 
     15 C15         1.3015   51.1222   22.7783 C.3       1 UNK         0.0000 
     16 C16         1.8887   52.3546   22.0679 C.2       1 UNK         0.0000 
     17 C17         2.6086   51.8865   21.0412 C.2       1 UNK         0.0000 
     18 C18         2.3536   50.3955   21.0512 C.3       1 UNK         0.0000 
     19 H19         3.1108   49.7825   20.5625 H         1 UNK         0.0000 
     20 O20         2.3166   50.1842   22.4752 O.3       1 UNK         0.0000 
     21 C21         0.8638   50.0345   20.6851 C.3       1 UNK         0.0000 
     22 H22         0.8214   48.9625   20.4863 H         1 UNK         0.0000 
     23 C23         0.2380   50.3365   22.0655 C.3       1 UNK         0.0000 
     24 H24         0.0656   49.3487   22.5040 H         1 UNK         0.0000 
     25 C25        -1.0258   51.1138   22.3946 C.2       1 UNK         0.0000 
     26 O26        -1.9822   51.3433   21.6505 O.2       1 UNK         0.0000 
     27 N27        -0.8646   51.3620   23.7335 N.am      1 UNK         0.0000 
     28 C28        -2.0442   51.5851   24.6355 C.3       1 UNK         0.0000 
     29 C29        -3.1981   50.5681   24.3829 C.3       1 UNK         0.0000 
     30 C30        -2.5652   53.0115   24.3791 C.3       1 UNK         0.0000 
     31 C31        -1.7105   51.4506   26.1477 C.3       1 UNK         0.0000 
     32 C32         0.1591   50.6845   19.4559 C.2       1 UNK         0.0000 
     33 O33        -0.6848   50.0142   18.8577 O.2       1 UNK         0.0000 
     34 N34         0.4860   51.9401   19.0922 N.am      1 UNK         0.0000 
     35 C35        -0.1681   52.7748   18.1722 C.ar      1 UNK         0.0000 
     36 C36        -1.5626   52.7885   18.0298 C.ar      1 UNK         0.0000 
     37 C37        -2.1677   53.7497   17.2222 C.ar      1 UNK         0.0000 
     38 C38        -1.3896   54.6976   16.5469 C.ar      1 UNK         0.0000 
     39 C39         0.0011   54.6639   16.6784 C.ar      1 UNK         0.0000 
     40 C40         0.6109   53.7065   17.4838 C.ar      1 UNK         0.0000 
     41 C41        -2.0243   55.7962   15.6793 C.3       1 UNK         0.0000 
     42 C42        -3.3259   55.3670   14.9698 C.3       1 UNK         0.0000 
     43 C43        -2.2145   57.0948   16.4812 C.3       1 UNK         0.0000 
     44 H44         1.9763   51.5509   29.6923 H         1 UNK         0.0000 
     45 H45         2.3032   50.4983   28.3447 H         1 UNK         0.0000 
     46 H46         3.5767   50.9032   29.5116 H         1 UNK         0.0000 
     47 H47         4.3093   54.3584   28.3095 H         1 UNK         0.0000 
     48 H48         4.6994   53.1599   29.5358 H         1 UNK         0.0000 
     49 H49         2.5377   53.4807   30.6580 H         1 UNK         0.0000 
     50 H50         3.3367   55.0097   30.4673 H         1 UNK         0.0000 
     51 H51         0.8747   55.0861   29.8453 H         1 UNK         0.0000 
     52 H52         1.9279   55.6264   28.5747 H         1 UNK         0.0000 
     53 H53         0.5414   52.9057   28.7689 H         1 UNK         0.0000 
     54 H54         0.2991   54.0968   27.5825 H         1 UNK         0.0000 
     55 H55         1.4714   51.1677   26.5619 H         1 UNK         0.0000 
     56 H56         1.7307   53.3884   22.3331 H         1 UNK         0.0000 
     57 H57         3.1730   52.4216   20.2912 H         1 UNK         0.0000 
     58 H58        -2.8399   49.5415   24.4752 H         1 UNK         0.0000 
     59 H59        -4.0124   50.6906   25.0994 H         1 UNK         0.0000 
     60 H60        -3.6561   50.6751   23.3980 H         1 UNK         0.0000 
     61 H61        -1.7210   53.6956   24.4062 H         1 UNK         0.0000 
     62 H62        -3.0357   53.1138   23.3970 H         1 UNK         0.0000 
     63 H63        -3.2741   53.3445   25.1353 H         1 UNK         0.0000 
     64 H64        -1.1370   52.2956   26.5262 H         1 UNK         0.0000 
     65 H65        -2.6150   51.4286   26.7602 H         1 UNK         0.0000 
     66 H66        -1.1563   50.5340   26.3649 H         1 UNK         0.0000 
     67 H67         1.2706   52.3528   19.5609 H         1 UNK         0.0000 
     68 H68        -2.1801   52.0825   18.5681 H         1 UNK         0.0000 
     69 H69        -3.2425   53.7661   17.1455 H         1 UNK         0.0000 
     70 H70         0.6156   55.3930   16.1718 H         1 UNK         0.0000 
     71 H71         1.6866   53.7189   17.5954 H         1 UNK         0.0000 
     72 H72        -1.3150   56.0148   14.8753 H         1 UNK         0.0000 
     73 H73        -3.2039   54.4219   14.4350 H         1 UNK         0.0000 
     74 H74        -4.1525   55.2471   15.6742 H         1 UNK         0.0000 
     75 H75        -3.6211   56.1182   14.2324 H         1 UNK         0.0000 
     76 H76        -1.2715   57.4396   16.9195 H         1 UNK         0.0000 
     77 H77        -2.5889   57.9067   15.8517 H         1 UNK         0.0000 
     78 H78        -2.9284   56.9557   17.2914 H         1 UNK         0.0000 
@<TRIPOS>BOND
     1    1    2 1    
     2    1   44 1    
     3    1   45 1    
     4    1   46 1    
     5    2    3 1    
     6    2    8 1    
     7    2    4 1    
     8    4    5 1    
     9    4   47 1    
    10    4   48 1    
    11    5    6 1    
    12    5   49 1    
    13    5   50 1    
    14    6    7 1    
    15    6   51 1    
    16    6   52 1    
    17    7    8 1    
    18    7   53 1    
    19    7   54 1    
    20    8    9 1    
    21    8   10 1    
    22   10   11 am   BACKBONE|DICT|INTERRES
    23   10   55 1    
    24   11   12 2    
    25   11   13 1    
    26   13   14 1    
    27   13   27 1    
    28   13   15 1    
    29   15   20 1    
    30   15   23 1    
    31   15   16 1    
    32   16   17 2    
    33   16   56 1    
    34   17   18 1    
    35   17   57 1    
    36   18   19 1    
    37   18   20 1    
    38   18   21 1    
    39   21   22 1    
    40   21   23 1    
    41   21   32 1    
    42   23   24 1    
    43   23   25 1    
    44   25   26 2    
    45   25   27 am   BACKBONE|DICT|INTERRES
    46   27   28 1    
    47   28   29 1    
    48   28   30 1    
    49   28   31 1    
    50   29   58 1    
    51   29   59 1    
    52   29   60 1    
    53   30   61 1    
    54   30   62 1    
    55   30   63 1    
    56   31   64 1    
    57   31   65 1    
    58   31   66 1    
    59   32   33 2    
    60   32   34 am   BACKBONE|DICT|INTERRES
    61   34   35 1    
    62   34   67 1    
    63   35   40 ar   
    64   35   36 ar   
    65   36   37 ar   
    66   36   68 1    
    67   37   38 ar   
    68   37   69 1    
    69   38   39 ar   
    70   38   41 1    
    71   39   40 ar   
    72   39   70 1    
    73   40   71 1    
    74   41   42 1    
    75   41   43 1    
    76   41   72 1    
    77   42   73 1    
    78   42   74 1    
    79   42   75 1    
    80   43   76 1    
    81   43   77 1    
    82   43   78 1    
@<TRIPOS>SUBSTRUCTURE
     1 UNK         1 GROUP             0       ****    0 ROOT    
