ZINC09507842_4561
                    3D
 Schrodinger Suite 2024-2.
 56 59  0  0  1  0            999 V2000
    0.1996   46.8309   17.6231 C   0  0  0  0  0  0
    0.6291   47.8813   18.6307 C   0  0  0  0  0  0
    0.1947   47.8100   19.9555 C   0  0  0  0  0  0
    0.6078   48.7676   20.8816 C   0  0  0  0  0  0
    1.4413   49.8137   20.4887 C   0  0  0  0  0  0
    1.8396   49.9223   19.1475 C   0  0  0  0  0  0
    1.4455   48.9424   18.2313 C   0  0  0  0  0  0
    2.7024   51.0813   18.6697 C   0  0  0  0  0  0
    1.8614   50.7463   21.4394 N   0  0  0  0  0  0
    0.9152   52.1970   21.7340 S   0  0  0  0  0  0
    1.8224   53.1667   22.3577 O   0  0  0  0  0  0
    0.1789   52.4967   20.5014 O   0  0  0  0  0  0
   -0.2740   51.7078   22.9721 C   0  0  0  0  0  0
   -1.4941   51.1309   22.6197 C   0  0  0  0  0  0
   -2.3844   50.7318   23.6180 C   0  0  0  0  0  0
   -2.0649   50.9057   24.9712 C   0  0  0  0  0  0
   -0.8360   51.4932   25.3287 C   0  0  0  0  0  0
    0.0480   51.8801   24.3153 C   0  0  0  0  0  0
   -0.4924   51.6967   26.6734 N   0  0  0  0  0  0
    0.7095   52.2775   27.0994 N   0  0  0  0  0  0
    0.9063   52.4657   28.3380 C   0  0  0  0  0  0
    2.1495   53.0460   28.9897 C   0  0  0  0  0  0
    2.1197   53.0707   30.2604 N   0  0  0  0  0  0
    0.9765   52.6023   30.8625 C   0  0  0  0  0  0
    0.7044   52.4958   32.0820 N   0  0  0  0  0  0
   -0.2290   52.0969   29.6783 S   0  0  0  0  0  0
    3.3233   53.5509   28.2149 C   0  0  0  0  0  0
    3.2197   54.0390   26.8996 C   0  0  0  0  0  0
    4.3469   54.4947   26.2182 C   0  0  0  0  0  0
    5.5908   54.4780   26.8426 C   0  0  0  0  0  0
    5.7155   54.0027   28.1426 C   0  0  0  0  0  0
    4.5897   53.5404   28.8212 C   0  0  0  0  0  0
    6.6823   54.9340   26.1862 F   0  0  0  0  0  0
   -3.0589   50.4486   26.0328 C   0  0  0  0  0  0
   -0.7475   46.3705   17.9079 H   0  0  0  0  0  0
    0.9613   46.0550   17.5335 H   0  0  0  0  0  0
    0.0460   47.2802   16.6403 H   0  0  0  0  0  0
   -0.4495   47.0042   20.2753 H   0  0  0  0  0  0
    0.2822   48.6919   21.9089 H   0  0  0  0  0  0
    1.7834   49.0069   17.2059 H   0  0  0  0  0  0
    2.1246   52.0060   18.6498 H   0  0  0  0  0  0
    3.5457   51.2358   19.3413 H   0  0  0  0  0  0
    3.1042   50.8972   17.6753 H   0  0  0  0  0  0
    2.5188   50.4686   22.1489 H   0  0  0  0  0  0
   -1.7461   50.9806   21.5795 H   0  0  0  0  0  0
   -3.3254   50.2796   23.3348 H   0  0  0  0  0  0
    1.0016   52.3194   24.5717 H   0  0  0  0  0  0
   -1.1051   51.3946   27.4201 H   0  0  0  0  0  0
   -0.2245   52.1053   32.2977 H   0  0  0  0  0  0
    2.2713   54.0955   26.3882 H   0  0  0  0  0  0
    4.2549   54.8676   25.2086 H   0  0  0  0  0  0
    6.6827   53.9979   28.6256 H   0  0  0  0  0  0
    4.7043   53.1664   29.8274 H   0  0  0  0  0  0
   -2.6012   49.6959   26.6784 H   0  0  0  0  0  0
   -3.3512   51.2873   26.6670 H   0  0  0  0  0  0
   -3.9631   50.0178   25.5999 H   0  0  0  0  0  0
  1  2  1  0  0  0
  1 35  1  0  0  0
  1 36  1  0  0  0
  1 37  1  0  0  0
  2  7  2  0  0  0
  2  3  1  0  0  0
  3  4  2  0  0  0
  3 38  1  0  0  0
  4  5  1  0  0  0
  4 39  1  0  0  0
  5  6  2  0  0  0
  5  9  1  0  0  0
  6  7  1  0  0  0
  6  8  1  0  0  0
  7 40  1  0  0  0
  8 41  1  0  0  0
  8 42  1  0  0  0
  8 43  1  0  0  0
  9 10  1  0  0  0
  9 44  1  0  0  0
 10 11  2  0  0  0
 10 12  2  0  0  0
 10 13  1  0  0  0
 13 18  2  0  0  0
 13 14  1  0  0  0
 14 15  2  0  0  0
 14 45  1  0  0  0
 15 16  1  0  0  0
 15 46  1  0  0  0
 16 17  2  0  0  0
 16 34  1  0  0  0
 17 18  1  0  0  0
 17 19  1  0  0  0
 18 47  1  0  0  0
 19 20  1  0  0  0
 19 48  1  0  0  0
 20 21  2  0  0  0
 21 26  1  0  0  0
 21 22  1  0  0  0
 22 23  2  0  0  0
 22 27  1  0  0  0
 23 24  1  0  0  0
 24 25  2  0  0  0
 24 26  1  0  0  0
 25 49  1  0  0  0
 27 32  2  0  0  0
 27 28  1  0  0  0
 28 29  2  0  0  0
 28 50  1  0  0  0
 29 30  1  0  0  0
 29 51  1  0  0  0
 30 31  2  0  0  0
 30 33  1  0  0  0
 31 32  1  0  0  0
 31 52  1  0  0  0
 32 53  1  0  0  0
 34 54  1  0  0  0
 34 55  1  0  0  0
 34 56  1  0  0  0
M  END
> <i_i_glide_confnum>
22

> <i_i_glide_lignum>
4562

> <i_i_glide_posenum>
164

> <i_i_glide_rotatable_bonds>
6

> <i_m_Source_File_Index>
1614

> <b_m_subgroup_collapsed>
0

> <r_i_docking_score>
-5.84347

> <r_i_glide_ecoul>
-7.59668

> <r_i_glide_eff_state_penalty>
0

> <r_i_glide_einternal>
4.42687

> <r_i_glide_emodel>
-72.1402

> <r_i_glide_energy>
-52.9224

> <r_i_glide_erotb>
0.498013

> <r_i_glide_esite>
-0.103495

> <r_i_glide_evdw>
-45.3258

> <r_i_glide_gscore>
-5.84347

> <r_i_glide_hbond>
-0.274804

> <r_i_glide_ligand_efficiency>
-0.171867

> <r_i_glide_ligand_efficiency_ln>
-1.29099

> <r_i_glide_ligand_efficiency_sa>
-0.556782

> <r_i_glide_lipo>
-1.69688

> <r_i_glide_metal>
0

> <r_i_glide_rewards>
-0.860523

> <s_i_glide_gridfile>
wee1_glide-grid

> <s_m_Source_File>
wee1_decoys_glide_SP.sdf

> <s_m_Source_Path>
/Users/zhangxujun/Desktop

> <s_m_entry_id>
1889

> <s_m_entry_name>
wee1_decoys_glide_SP.1614

> <s_m_subgroup_title>
wee1_decoys_glide_SP

> <s_m_subgroupid>
wee1_decoys_glide_SP


$$$$
