@<TRIPOS>MOLECULE
ZINC36218529_5403
68   72    1
SMALL
USER_CHARGES


@<TRIPOS>ATOM
      1 C1          1.4289   50.8969   27.9475 C.3       1 UNK         0.0000 
      2 C2          1.1105   52.1914   27.1716 C.3       1 UNK         0.0000 
      3 H3          1.9340   52.3712   26.4750 H         1 UNK         0.0000 
      4 C4          1.0603   53.3614   28.1629 C.ar      1 UNK         0.0000 
      5 C5          0.2548   53.2875   29.3077 C.ar      1 UNK         0.0000 
      6 C6          0.3071   54.2900   30.2720 C.ar      1 UNK         0.0000 
      7 C7          1.1453   55.3852   30.0818 C.ar      1 UNK         0.0000 
      8 C8          1.9441   55.4767   28.9456 C.ar      1 UNK         0.0000 
      9 C9          1.9089   54.4608   27.9920 C.ar      1 UNK         0.0000 
     10 N10        -0.1161   52.0973   26.3639 N.am      1 UNK         0.0000 
     11 C11        -0.4419   51.1182   25.4916 C.2       1 UNK         0.0000 
     12 O12         0.3027   50.1689   25.2550 O.2       1 UNK         0.0000 
     13 C13        -1.8233   51.1437   24.7788 C.3       1 UNK         0.0000 
     14 H14        -2.2598   50.1716   25.0141 H         1 UNK         0.0000 
     15 C15        -1.7903   51.3276   23.2520 C.3       1 UNK         0.0000 
     16 H16        -2.5423   50.6525   22.8373 H         1 UNK         0.0000 
     17 O17        -2.3169   52.6241   23.0603 O.3       1 UNK         0.0000 
     18 C18        -3.0101   53.0757   24.1219 C.2       1 UNK         0.0000 
     19 O19        -3.6973   54.0959   24.0816 O.2       1 UNK         0.0000 
     20 N20        -2.7287   52.2173   25.1828 N.am      1 UNK         0.0000 
     21 C21        -3.2869   52.4124   26.5224 C.3       1 UNK         0.0000 
     22 C22        -4.1470   51.2656   27.0159 C.ar      1 UNK         0.0000 
     23 C23        -5.3765   50.9977   26.4105 C.ar      1 UNK         0.0000 
     24 C24        -6.1658   49.9541   26.8857 C.ar      1 UNK         0.0000 
     25 C25        -5.7232   49.1864   27.9642 C.ar      1 UNK         0.0000 
     26 C26        -4.5000   49.4564   28.5746 C.ar      1 UNK         0.0000 
     27 C27        -3.7127   50.5008   28.1019 C.ar      1 UNK         0.0000 
     28 C28        -0.5120   51.0732   22.4477 C.ar      1 UNK         0.0000 
     29 C29        -0.3903   49.9044   21.6900 C.ar      1 UNK         0.0000 
     30 C30         0.7661   49.6606   20.9519 C.ar      1 UNK         0.0000 
     31 C31         1.8165   50.5765   20.9755 C.ar      1 UNK         0.0000 
     32 C32         1.7239   51.7369   21.7489 C.ar      1 UNK         0.0000 
     33 C33         0.5427   51.9940   22.4631 C.ar      1 UNK         0.0000 
     34 N34         2.8439   52.5829   21.7540 N.am      1 UNK         0.0000 
     35 C35         3.2406   53.4400   22.7186 C.2       1 UNK         0.0000 
     36 O36         2.6324   53.6529   23.7708 O.2       1 UNK         0.0000 
     37 C37         4.5851   54.0783   22.4785 C.ar      1 UNK         0.0000 
     38 C38         5.4640   54.2598   23.5539 C.ar      1 UNK         0.0000 
     39 C39         6.7037   54.8583   23.3529 C.ar      1 UNK         0.0000 
     40 C40         7.0638   55.2966   22.0809 C.ar      1 UNK         0.0000 
     41 C41         6.2041   55.1157   21.0015 C.ar      1 UNK         0.0000 
     42 C42         4.9713   54.4973   21.1956 C.ar      1 UNK         0.0000 
     43 H43         2.3035   51.0132   28.5881 H         1 UNK         0.0000 
     44 H44         0.5814   50.6183   28.5745 H         1 UNK         0.0000 
     45 H45         1.6260   50.0568   27.2849 H         1 UNK         0.0000 
     46 H46        -0.3958   52.4396   29.4710 H         1 UNK         0.0000 
     47 H47        -0.2940   54.2138   31.1660 H         1 UNK         0.0000 
     48 H48         1.1843   56.1678   30.8270 H         1 UNK         0.0000 
     49 H49         2.5989   56.3254   28.8184 H         1 UNK         0.0000 
     50 H50         2.5492   54.5234   27.1235 H         1 UNK         0.0000 
     51 H51        -0.7034   52.9162   26.3764 H         1 UNK         0.0000 
     52 H52        -2.4671   52.5515   27.2252 H         1 UNK         0.0000 
     53 H53        -3.8814   53.3268   26.5670 H         1 UNK         0.0000 
     54 H54        -5.7180   51.5926   25.5751 H         1 UNK         0.0000 
     55 H55        -7.1158   49.7385   26.4200 H         1 UNK         0.0000 
     56 H56        -6.3322   48.3714   28.3276 H         1 UNK         0.0000 
     57 H57        -4.1457   48.8572   29.4037 H         1 UNK         0.0000 
     58 H58        -2.7573   50.6875   28.5720 H         1 UNK         0.0000 
     59 H59        -1.1912   49.1802   21.6682 H         1 UNK         0.0000 
     60 H60         0.8505   48.7592   20.3635 H         1 UNK         0.0000 
     61 H61         2.7103   50.3635   20.4039 H         1 UNK         0.0000 
     62 H62         0.4356   52.8942   23.0459 H         1 UNK         0.0000 
     63 H63         3.4815   52.4555   20.9829 H         1 UNK         0.0000 
     64 H64         5.1909   53.9354   24.5492 H         1 UNK         0.0000 
     65 H65         7.3827   54.9954   24.1804 H         1 UNK         0.0000 
     66 H66         8.0238   55.7677   21.9329 H         1 UNK         0.0000 
     67 H67         6.4939   55.4502   20.0151 H         1 UNK         0.0000 
     68 H68         4.3128   54.3788   20.3463 H         1 UNK         0.0000 
@<TRIPOS>BOND
     1    1    2 1    
     2    1   43 1    
     3    1   44 1    
     4    1   45 1    
     5    2    3 1    
     6    2    4 1    
     7    2   10 1    
     8    4    9 ar   
     9    4    5 ar   
    10    5    6 ar   
    11    5   46 1    
    12    6    7 ar   
    13    6   47 1    
    14    7    8 ar   
    15    7   48 1    
    16    8    9 ar   
    17    8   49 1    
    18    9   50 1    
    19   10   11 am   BACKBONE|DICT|INTERRES
    20   10   51 1    
    21   11   12 2    
    22   11   13 1    
    23   13   14 1    
    24   13   20 1    
    25   13   15 1    
    26   15   16 1    
    27   15   17 1    
    28   15   28 1    
    29   17   18 1    
    30   18   19 2    
    31   18   20 am   BACKBONE|DICT|INTERRES
    32   20   21 1    
    33   21   22 1    
    34   21   52 1    
    35   21   53 1    
    36   22   27 ar   
    37   22   23 ar   
    38   23   24 ar   
    39   23   54 1    
    40   24   25 ar   
    41   24   55 1    
    42   25   26 ar   
    43   25   56 1    
    44   26   27 ar   
    45   26   57 1    
    46   27   58 1    
    47   28   33 ar   
    48   28   29 ar   
    49   29   30 ar   
    50   29   59 1    
    51   30   31 ar   
    52   30   60 1    
    53   31   32 ar   
    54   31   61 1    
    55   32   33 ar   
    56   32   34 1    
    57   33   62 1    
    58   34   35 am   BACKBONE|DICT|INTERRES
    59   34   63 1    
    60   35   36 2    
    61   35   37 1    
    62   37   42 ar   
    63   37   38 ar   
    64   38   39 ar   
    65   38   64 1    
    66   39   40 ar   
    67   39   65 1    
    68   40   41 ar   
    69   40   66 1    
    70   41   42 ar   
    71   41   67 1    
    72   42   68 1    
@<TRIPOS>SUBSTRUCTURE
     1 UNK         1 GROUP             0       ****    0 ROOT    
