ZINC08818345_6130
                    3D
 Schrodinger Suite 2024-2.
 70 74  0  0  1  0            999 V2000
    4.4885   58.5975   16.8822 C   0  0  0  0  0  0
    5.6116   57.5523   16.8451 C   0  0  0  0  0  0
    5.2386   56.2777   16.0609 C   0  0  0  0  0  0
    4.3740   56.3885   15.1820 O   0  0  0  0  0  0
    5.8405   55.0832   16.3718 N   0  0  0  0  0  0
    5.1998   53.9420   15.8627 C   0  0  0  0  0  0
    5.4313   53.4832   14.5593 C   0  0  0  0  0  0
    4.7626   52.3690   14.0662 C   0  0  0  0  0  0
    3.8619   51.6966   14.8806 C   0  0  0  0  0  0
    3.6491   52.1251   16.1879 C   0  0  0  0  0  0
    4.3113   53.2404   16.7150 C   0  0  0  0  0  0
    4.0592   53.6705   18.0358 N   0  0  0  0  0  0
    4.8735   54.2225   19.0169 C   0  0  0  0  0  0
    4.2072   54.0765   20.3868 C   0  0  0  0  0  0
    5.2352   54.0472   21.5477 C   0  0  1  0  0  0
    5.7959   53.1123   21.5342 H   0  0  0  0  0  0
    6.3202   55.1415   21.4014 C   0  0  0  0  0  0
    6.8903   55.2970   19.9871 C   0  0  0  0  0  0
    6.1089   54.7727   18.8428 C   0  0  0  0  0  0
    6.8157   54.9650   17.4807 C   0  0  1  0  0  0
    7.3564   55.9118   17.5148 H   0  0  0  0  0  0
    7.9137   53.9511   17.1880 C   0  0  0  0  0  0
    9.2816   54.0661   16.9824 C   0  0  0  0  0  0
    9.7779   52.7768   16.7858 C   0  0  0  0  0  0
    8.6912   51.9280   16.8820 C   0  0  0  0  0  0
    7.5633   52.6381   17.1388 O   0  0  0  0  0  0
    7.9071   55.9742   19.8376 O   0  0  0  0  0  0
    4.6285   54.0809   22.9666 C   0  0  0  0  0  0
    3.2420   54.0962   23.1871 C   0  0  0  0  0  0
    2.7253   54.0970   24.4810 C   0  0  0  0  0  0
    3.5989   54.0711   25.5702 C   0  0  0  0  0  0
    4.9832   54.0968   25.3701 C   0  0  0  0  0  0
    5.4866   54.0968   24.0739 C   0  0  0  0  0  0
    3.0052   54.0832   26.9592 N   0  3  0  0  0  0
    2.3119   52.7783   27.4469 C   0  0  0  0  0  0
    1.1605   52.2934   26.5485 C   0  0  0  0  0  0
    3.9222   54.6433   28.0860 C   0  0  0  0  0  0
    4.8582   53.5932   28.7250 C   0  0  0  0  0  0
    4.7061   59.2968   17.6816 H   0  0  0  0  0  0
    4.4303   59.1747   15.9574 H   0  0  0  0  0  0
    3.5082   58.1638   17.0889 H   0  0  0  0  0  0
    5.8410   57.3241   17.8821 H   0  0  0  0  0  0
    6.5062   57.9884   16.4008 H   0  0  0  0  0  0
    6.1248   54.0127   13.9231 H   0  0  0  0  0  0
    4.9432   52.0266   13.0584 H   0  0  0  0  0  0
    3.3487   50.8171   14.5190 H   0  0  0  0  0  0
    2.9743   51.5594   16.8132 H   0  0  0  0  0  0
    3.5045   54.8967   20.4681 H   0  0  0  0  0  0
    3.6605   53.1337   20.4619 H   0  0  0  0  0  0
    7.1695   54.9753   22.0643 H   0  0  0  0  0  0
    5.8906   56.1027   21.6733 H   0  0  0  0  0  0
    9.8555   54.9810   16.9863 H   0  0  0  0  0  0
   10.8044   52.4940   16.6042 H   0  0  0  0  0  0
    8.5745   50.8577   16.8100 H   0  0  0  0  0  0
    3.2141   53.2599   18.4031 H   0  0  0  0  0  0
    2.5432   54.1064   22.3636 H   0  0  0  0  0  0
    1.6546   54.1258   24.6168 H   0  0  0  0  0  0
    5.6896   54.0986   26.1834 H   0  0  0  0  0  0
    6.5574   54.0846   23.9388 H   0  0  0  0  0  0
    3.1040   52.0400   27.5262 H   0  0  0  0  0  0
    1.9404   53.0051   28.4468 H   0  0  0  0  0  0
    0.6702   51.4295   26.9997 H   0  0  0  0  0  0
    0.3953   53.0549   26.4135 H   0  0  0  0  0  0
    1.5047   51.9729   25.5655 H   0  0  0  0  0  0
    4.4943   55.4351   27.6155 H   0  0  0  0  0  0
    3.2493   55.0937   28.8180 H   0  0  0  0  0  0
    5.6501   54.0938   29.2816 H   0  0  0  0  0  0
    4.3242   52.9488   29.4242 H   0  0  0  0  0  0
    5.3409   52.9454   27.9923 H   0  0  0  0  0  0
    2.2526   54.7572   26.9343 H   0  0  0  0  0  0
  1  2  1  0  0  0
  1 39  1  0  0  0
  1 40  1  0  0  0
  1 41  1  0  0  0
  2  3  1  0  0  0
  2 42  1  0  0  0
  2 43  1  0  0  0
  3  4  2  0  0  0
  3  5  1  0  0  0
  5 20  1  0  0  0
  5  6  1  0  0  0
  6 11  2  0  0  0
  6  7  1  0  0  0
  7  8  2  0  0  0
  7 44  1  0  0  0
  8  9  1  0  0  0
  8 45  1  0  0  0
  9 10  2  0  0  0
  9 46  1  0  0  0
 10 11  1  0  0  0
 10 47  1  0  0  0
 11 12  1  0  0  0
 12 13  1  0  0  0
 12 55  1  0  0  0
 13 19  2  0  0  0
 13 14  1  0  0  0
 14 15  1  0  0  0
 14 48  1  0  0  0
 14 49  1  0  0  0
 15 16  1  0  0  0
 15 17  1  0  0  0
 15 28  1  0  0  0
 17 50  1  0  0  0
 17 51  1  0  0  0
 17 18  1  0  0  0
 18 27  2  0  0  0
 18 19  1  0  0  0
 19 20  1  0  0  0
 20 21  1  0  0  0
 20 22  1  0  0  0
 22 26  1  0  0  0
 22 23  2  0  0  0
 23 24  1  0  0  0
 23 52  1  0  0  0
 24 25  2  0  0  0
 24 53  1  0  0  0
 25 26  1  0  0  0
 25 54  1  0  0  0
 28 33  2  0  0  0
 28 29  1  0  0  0
 29 30  2  0  0  0
 29 56  1  0  0  0
 30 31  1  0  0  0
 30 57  1  0  0  0
 31 32  2  0  0  0
 31 34  1  0  0  0
 32 33  1  0  0  0
 32 58  1  0  0  0
 33 59  1  0  0  0
 34 35  1  0  0  0
 34 37  1  0  0  0
 34 70  1  0  0  0
 35 36  1  0  0  0
 35 60  1  0  0  0
 35 61  1  0  0  0
 36 62  1  0  0  0
 36 63  1  0  0  0
 36 64  1  0  0  0
 37 38  1  0  0  0
 37 65  1  0  0  0
 37 66  1  0  0  0
 38 67  1  0  0  0
 38 68  1  0  0  0
 38 69  1  0  0  0
M  CHG  1  34   1
M  END
> <i_i_glide_confnum>
93

> <i_i_glide_lignum>
6131

> <i_i_glide_posenum>
246

> <i_i_glide_rotatable_bonds>
7

> <i_m_Source_File_Index>
4501

> <b_m_subgroup_collapsed>
0

> <r_i_docking_score>
-4.53017

> <r_i_glide_ecoul>
-0.32722

> <r_i_glide_eff_state_penalty>
0

> <r_i_glide_einternal>
8.98372

> <r_i_glide_emodel>
-39.3831

> <r_i_glide_energy>
-34.0121

> <r_i_glide_erotb>
0.345914

> <r_i_glide_esite>
-0.0296786

> <r_i_glide_evdw>
-33.6849

> <r_i_glide_gscore>
-4.53017

> <r_i_glide_hbond>
0

> <r_i_glide_ligand_efficiency>
-0.125838

> <r_i_glide_ligand_efficiency_ln>
-0.988361

> <r_i_glide_ligand_efficiency_sa>
-0.415508

> <r_i_glide_lipo>
-2.82533

> <r_i_glide_metal>
0

> <r_i_glide_rewards>
-0.287755

> <s_i_glide_gridfile>
wee1_glide-grid

> <s_m_Source_File>
wee1_decoys_glide_SP.sdf

> <s_m_Source_Path>
/Users/zhangxujun/Desktop

> <s_m_entry_id>
4776

> <s_m_entry_name>
wee1_decoys_glide_SP.4501

> <s_m_subgroup_title>
wee1_decoys_glide_SP

> <s_m_subgroupid>
wee1_decoys_glide_SP


$$$$
