@<TRIPOS>MOLECULE
ZINC55171067_1707
30   32    1
SMALL
USER_CHARGES


@<TRIPOS>ATOM
      1 C1          4.8094   54.3840   28.8612 C.3       1 UNK         0.0000 
      2 C2          3.4312   53.7446   28.8839 C.2       1 UNK         0.0000 
      3 C3          2.5379   53.4716   27.8278 C.2       1 UNK         0.0000 
      4 S4          1.0667   52.8037   28.5062 S.3       1 UNK         0.0000 
      5 C5          1.7947   52.8977   30.0713 C.2       1 UNK         0.0000 
      6 N6          3.0068   53.3845   30.0818 N.2       1 UNK         0.0000 
      7 N7          1.1104   52.4961   31.1836 N.pl3     1 UNK         0.0000 
      8 C8          2.6370   53.6956   26.4037 C.2       1 UNK         0.0000 
      9 O9          1.6446   53.6241   25.6810 O.2       1 UNK         0.0000 
     10 N10         3.8909   53.9422   25.9746 N.am      1 UNK         0.0000 
     11 C11         4.3777   54.0982   24.6641 C.ar      1 UNK         0.0000 
     12 C12         5.7235   54.4991   24.5519 C.ar      1 UNK         0.0000 
     13 C13         6.3290   54.6629   23.2985 C.ar      1 UNK         0.0000 
     14 C14         5.5612   54.3944   22.1728 C.ar      1 UNK         0.0000 
     15 C15         4.2632   53.9864   22.2695 C.ar      1 UNK         0.0000 
     16 C16         3.6272   53.8374   23.4964 C.ar      1 UNK         0.0000 
     17 O17         3.7605   53.7911   21.0243 O.3       1 UNK         0.0000 
     18 C18         4.8489   53.9054   20.1495 C.3       1 UNK         0.0000 
     19 O19         5.9040   54.4972   20.8612 O.3       1 UNK         0.0000 
     20 H20         4.9097   55.1385   28.0839 H         1 UNK         0.0000 
     21 H21         5.0549   54.8979   29.7915 H         1 UNK         0.0000 
     22 H22         5.5912   53.6407   28.6990 H         1 UNK         0.0000 
     23 H23         1.5170   52.5160   32.1085 H         1 UNK         0.0000 
     24 H24         0.1531   52.1677   31.1415 H         1 UNK         0.0000 
     25 H25         4.5910   53.9846   26.6971 H         1 UNK         0.0000 
     26 H26         6.3110   54.6887   25.4383 H         1 UNK         0.0000 
     27 H27         7.3580   54.9839   23.2195 H         1 UNK         0.0000 
     28 H28         2.6014   53.5074   23.5218 H         1 UNK         0.0000 
     29 H29         4.5791   54.5061   19.2818 H         1 UNK         0.0000 
     30 H30         5.1489   52.9076   19.8186 H         1 UNK         0.0000 
@<TRIPOS>BOND
     1    1    2 1    
     2    1   20 1    
     3    1   21 1    
     4    1   22 1    
     5    2    6 1    
     6    2    3 2    
     7    3    4 1    
     8    3    8 1    
     9    4    5 1    
    10    5    6 2    
    11    5    7 1    
    12    7   23 1    
    13    7   24 1    
    14    8    9 2    
    15    8   10 am   BACKBONE|DICT|INTERRES
    16   10   11 1    
    17   10   25 1    
    18   11   16 ar   
    19   11   12 ar   
    20   12   13 ar   
    21   12   26 1    
    22   13   14 ar   
    23   13   27 1    
    24   14   19 1    
    25   14   15 ar   
    26   15   16 ar   
    27   15   17 1    
    28   16   28 1    
    29   17   18 1    
    30   18   19 1    
    31   18   29 1    
    32   18   30 1    
@<TRIPOS>SUBSTRUCTURE
     1 UNK         1 GROUP             0       ****    0 ROOT    
