@<TRIPOS>MOLECULE
ZINC46642949_1445
48   50    1
SMALL
USER_CHARGES


@<TRIPOS>ATOM
      1 C1          5.1046   53.8854   28.6202 C.3       1 UNK         0.0000 
      2 C2          4.8797   53.6958   27.1145 C.3       1 UNK         0.0000 
      3 H3          5.0438   52.6349   26.9152 H         1 UNK         0.0000 
      4 C4          3.4512   54.1020   26.6874 C.3       1 UNK         0.0000 
      5 C5          3.1490   53.6968   25.2260 C.3       1 UNK         0.0000 
      6 C6          4.3322   54.1059   24.3569 C.2       1 UNK         0.0000 
      7 C7          5.5872   54.4965   24.8466 C.2       1 UNK         0.0000 
      8 C8          6.4681   54.8330   23.8178 C.2       1 UNK         0.0000 
      9 C9          5.9095   54.7687   22.5470 C.2       1 UNK         0.0000 
     10 S10         4.2945   54.0967   22.6204 S.3       1 UNK         0.0000 
     11 C11         6.5541   55.1420   21.3146 C.2       1 UNK         0.0000 
     12 O12         7.7749   55.2982   21.2696 O.2       1 UNK         0.0000 
     13 N13         5.7197   55.2971   20.2617 N.am      1 UNK         0.0000 
     14 N14         6.1850   55.7149   19.0082 N.am      1 UNK         0.0000 
     15 C15         6.6035   56.9868   18.8025 C.2       1 UNK         0.0000 
     16 O16         6.7049   57.8462   19.6818 O.2       1 UNK         0.0000 
     17 C17         6.9196   57.2942   17.4332 C.2       1 UNK         0.0000 
     18 C18         7.3320   58.4840   16.8449 C.2       1 UNK         0.0000 
     19 C19         7.4494   58.2421   15.4753 C.2       1 UNK         0.0000 
     20 C20         7.0981   56.9141   15.2809 C.2       1 UNK         0.0000 
     21 O21         6.7898   56.3397   16.4702 O.3       1 UNK         0.0000 
     22 S22         6.9809   55.8689   13.8055 S.o2      1 UNK         0.0000 
     23 O23         5.5869   55.4160   13.7282 O.2       1 UNK         0.0000 
     24 O24         8.0842   54.9064   13.8888 O.2       1 UNK         0.0000 
     25 N25         7.2981   57.0030   12.4737 N.pl3     1 UNK         0.0000 
     26 C26         8.6940   57.4374   12.2550 C.3       1 UNK         0.0000 
     27 C27         6.2521   58.0019   12.1672 C.3       1 UNK         0.0000 
     28 C28         5.9386   54.5032   26.3276 C.3       1 UNK         0.0000 
     29 H29         4.9720   54.9228   28.9278 H         1 UNK         0.0000 
     30 H30         4.4210   53.2700   29.2053 H         1 UNK         0.0000 
     31 H31         6.1188   53.5869   28.8838 H         1 UNK         0.0000 
     32 H32         3.2919   55.1677   26.8615 H         1 UNK         0.0000 
     33 H33         2.7240   53.6120   27.3390 H         1 UNK         0.0000 
     34 H34         2.2265   54.1684   24.8873 H         1 UNK         0.0000 
     35 H35         3.0012   52.6195   25.1728 H         1 UNK         0.0000 
     36 H36         7.4743   55.1694   24.0062 H         1 UNK         0.0000 
     37 H37         4.7125   55.2674   20.3243 H         1 UNK         0.0000 
     38 H38         6.2436   54.9718   18.3252 H         1 UNK         0.0000 
     39 H39         7.5043   59.4227   17.3529 H         1 UNK         0.0000 
     40 H40         7.7400   58.9592   14.7240 H         1 UNK         0.0000 
     41 H41         8.8191   57.7892   11.2305 H         1 UNK         0.0000 
     42 H42         9.3724   56.5983   12.4174 H         1 UNK         0.0000 
     43 H43         8.9596   58.2292   12.9547 H         1 UNK         0.0000 
     44 H44         6.3064   58.8337   12.8705 H         1 UNK         0.0000 
     45 H45         6.3723   58.3706   11.1475 H         1 UNK         0.0000 
     46 H46         5.2652   57.5462   12.2582 H         1 UNK         0.0000 
     47 H47         6.9316   54.0807   26.4915 H         1 UNK         0.0000 
     48 H48         5.9743   55.5342   26.6813 H         1 UNK         0.0000 
@<TRIPOS>BOND
     1    1    2 1    
     2    1   29 1    
     3    1   30 1    
     4    1   31 1    
     5    2    3 1    
     6    2   28 1    
     7    2    4 1    
     8    4    5 1    
     9    4   32 1    
    10    4   33 1    
    11    5    6 1    
    12    5   34 1    
    13    5   35 1    
    14    6   10 1    
    15    6    7 2    
    16    7    8 1    
    17    7   28 1    
    18    8    9 2    
    19    8   36 1    
    20    9   10 1    
    21    9   11 1    
    22   11   12 2    
    23   11   13 am   BACKBONE|DICT|INTERRES
    24   13   14 1    
    25   13   37 1    
    26   14   15 am   BACKBONE|DICT|INTERRES
    27   14   38 1    
    28   15   16 2    
    29   15   17 1    
    30   17   21 1    
    31   17   18 2    
    32   18   19 1    
    33   18   39 1    
    34   19   20 2    
    35   19   40 1    
    36   20   21 1    
    37   20   22 1    
    38   22   23 2    
    39   22   24 2    
    40   22   25 1    
    41   25   26 1    
    42   25   27 1    
    43   26   41 1    
    44   26   42 1    
    45   26   43 1    
    46   27   44 1    
    47   27   45 1    
    48   27   46 1    
    49   28   47 1    
    50   28   48 1    
@<TRIPOS>SUBSTRUCTURE
     1 UNK         1 GROUP             0       ****    0 ROOT    
