ZINC16613956_3418
                    3D
 Schrodinger Suite 2024-2.
 63 67  0  0  1  0            999 V2000
    6.2113   54.0970   25.6310 C   0  0  0  0  0  0
    5.5926   54.2908   24.2454 C   0  0  0  0  0  0
    4.2865   54.0733   23.8786 C   0  0  0  0  0  0
    3.8959   54.1833   22.3559 C   0  0  1  0  0  0
    3.1261   54.9531   22.2830 H   0  0  0  0  0  0
    5.0559   54.7084   21.5541 N   0  0  0  0  0  0
    4.8506   54.6709   20.0902 C   0  0  0  0  0  0
    5.6685   55.7319   19.3365 C   0  0  0  0  0  0
    7.1730   55.5774   19.5440 C   0  0  0  0  0  0
    7.6612   55.6967   21.2815 S   0  0  0  0  0  0
    6.3044   54.8967   22.1625 C   0  0  0  0  0  0
    6.5740   54.6862   23.3873 N   0  0  0  0  0  0
    3.2549   52.9090   21.7639 C   0  0  0  0  0  0
    4.0508   51.8967   21.2245 C   0  0  0  0  0  0
    3.4606   50.8293   20.5623 C   0  0  0  0  0  0
    2.0769   50.6958   20.5224 C   0  0  0  0  0  0
    1.2686   51.6920   21.0818 C   0  0  0  0  0  0
    1.8608   52.8012   21.6813 C   0  0  0  0  0  0
    1.5807   49.5454   19.8859 N   0  0  0  0  0  0
    0.4869   48.8384   20.2298 C   0  0  0  0  0  0
   -0.3063   49.1665   21.1129 O   0  0  0  0  0  0
    0.4141   47.6935   19.5194 N   0  0  0  0  0  0
   -0.5130   46.6448   19.6671 C   0  0  0  0  0  0
   -1.8157   46.8144   20.1662 C   0  0  0  0  0  0
   -2.6665   45.7178   20.3038 C   0  0  0  0  0  0
   -2.2268   44.4430   19.9477 C   0  0  0  0  0  0
   -0.9405   44.2652   19.4405 C   0  0  0  0  0  0
   -0.0959   45.3654   19.2816 C   0  0  0  0  0  0
   -0.5112   43.0233   19.1147 F   0  0  0  0  0  0
    3.2182   53.7267   24.8309 C   0  0  0  0  0  0
    2.2494   53.0508   24.4964 O   0  0  0  0  0  0
    3.3391   54.2155   26.0906 N   0  0  0  0  0  0
    2.5207   53.9785   27.2206 C   0  0  0  0  0  0
    1.6313   52.8970   27.3405 C   0  0  0  0  0  0
    0.8555   52.7501   28.4882 C   0  0  0  0  0  0
    0.9636   53.6776   29.5210 C   0  0  0  0  0  0
    1.8549   54.7421   29.4227 C   0  0  0  0  0  0
    2.6429   54.8784   28.2830 C   0  0  0  0  0  0
    6.1603   55.0230   26.2044 H   0  0  0  0  0  0
    5.7216   53.2986   26.1881 H   0  0  0  0  0  0
    7.2569   53.7997   25.5711 H   0  0  0  0  0  0
    5.2190   53.6996   19.7623 H   0  0  0  0  0  0
    3.7965   54.7240   19.8133 H   0  0  0  0  0  0
    5.4379   55.6731   18.2721 H   0  0  0  0  0  0
    5.3587   56.7304   19.6463 H   0  0  0  0  0  0
    7.5316   54.6157   19.1770 H   0  0  0  0  0  0
    7.7160   56.3495   18.9996 H   0  0  0  0  0  0
    5.1280   51.9621   21.2643 H   0  0  0  0  0  0
    4.0850   50.0968   20.0822 H   0  0  0  0  0  0
    0.1923   51.6303   21.0379 H   0  0  0  0  0  0
    1.2333   53.5825   22.0823 H   0  0  0  0  0  0
    2.1993   49.1458   19.1967 H   0  0  0  0  0  0
    1.1707   47.5102   18.8780 H   0  0  0  0  0  0
   -2.1852   47.7899   20.4445 H   0  0  0  0  0  0
   -3.6659   45.8601   20.6893 H   0  0  0  0  0  0
   -2.8841   43.5945   20.0581 H   0  0  0  0  0  0
    0.8971   45.2103   18.8858 H   0  0  0  0  0  0
    4.1049   54.8508   26.2452 H   0  0  0  0  0  0
    1.5319   52.1507   26.5675 H   0  0  0  0  0  0
    0.1733   51.9170   28.5728 H   0  0  0  0  0  0
    0.3539   53.5639   30.4060 H   0  0  0  0  0  0
    1.9351   55.4598   30.2267 H   0  0  0  0  0  0
    3.3413   55.6967   28.2314 H   0  0  0  0  0  0
  1  2  1  0  0  0
  1 39  1  0  0  0
  1 40  1  0  0  0
  1 41  1  0  0  0
  2 12  1  0  0  0
  2  3  2  0  0  0
  3  4  1  0  0  0
  3 30  1  0  0  0
  4  5  1  0  0  0
  4  6  1  0  0  0
  4 13  1  0  0  0
  6 11  1  0  0  0
  6  7  1  0  0  0
  7  8  1  0  0  0
  7 42  1  0  0  0
  7 43  1  0  0  0
  8  9  1  0  0  0
  8 44  1  0  0  0
  8 45  1  0  0  0
  9 10  1  0  0  0
  9 46  1  0  0  0
  9 47  1  0  0  0
 10 11  1  0  0  0
 11 12  2  0  0  0
 13 18  2  0  0  0
 13 14  1  0  0  0
 14 15  2  0  0  0
 14 48  1  0  0  0
 15 16  1  0  0  0
 15 49  1  0  0  0
 16 17  2  0  0  0
 16 19  1  0  0  0
 17 18  1  0  0  0
 17 50  1  0  0  0
 18 51  1  0  0  0
 19 20  1  0  0  0
 19 52  1  0  0  0
 20 21  2  0  0  0
 20 22  1  0  0  0
 22 23  1  0  0  0
 22 53  1  0  0  0
 23 28  2  0  0  0
 23 24  1  0  0  0
 24 25  2  0  0  0
 24 54  1  0  0  0
 25 26  1  0  0  0
 25 55  1  0  0  0
 26 27  2  0  0  0
 26 56  1  0  0  0
 27 28  1  0  0  0
 27 29  1  0  0  0
 28 57  1  0  0  0
 30 31  2  0  0  0
 30 32  1  0  0  0
 32 33  1  0  0  0
 32 58  1  0  0  0
 33 38  2  0  0  0
 33 34  1  0  0  0
 34 35  2  0  0  0
 34 59  1  0  0  0
 35 36  1  0  0  0
 35 60  1  0  0  0
 36 37  2  0  0  0
 36 61  1  0  0  0
 37 38  1  0  0  0
 37 62  1  0  0  0
 38 63  1  0  0  0
M  END
> <i_i_glide_confnum>
138

> <i_i_glide_lignum>
3419

> <i_i_glide_posenum>
112

> <i_i_glide_rotatable_bonds>
8

> <i_m_Source_File_Index>
4595

> <b_m_subgroup_collapsed>
0

> <r_i_docking_score>
-5.57044

> <r_i_glide_ecoul>
-0.433693

> <r_i_glide_eff_state_penalty>
0

> <r_i_glide_einternal>
7.55799

> <r_i_glide_emodel>
-63.6606

> <r_i_glide_energy>
-49.1444

> <r_i_glide_erotb>
0.540317

> <r_i_glide_esite>
-0.103305

> <r_i_glide_evdw>
-48.7107

> <r_i_glide_gscore>
-5.57044

> <r_i_glide_hbond>
0

> <r_i_glide_ligand_efficiency>
-0.150552

> <r_i_glide_ligand_efficiency_ln>
-1.2081

> <r_i_glide_ligand_efficiency_sa>
-0.501674

> <r_i_glide_lipo>
-2.71405

> <r_i_glide_metal>
0

> <r_i_glide_rewards>
-0.792815

> <s_i_glide_gridfile>
wee1_glide-grid

> <s_m_Source_File>
wee1_decoys_glide_SP.sdf

> <s_m_Source_Path>
/Users/zhangxujun/Desktop

> <s_m_entry_id>
4870

> <s_m_entry_name>
wee1_decoys_glide_SP.4595

> <s_m_subgroup_title>
wee1_decoys_glide_SP

> <s_m_subgroupid>
wee1_decoys_glide_SP


$$$$
