@<TRIPOS>MOLECULE
ZINC41019552_1051
65   69    1
SMALL
USER_CHARGES


@<TRIPOS>ATOM
      1 C1          5.7602   56.6967   14.1814 C.3       1 UNK         0.0000 
      2 C2          5.1917   56.0997   15.4814 C.3       1 UNK         0.0000 
      3 H3          4.2481   56.6157   15.6761 H         1 UNK         0.0000 
      4 C4          4.9642   54.5812   15.3494 C.3       1 UNK         0.0000 
      5 C5          4.1754   54.0213   16.5509 C.3       1 UNK         0.0000 
      6 C6          4.7893   54.5151   17.8758 C.2       1 UNK         0.0000 
      7 C7          5.7026   55.5844   17.8755 C.2       1 UNK         0.0000 
      8 S8          6.3639   55.8838   19.4317 S.3       1 UNK         0.0000 
      9 C9          5.4217   54.5936   20.1339 C.2       1 UNK         0.0000 
     10 C10         4.5748   53.9751   19.1866 C.2       1 UNK         0.0000 
     11 C11         3.6533   52.8878   19.5340 C.2       1 UNK         0.0000 
     12 O12         3.7106   52.3018   20.6195 O.2       1 UNK         0.0000 
     13 N13         2.7020   52.6287   18.6238 N.am      1 UNK         0.0000 
     14 C14         1.6175   51.6591   18.7344 C.3       1 UNK         0.0000 
     15 H15         1.9843   50.6360   18.8752 H         1 UNK         0.0000 
     16 C16         0.8205   51.6832   17.4078 C.3       1 UNK         0.0000 
     17 C17        -0.5092   50.9402   17.5943 C.3       1 UNK         0.0000 
     18 S18        -1.0562   51.3854   19.3239 S.o2      1 UNK         0.0000 
     19 O19        -1.3728   50.1470   20.0443 O.2       1 UNK         0.0000 
     20 O20        -2.0189   52.4938   19.2892 O.2       1 UNK         0.0000 
     21 C21         0.6179   52.0313   19.8546 C.3       1 UNK         0.0000 
     22 N22         5.5002   54.2689   21.4889 N.am      1 UNK         0.0000 
     23 C23         6.2862   54.7994   22.4480 C.2       1 UNK         0.0000 
     24 O24         7.1044   55.6963   22.2743 O.2       1 UNK         0.0000 
     25 C25         6.0924   54.2088   23.8496 C.3       1 UNK         0.0000 
     26 C26         6.4458   55.1918   24.9889 C.3       1 UNK         0.0000 
     27 C27         6.1430   54.6027   26.3461 C.2       1 UNK         0.0000 
     28 N28         7.0103   54.1531   27.2190 N.2       1 UNK         0.0000 
     29 C29         6.2608   53.7215   28.2095 C.2       1 UNK         0.0000 
     30 C30         4.9096   53.9034   27.9474 C.2       1 UNK         0.0000 
     31 O31         4.8427   54.4791   26.7216 O.3       1 UNK         0.0000 
     32 C32         3.6425   53.6129   28.6798 C.ar      1 UNK         0.0000 
     33 C33         2.4281   54.1655   28.2600 C.ar      1 UNK         0.0000 
     34 C34         1.2530   53.8848   28.9529 C.ar      1 UNK         0.0000 
     35 C35         1.2906   53.0514   30.0679 C.ar      1 UNK         0.0000 
     36 C36         2.4953   52.4967   30.4963 C.ar      1 UNK         0.0000 
     37 C37         3.6692   52.7722   29.7979 C.ar      1 UNK         0.0000 
     38 C38         6.1583   56.3763   16.6544 C.3       1 UNK         0.0000 
     39 H39         6.7157   56.2442   13.9175 H         1 UNK         0.0000 
     40 H40         5.0784   56.5393   13.3465 H         1 UNK         0.0000 
     41 H41         5.9153   57.7714   14.2768 H         1 UNK         0.0000 
     42 H42         4.4013   54.3746   14.4386 H         1 UNK         0.0000 
     43 H43         5.9146   54.0637   15.2041 H         1 UNK         0.0000 
     44 H44         4.1871   52.9313   16.4868 H         1 UNK         0.0000 
     45 H45         3.1341   54.3387   16.4800 H         1 UNK         0.0000 
     46 H46         2.7994   53.0770   17.7252 H         1 UNK         0.0000 
     47 H47         1.4133   51.2521   16.5983 H         1 UNK         0.0000 
     48 H48         0.6294   52.7178   17.1039 H         1 UNK         0.0000 
     49 H49        -0.2950   49.8705   17.5944 H         1 UNK         0.0000 
     50 H50        -1.3056   51.1253   16.8725 H         1 UNK         0.0000 
     51 H51         0.4845   53.1132   19.8082 H         1 UNK         0.0000 
     52 H52         0.8739   51.7775   20.8868 H         1 UNK         0.0000 
     53 H53         4.8803   53.5140   21.7553 H         1 UNK         0.0000 
     54 H54         5.0504   53.8959   23.9606 H         1 UNK         0.0000 
     55 H55         6.6856   53.2976   23.9368 H         1 UNK         0.0000 
     56 H56         7.5046   55.4440   24.9193 H         1 UNK         0.0000 
     57 H57         5.9039   56.1306   24.8669 H         1 UNK         0.0000 
     58 H58         6.7016   53.3038   29.0977 H         1 UNK         0.0000 
     59 H59         2.3927   54.8126   27.3952 H         1 UNK         0.0000 
     60 H60         0.3152   54.3081   28.6236 H         1 UNK         0.0000 
     61 H61         0.3808   52.8307   30.6063 H         1 UNK         0.0000 
     62 H62         2.5130   51.8587   31.3694 H         1 UNK         0.0000 
     63 H63         4.5993   52.3330   30.1276 H         1 UNK         0.0000 
     64 H64         6.1909   57.4455   16.8721 H         1 UNK         0.0000 
     65 H65         7.1707   56.0671   16.3869 H         1 UNK         0.0000 
@<TRIPOS>BOND
     1    1    2 1    
     2    1   39 1    
     3    1   40 1    
     4    1   41 1    
     5    2    3 1    
     6    2   38 1    
     7    2    4 1    
     8    4    5 1    
     9    4   42 1    
    10    4   43 1    
    11    5    6 1    
    12    5   44 1    
    13    5   45 1    
    14    6   10 1    
    15    6    7 2    
    16    7    8 1    
    17    7   38 1    
    18    8    9 1    
    19    9   10 2    
    20    9   22 am   BACKBONE|DICT|INTERRES
    21   10   11 1    
    22   11   12 2    
    23   11   13 am   BACKBONE|DICT|INTERRES
    24   13   14 1    
    25   13   46 1    
    26   14   15 1    
    27   14   21 1    
    28   14   16 1    
    29   16   17 1    
    30   16   47 1    
    31   16   48 1    
    32   17   18 1    
    33   17   49 1    
    34   17   50 1    
    35   18   19 2    
    36   18   20 2    
    37   18   21 1    
    38   21   51 1    
    39   21   52 1    
    40   22   23 am   BACKBONE|DICT|INTERRES
    41   22   53 1    
    42   23   24 2    
    43   23   25 1    
    44   25   26 1    
    45   25   54 1    
    46   25   55 1    
    47   26   27 1    
    48   26   56 1    
    49   26   57 1    
    50   27   31 1    
    51   27   28 2    
    52   28   29 1    
    53   29   30 2    
    54   29   58 1    
    55   30   31 1    
    56   30   32 1    
    57   32   37 ar   
    58   32   33 ar   
    59   33   34 ar   
    60   33   59 1    
    61   34   35 ar   
    62   34   60 1    
    63   35   36 ar   
    64   35   61 1    
    65   36   37 ar   
    66   36   62 1    
    67   37   63 1    
    68   38   64 1    
    69   38   65 1    
@<TRIPOS>SUBSTRUCTURE
     1 UNK         1 GROUP             0       ****    0 ROOT    
