ZINC39633510_283
                    3D
 Schrodinger Suite 2024-2.
 69 72  0  0  1  0            999 V2000
   -0.6211   50.6564   25.1567 C   0  0  0  0  0  0
    0.0143   51.9217   25.7670 C   0  0  2  0  0  0
   -0.8087   52.6009   25.9819 H   0  0  0  0  0  0
    0.9638   52.6377   24.7297 C   0  0  0  0  0  0
    0.5323   52.8016   23.5856 O   0  0  0  0  0  0
    2.2106   53.0824   25.0465 N   0  0  0  0  0  0
    3.1254   53.7274   24.1001 C   0  0  0  0  0  0
    4.0712   54.5841   24.9646 C   0  0  1  0  0  0
    3.7026   55.6237   24.9620 H   0  0  0  0  0  0
    3.9591   53.9991   26.4205 C   0  0  0  0  0  0
    2.7057   53.1252   26.4023 C   0  0  0  0  0  0
    5.2244   53.2961   26.9742 C   0  0  0  0  0  0
    5.0006   52.7169   28.3760 C   0  0  0  0  0  0
    4.7030   53.8984   29.2870 N   0  3  0  0  0  0
    3.4645   54.6748   28.8644 C   0  0  0  0  0  0
    3.7528   55.0906   27.4374 C   0  0  0  0  0  0
    5.5256   54.7073   24.3716 C   0  0  0  0  0  0
    6.3821   55.2606   25.0591 O   0  0  0  0  0  0
    5.9043   54.3454   23.1296 N   0  0  0  0  0  0
    5.2136   54.4973   21.8393 C   0  0  0  0  0  0
    5.9073   55.5977   20.9775 C   0  0  0  0  0  0
    7.0225   55.2036   19.9897 C   0  0  0  0  0  0
    6.4864   54.6701   18.6495 C   0  0  0  0  0  0
    5.7718   53.3035   18.6787 C   0  0  0  0  0  0
    4.6013   53.1585   19.6682 C   0  0  0  0  0  0
    5.0163   53.1234   21.1521 C   0  0  0  0  0  0
    0.6864   51.4045   26.9372 O   0  0  0  0  0  0
    0.6390   52.0214   28.1835 C   0  0  0  0  0  0
    1.5091   51.5174   29.1512 C   0  0  0  0  0  0
    1.5828   52.0964   30.4224 C   0  0  0  0  0  0
    0.7539   53.1626   30.7404 C   0  0  0  0  0  0
   -0.0952   53.6892   29.7770 C   0  0  0  0  0  0
   -0.1431   53.1349   28.4994 C   0  0  0  0  0  0
   -1.2256   50.8804   24.2739 H   0  0  0  0  0  0
    0.1347   49.9247   24.8650 H   0  0  0  0  0  0
   -1.2844   50.1751   25.8816 H   0  0  0  0  0  0
    3.6867   52.9146   23.6652 H   0  0  0  0  0  0
    2.6050   54.3333   23.3604 H   0  0  0  0  0  0
    1.9248   53.6473   26.9465 H   0  0  0  0  0  0
    2.9028   52.1274   26.7830 H   0  0  0  0  0  0
    5.4992   52.4967   26.3236 H   0  0  0  0  0  0
    6.1017   53.9327   27.0076 H   0  0  0  0  0  0
    4.1754   52.0162   28.4637 H   0  0  0  0  0  0
    5.9047   52.2738   28.7595 H   0  0  0  0  0  0
    4.5996   53.5686   30.2371 H   0  0  0  0  0  0
    2.6039   54.0263   28.9658 H   0  0  0  0  0  0
    3.3713   55.5240   29.5445 H   0  0  0  0  0  0
    4.6473   55.6965   27.4042 H   0  0  0  0  0  0
    2.8962   55.6939   27.1642 H   0  0  0  0  0  0
    6.8991   54.4610   23.0214 H   0  0  0  0  0  0
    4.2220   54.9020   22.0487 H   0  0  0  0  0  0
    5.1608   56.0818   20.3556 H   0  0  0  0  0  0
    6.2680   56.3955   21.6222 H   0  0  0  0  0  0
    7.6243   56.0955   19.7668 H   0  0  0  0  0  0
    7.7226   54.4985   20.4325 H   0  0  0  0  0  0
    5.8094   55.4081   18.2134 H   0  0  0  0  0  0
    7.3219   54.6018   17.9525 H   0  0  0  0  0  0
    5.4051   53.0922   17.6758 H   0  0  0  0  0  0
    6.4936   52.5142   18.8671 H   0  0  0  0  0  0
    3.8541   53.9385   19.4999 H   0  0  0  0  0  0
    4.0905   52.2225   19.4414 H   0  0  0  0  0  0
    5.8980   52.4952   21.3048 H   0  0  0  0  0  0
    4.2182   52.6001   21.6745 H   0  0  0  0  0  0
    2.1171   50.6615   28.8784 H   0  0  0  0  0  0
    2.2438   51.6989   31.1811 H   0  0  0  0  0  0
    0.7540   53.5740   31.7377 H   0  0  0  0  0  0
   -0.7390   54.5021   30.0409 H   0  0  0  0  0  0
   -0.8207   53.5807   27.7921 H   0  0  0  0  0  0
    5.5026   54.5237   29.2759 H   0  0  0  0  0  0
  1  2  1  0  0  0
  1 34  1  0  0  0
  1 35  1  0  0  0
  1 36  1  0  0  0
  2  3  1  0  0  0
  2  4  1  0  0  0
  2 27  1  0  0  0
  4  5  2  0  0  0
  4  6  1  0  0  0
  6 11  1  0  0  0
  6  7  1  0  0  0
  7  8  1  0  0  0
  7 37  1  0  0  0
  7 38  1  0  0  0
  8  9  1  0  0  0
  8 10  1  0  0  0
  8 17  1  0  0  0
 10 16  1  0  0  0
 10 11  1  0  0  0
 10 12  1  0  0  0
 11 39  1  0  0  0
 11 40  1  0  0  0
 12 13  1  0  0  0
 12 41  1  0  0  0
 12 42  1  0  0  0
 13 14  1  0  0  0
 13 43  1  0  0  0
 13 44  1  0  0  0
 14 15  1  0  0  0
 14 45  1  0  0  0
 14 69  1  0  0  0
 15 16  1  0  0  0
 15 46  1  0  0  0
 15 47  1  0  0  0
 16 48  1  0  0  0
 16 49  1  0  0  0
 17 18  2  0  0  0
 17 19  1  0  0  0
 19 20  1  0  0  0
 19 50  1  0  0  0
 20 26  1  0  0  0
 20 21  1  0  0  0
 20 51  1  0  0  0
 21 22  1  0  0  0
 21 52  1  0  0  0
 21 53  1  0  0  0
 22 23  1  0  0  0
 22 54  1  0  0  0
 22 55  1  0  0  0
 23 24  1  0  0  0
 23 56  1  0  0  0
 23 57  1  0  0  0
 24 25  1  0  0  0
 24 58  1  0  0  0
 24 59  1  0  0  0
 25 26  1  0  0  0
 25 60  1  0  0  0
 25 61  1  0  0  0
 26 62  1  0  0  0
 26 63  1  0  0  0
 27 28  1  0  0  0
 28 33  2  0  0  0
 28 29  1  0  0  0
 29 30  2  0  0  0
 29 64  1  0  0  0
 30 31  1  0  0  0
 30 65  1  0  0  0
 31 32  2  0  0  0
 31 66  1  0  0  0
 32 33  1  0  0  0
 32 67  1  0  0  0
 33 68  1  0  0  0
M  CHG  1  14   1
M  END
> <i_i_glide_confnum>
952

> <i_i_glide_lignum>
284

> <i_i_glide_posenum>
80

> <i_i_glide_rotatable_bonds>
7

> <i_m_Source_File_Index>
5870

> <b_m_subgroup_collapsed>
0

> <r_i_docking_score>
0.0318979

> <r_i_glide_ecoul>
0.973577

> <r_i_glide_eff_state_penalty>
0

> <r_i_glide_einternal>
20.4647

> <r_i_glide_emodel>
4.92835

> <r_i_glide_energy>
-16.4218

> <r_i_glide_erotb>
0.648875

> <r_i_glide_esite>
0

> <r_i_glide_evdw>
-17.3954

> <r_i_glide_gscore>
0.0318979

> <r_i_glide_hbond>
0

> <r_i_glide_ligand_efficiency>
0.00102897

> <r_i_glide_ligand_efficiency_ln>
0.00719396

> <r_i_glide_ligand_efficiency_sa>
0.00323237

> <r_i_glide_lipo>
-2.37877

> <r_i_glide_metal>
0

> <r_i_glide_rewards>
2.48553

> <s_i_glide_gridfile>
wee1_glide-grid

> <s_m_Source_File>
wee1_decoys_glide_SP.sdf

> <s_m_Source_Path>
/Users/zhangxujun/Desktop

> <s_m_entry_id>
6145

> <s_m_entry_name>
wee1_decoys_glide_SP.5870

> <s_m_subgroup_title>
wee1_decoys_glide_SP

> <s_m_subgroupid>
wee1_decoys_glide_SP


$$$$
