@<TRIPOS>MOLECULE
ZINC47498103_1327
51   53    1
SMALL
USER_CHARGES


@<TRIPOS>ATOM
      1 C1          0.6661   51.0349   27.4806 C.3       1 UNK         0.0000 
      2 C2          0.2885   52.4032   28.0882 C.3       1 UNK         0.0000 
      3 H3         -0.6578   52.7070   27.6357 H         1 UNK         0.0000 
      4 C4          0.0473   52.3644   29.6138 C.3       1 UNK         0.0000 
      5 C5          1.3570   52.2066   30.4092 C.3       1 UNK         0.0000 
      6 H6          1.8437   51.2967   30.0712 H         1 UNK         0.0000 
      7 C7          2.3133   53.3671   30.0813 C.3       1 UNK         0.0000 
      8 N8          2.6186   53.3684   28.5645 N.4       1 UNK         0.0000 
      9 C9          1.3174   53.5037   27.7221 C.3       1 UNK         0.0000 
     10 C10         3.6362   54.5003   28.2538 C.3       1 UNK         0.0000 
     11 C11         4.3898   54.3732   26.9364 C.ar      1 UNK         0.0000 
     12 C12         3.7394   54.6204   25.7312 C.ar      1 UNK         0.0000 
     13 C13         4.4228   54.5970   24.5299 C.ar      1 UNK         0.0000 
     14 C14         5.8000   54.3941   24.5143 C.ar      1 UNK         0.0000 
     15 C15         6.4525   54.1226   25.7189 C.ar      1 UNK         0.0000 
     16 C16         5.7588   54.1042   26.9261 C.ar      1 UNK         0.0000 
     17 C17         6.6017   54.4643   23.2101 C.3       1 UNK         0.0000 
     18 N18         5.8312   54.4959   21.9537 N.am      1 UNK         0.0000 
     19 C19         5.1043   53.4646   21.4896 C.2       1 UNK         0.0000 
     20 O20         5.1046   52.3672   22.0416 O.2       1 UNK         0.0000 
     21 N21         4.4306   53.7772   20.3669 N.am      1 UNK         0.0000 
     22 C22         3.6369   52.9278   19.6060 C.2       1 UNK         0.0000 
     23 N23         3.1879   53.2986   18.4322 N.2       1 UNK         0.0000 
     24 N24         2.4176   52.3212   17.8137 N.2       1 UNK         0.0000 
     25 C25         2.2999   51.2439   18.5482 C.2       1 UNK         0.0000 
     26 S26         3.1038   51.3268   20.0827 S.3       1 UNK         0.0000 
     27 C27         1.1040   52.0965   31.9227 C.3       1 UNK         0.0000 
     28 H28         1.6144   50.6559   27.8600 H         1 UNK         0.0000 
     29 H29        -0.0992   50.2861   27.6824 H         1 UNK         0.0000 
     30 H30         0.7550   51.0969   26.3956 H         1 UNK         0.0000 
     31 H31        -0.4739   53.2661   29.9417 H         1 UNK         0.0000 
     32 H32        -0.6357   51.5495   29.8663 H         1 UNK         0.0000 
     33 H33         3.2683   53.2105   30.5892 H         1 UNK         0.0000 
     34 H34         1.9045   54.3464   30.3458 H         1 UNK         0.0000 
     35 H35         0.9255   54.5107   27.8788 H         1 UNK         0.0000 
     36 H36         1.6039   53.3718   26.6822 H         1 UNK         0.0000 
     37 H37         4.3502   54.5041   29.0810 H         1 UNK         0.0000 
     38 H38         3.0745   55.4352   28.3025 H         1 UNK         0.0000 
     39 H39         2.7043   54.8736   25.7048 H         1 UNK         0.0000 
     40 H40         3.8751   54.8112   23.6251 H         1 UNK         0.0000 
     41 H41         7.5043   53.9333   25.7244 H         1 UNK         0.0000 
     42 H42         6.2967   53.9133   27.8445 H         1 UNK         0.0000 
     43 H43         7.3031   53.6250   23.1816 H         1 UNK         0.0000 
     44 H44         7.2239   55.3591   23.2520 H         1 UNK         0.0000 
     45 H45         5.7900   55.3805   21.4694 H         1 UNK         0.0000 
     46 H46         4.5486   54.7033   19.9871 H         1 UNK         0.0000 
     47 H47         1.7914   50.3494   18.2221 H         1 UNK         0.0000 
     48 H48         0.6827   53.0155   32.3349 H         1 UNK         0.0000 
     49 H49         0.3987   51.2973   32.1563 H         1 UNK         0.0000 
     50 H50         2.0257   51.8823   32.4615 H         1 UNK         0.0000 
     51 H51         3.0480   52.4824   28.3326 H         1 UNK         0.0000 
@<TRIPOS>BOND
     1    1    2 1    
     2    1   28 1    
     3    1   29 1    
     4    1   30 1    
     5    2    3 1    
     6    2    9 1    
     7    2    4 1    
     8    4    5 1    
     9    4   31 1    
    10    4   32 1    
    11    5    6 1    
    12    5    7 1    
    13    5   27 1    
    14    7    8 1    
    15    7   33 1    
    16    7   34 1    
    17    8    9 1    
    18    8   10 1    
    19    8   51 1    
    20    9   35 1    
    21    9   36 1    
    22   10   11 1    
    23   10   37 1    
    24   10   38 1    
    25   11   16 ar   
    26   11   12 ar   
    27   12   13 ar   
    28   12   39 1    
    29   13   14 ar   
    30   13   40 1    
    31   14   15 ar   
    32   14   17 1    
    33   15   16 ar   
    34   15   41 1    
    35   16   42 1    
    36   17   18 1    
    37   17   43 1    
    38   17   44 1    
    39   18   19 am   BACKBONE|DICT|INTERRES
    40   18   45 1    
    41   19   20 2    
    42   19   21 am   BACKBONE|DICT|INTERRES
    43   21   22 am   BACKBONE|DICT|INTERRES
    44   21   46 1    
    45   22   26 1    
    46   22   23 2    
    47   23   24 1    
    48   24   25 2    
    49   25   26 1    
    50   25   47 1    
    51   27   48 1    
    52   27   49 1    
    53   27   50 1    
@<TRIPOS>SUBSTRUCTURE
     1 UNK         1 GROUP             0       ****    0 ROOT    
