@<TRIPOS>MOLECULE
ZINC39672135_1289
73   76    1
SMALL
USER_CHARGES


@<TRIPOS>ATOM
      1 C1         -0.3340   54.9882   17.3837 C.3       1 UNK         0.0000 
      2 C2         -1.6986   54.2900   17.4755 C.3       1 UNK         0.0000 
      3 C3         -1.6808   52.7974   17.0776 C.3       1 UNK         0.0000 
      4 C4         -0.6710   51.8699   17.8188 C.3       1 UNK         0.0000 
      5 H5          0.3243   52.2165   17.5382 H         1 UNK         0.0000 
      6 C6         -0.8232   50.4213   17.3006 C.3       1 UNK         0.0000 
      7 C7         -0.7793   51.8979   19.3679 C.2       1 UNK         0.0000 
      8 O8         -1.8846   52.0966   19.8826 O.2       1 UNK         0.0000 
      9 N9          0.3392   51.7407   20.1233 N.am      1 UNK         0.0000 
     10 C10         1.6596   51.3711   19.5916 C.3       1 UNK         0.0000 
     11 C11         2.4728   50.9608   20.8363 C.3       1 UNK         0.0000 
     12 H12         3.0667   50.0802   20.5807 H         1 UNK         0.0000 
     13 C13         1.4130   50.6245   21.9360 C.3       1 UNK         0.0000 
     14 C14         0.2787   51.6225   21.5870 C.3       1 UNK         0.0000 
     15 C15         0.9498   49.1526   21.7438 C.3       1 UNK         0.0000 
     16 C16        -0.2262   48.7551   22.6732 C.3       1 UNK         0.0000 
     17 N17         0.2054   48.9752   24.1427 N.4       1 UNK         0.0000 
     18 C18         0.7389   50.3973   24.4083 C.3       1 UNK         0.0000 
     19 C19         1.8908   50.6570   23.4178 C.3       1 UNK         0.0000 
     20 C20         3.5092   52.0214   21.2817 C.2       1 UNK         0.0000 
     21 O21         4.6204   51.6737   21.6775 O.2       1 UNK         0.0000 
     22 N22         3.1041   53.2967   21.3254 N.am      1 UNK         0.0000 
     23 C23         3.8504   54.3971   21.9233 C.3       1 UNK         0.0000 
     24 C24         4.0142   54.3211   23.4400 C.ar      1 UNK         0.0000 
     25 C25         2.9115   54.1247   24.2692 C.ar      1 UNK         0.0000 
     26 C26         3.0721   54.0880   25.6516 C.ar      1 UNK         0.0000 
     27 C27         4.3262   54.2959   26.2434 C.ar      1 UNK         0.0000 
     28 C28         5.4452   54.5105   25.4020 C.ar      1 UNK         0.0000 
     29 C29         5.2723   54.4941   24.0145 C.ar      1 UNK         0.0000 
     30 C30         6.8185   54.7985   25.9857 C.3       1 UNK         0.0000 
     31 C31         6.9697   54.0821   27.3295 C.3       1 UNK         0.0000 
     32 C32         5.8006   54.4516   28.2502 C.3       1 UNK         0.0000 
     33 N33         4.4861   54.2031   27.6361 N.pl3     1 UNK         0.0000 
     34 C34         3.4519   54.4999   28.6292 C.3       1 UNK         0.0000 
     35 H35        -0.4190   56.0468   17.6341 H         1 UNK         0.0000 
     36 H36         0.0837   54.9180   16.3782 H         1 UNK         0.0000 
     37 H37         0.3810   54.5492   18.0795 H         1 UNK         0.0000 
     38 H38        -2.0960   54.4000   18.4814 H         1 UNK         0.0000 
     39 H39        -2.4035   54.8144   16.8291 H         1 UNK         0.0000 
     40 H40        -2.6912   52.4040   17.2027 H         1 UNK         0.0000 
     41 H41        -1.4807   52.7400   16.0063 H         1 UNK         0.0000 
     42 H42        -0.0962   49.7416   17.7467 H         1 UNK         0.0000 
     43 H43        -1.8147   50.0201   17.5186 H         1 UNK         0.0000 
     44 H44        -0.6796   50.3725   16.2205 H         1 UNK         0.0000 
     45 H45         1.5827   50.4784   18.9693 H         1 UNK         0.0000 
     46 H46         2.1632   52.1441   19.0058 H         1 UNK         0.0000 
     47 H47         0.5692   52.5787   22.0232 H         1 UNK         0.0000 
     48 H48        -0.6877   51.3438   22.0044 H         1 UNK         0.0000 
     49 H49         0.6166   48.9958   20.7163 H         1 UNK         0.0000 
     50 H50         1.8095   48.4968   21.8675 H         1 UNK         0.0000 
     51 H51        -1.1299   49.3449   22.5154 H         1 UNK         0.0000 
     52 H52        -0.4959   47.7012   22.5891 H         1 UNK         0.0000 
     53 H53        -0.5600   48.7733   24.7747 H         1 UNK         0.0000 
     54 H54        -0.0993   51.0877   24.3006 H         1 UNK         0.0000 
     55 H55         1.0699   50.4018   25.4476 H         1 UNK         0.0000 
     56 H56         2.7045   49.9491   23.5777 H         1 UNK         0.0000 
     57 H57         2.3039   51.6308   23.6648 H         1 UNK         0.0000 
     58 H58         2.2194   53.5427   20.9006 H         1 UNK         0.0000 
     59 H59         4.8117   54.5130   21.4176 H         1 UNK         0.0000 
     60 H60         3.2792   55.2967   21.7139 H         1 UNK         0.0000 
     61 H61         1.9272   53.9951   23.8423 H         1 UNK         0.0000 
     62 H62         2.1980   53.8937   26.2520 H         1 UNK         0.0000 
     63 H63         6.1280   54.6587   23.3745 H         1 UNK         0.0000 
     64 H64         7.5962   54.4986   25.2853 H         1 UNK         0.0000 
     65 H65         6.9141   55.8757   26.1273 H         1 UNK         0.0000 
     66 H66         7.9044   54.3589   27.8128 H         1 UNK         0.0000 
     67 H67         7.0094   53.0000   27.1932 H         1 UNK         0.0000 
     68 H68         5.8623   55.5337   28.3724 H         1 UNK         0.0000 
     69 H69         5.8822   54.0984   29.2795 H         1 UNK         0.0000 
     70 H70         3.4818   55.5521   28.9146 H         1 UNK         0.0000 
     71 H71         2.4471   54.2858   28.2748 H         1 UNK         0.0000 
     72 H72         3.6000   53.9012   29.5282 H         1 UNK         0.0000 
     73 H73         0.9436   48.3199   24.3762 H         1 UNK         0.0000 
@<TRIPOS>BOND
     1    1    2 1    
     2    1   35 1    
     3    1   36 1    
     4    1   37 1    
     5    2    3 1    
     6    2   38 1    
     7    2   39 1    
     8    3    4 1    
     9    3   40 1    
    10    3   41 1    
    11    4    5 1    
    12    4    6 1    
    13    4    7 1    
    14    6   42 1    
    15    6   43 1    
    16    6   44 1    
    17    7    8 2    
    18    7    9 am   BACKBONE|DICT|INTERRES
    19    9   14 1    
    20    9   10 1    
    21   10   11 1    
    22   10   45 1    
    23   10   46 1    
    24   11   12 1    
    25   11   13 1    
    26   11   20 1    
    27   13   19 1    
    28   13   14 1    
    29   13   15 1    
    30   14   47 1    
    31   14   48 1    
    32   15   16 1    
    33   15   49 1    
    34   15   50 1    
    35   16   17 1    
    36   16   51 1    
    37   16   52 1    
    38   17   18 1    
    39   17   53 1    
    40   17   73 1    
    41   18   19 1    
    42   18   54 1    
    43   18   55 1    
    44   19   56 1    
    45   19   57 1    
    46   20   21 2    
    47   20   22 am   BACKBONE|DICT|INTERRES
    48   22   23 1    
    49   22   58 1    
    50   23   24 1    
    51   23   59 1    
    52   23   60 1    
    53   24   29 ar   
    54   24   25 ar   
    55   25   26 ar   
    56   25   61 1    
    57   26   27 ar   
    58   26   62 1    
    59   27   33 1    
    60   27   28 ar   
    61   28   29 ar   
    62   28   30 1    
    63   29   63 1    
    64   30   31 1    
    65   30   64 1    
    66   30   65 1    
    67   31   32 1    
    68   31   66 1    
    69   31   67 1    
    70   32   33 1    
    71   32   68 1    
    72   32   69 1    
    73   33   34 1    
    74   34   70 1    
    75   34   71 1    
    76   34   72 1    
@<TRIPOS>SUBSTRUCTURE
     1 UNK         1 GROUP             0       ****    0 ROOT    
