ZINC02168765_1958
                    3D
 Schrodinger Suite 2024-2.
 51 54  0  0  1  0            999 V2000
    6.5582   54.6902   27.9524 C   0  0  0  0  0  0
    5.7383   54.4204   26.7290 C   0  0  0  0  0  0
    6.1234   54.4204   25.4064 C   0  0  0  0  0  0
    5.0226   54.1582   24.5901 C   0  0  0  0  0  0
    3.9488   53.9620   25.4700 C   0  0  0  0  0  0
    4.3831   54.1604   26.7791 N   0  0  0  0  0  0
    3.5605   54.1783   27.9444 C   0  0  0  0  0  0
    2.6561   55.2246   28.0371 C   0  0  0  0  0  0
    1.7230   55.3019   29.0554 C   0  0  0  0  0  0
    1.6901   54.3035   30.0151 C   0  0  0  0  0  0
    2.6387   53.2663   30.0194 C   0  0  0  0  0  0
    3.6167   53.2304   28.9856 C   0  0  0  0  0  0
    4.7286   52.1970   28.9763 C   0  0  0  0  0  0
    2.5647   52.2634   31.1367 C   0  0  0  0  0  0
    1.4541   52.0966   31.6816 O   0  0  0  0  0  0
    3.6124   51.6973   31.5186 O   0  5  0  0  0  0
    2.5019   53.6065   25.1605 C   0  0  0  0  0  0
    5.0198   54.0967   23.1314 C   0  0  0  0  0  0
    5.8993   54.7321   22.4653 N   0  0  0  0  0  0
    5.7170   54.6503   21.1339 N   0  0  0  0  0  0
    6.3395   55.4746   20.2644 C   0  0  0  0  0  0
    7.0682   56.4232   20.5769 O   0  0  0  0  0  0
    6.0925   55.1563   18.8797 C   0  0  0  0  0  0
    6.4662   55.8410   17.7252 C   0  0  0  0  0  0
    5.9953   55.0665   16.6202 C   0  0  0  0  0  0
    6.0304   55.1701   15.2202 C   0  0  0  0  0  0
    5.4413   54.1548   14.4584 C   0  0  0  0  0  0
    4.8259   53.0544   15.0607 C   0  0  0  0  0  0
    4.7689   52.9271   16.4491 C   0  0  0  0  0  0
    5.3610   53.9455   17.2037 C   0  0  0  0  0  0
    5.4170   54.0060   18.5668 O   0  0  0  0  0  0
    7.4204   55.2973   27.6816 H   0  0  0  0  0  0
    5.9738   55.2296   28.7025 H   0  0  0  0  0  0
    6.9496   53.7836   28.4113 H   0  0  0  0  0  0
    7.1253   54.6079   25.0468 H   0  0  0  0  0  0
    2.7041   55.9823   27.2828 H   0  0  0  0  0  0
    1.0264   56.1260   29.0923 H   0  0  0  0  0  0
    0.9372   54.3665   30.7898 H   0  0  0  0  0  0
    5.4995   52.4965   29.6804 H   0  0  0  0  0  0
    4.3608   51.2240   29.2808 H   0  0  0  0  0  0
    5.1923   52.0968   28.0015 H   0  0  0  0  0  0
    2.4112   53.0515   24.2269 H   0  0  0  0  0  0
    2.0533   52.9777   25.9306 H   0  0  0  0  0  0
    1.8781   54.4933   25.0593 H   0  0  0  0  0  0
    4.2027   53.5139   22.7103 H   0  0  0  0  0  0
    5.0471   53.9665   20.8100 H   0  0  0  0  0  0
    7.0132   56.7720   17.6995 H   0  0  0  0  0  0
    6.5061   56.0130   14.7418 H   0  0  0  0  0  0
    5.4642   54.2186   13.3795 H   0  0  0  0  0  0
    4.3882   52.2847   14.4405 H   0  0  0  0  0  0
    4.3037   52.0750   16.9235 H   0  0  0  0  0  0
  1  2  1  0  0  0
  1 32  1  0  0  0
  1 33  1  0  0  0
  1 34  1  0  0  0
  2  6  1  0  0  0
  2  3  2  0  0  0
  3  4  1  0  0  0
  3 35  1  0  0  0
  4  5  2  0  0  0
  4 18  1  0  0  0
  5  6  1  0  0  0
  5 17  1  0  0  0
  6  7  1  0  0  0
  7 12  2  0  0  0
  7  8  1  0  0  0
  8  9  2  0  0  0
  8 36  1  0  0  0
  9 10  1  0  0  0
  9 37  1  0  0  0
 10 11  2  0  0  0
 10 38  1  0  0  0
 11 12  1  0  0  0
 11 14  1  0  0  0
 12 13  1  0  0  0
 13 39  1  0  0  0
 13 40  1  0  0  0
 13 41  1  0  0  0
 14 15  2  0  0  0
 14 16  1  0  0  0
 17 42  1  0  0  0
 17 43  1  0  0  0
 17 44  1  0  0  0
 18 19  2  0  0  0
 18 45  1  0  0  0
 19 20  1  0  0  0
 20 21  1  0  0  0
 20 46  1  0  0  0
 21 22  2  0  0  0
 21 23  1  0  0  0
 23 31  1  0  0  0
 23 24  2  0  0  0
 24 25  1  0  0  0
 24 47  1  0  0  0
 25 30  2  0  0  0
 25 26  1  0  0  0
 26 27  2  0  0  0
 26 48  1  0  0  0
 27 28  1  0  0  0
 27 49  1  0  0  0
 28 29  2  0  0  0
 28 50  1  0  0  0
 29 30  1  0  0  0
 29 51  1  0  0  0
 30 31  1  0  0  0
M  CHG  1  16  -1
M  END
> <i_i_glide_confnum>
16

> <i_i_glide_lignum>
1959

> <i_i_glide_posenum>
123

> <i_i_glide_rotatable_bonds>
6

> <i_m_Source_File_Index>
4038

> <b_m_subgroup_collapsed>
0

> <r_i_docking_score>
-6.18632

> <r_i_glide_ecoul>
-3.51135

> <r_i_glide_eff_state_penalty>
0

> <r_i_glide_einternal>
5.40939

> <r_i_glide_emodel>
-49.3106

> <r_i_glide_energy>
-34.5236

> <r_i_glide_erotb>
0.459666

> <r_i_glide_esite>
-0.0649688

> <r_i_glide_evdw>
-31.0122

> <r_i_glide_gscore>
-6.18632

> <r_i_glide_hbond>
-0.406018

> <r_i_glide_ligand_efficiency>
-0.199559

> <r_i_glide_ligand_efficiency_ln>
-1.39521

> <r_i_glide_ligand_efficiency_sa>
-0.62689

> <r_i_glide_lipo>
-2.59039

> <r_i_glide_metal>
0

> <r_i_glide_rewards>
-1.5073

> <s_i_glide_gridfile>
wee1_glide-grid

> <s_m_Source_File>
wee1_decoys_glide_SP.sdf

> <s_m_Source_Path>
/Users/zhangxujun/Desktop

> <s_m_entry_id>
4313

> <s_m_entry_name>
wee1_decoys_glide_SP.4038

> <s_m_subgroup_title>
wee1_decoys_glide_SP

> <s_m_subgroupid>
wee1_decoys_glide_SP


$$$$
