ZINC65025204_508
                    3D
 Schrodinger Suite 2024-2.
 50 52  0  0  1  0            999 V2000
    5.1469   53.8976   23.0308 C   0  0  0  0  0  0
    3.6992   53.8887   22.4904 C   0  0  0  0  0  0
    3.6376   53.1906   21.1217 C   0  0  0  0  0  0
    2.7071   53.2979   23.3950 N   0  0  0  0  0  0
    2.4609   53.6187   24.6815 C   0  0  0  0  0  0
    3.1395   54.4413   25.2958 O   0  0  0  0  0  0
    1.2768   52.9076   25.3282 C   0  0  0  0  0  0
    0.2069   52.4653   24.5272 C   0  0  0  0  0  0
   -0.9243   51.8487   25.0628 C   0  0  0  0  0  0
   -0.9278   51.6742   26.4530 C   0  0  0  0  0  0
    0.0670   52.0942   27.2718 N   0  0  0  0  0  0
    1.1489   52.7080   26.7260 C   0  0  0  0  0  0
    2.1044   53.1124   27.6456 N   0  0  0  0  0  0
    2.7901   52.1465   28.5052 C   0  0  0  0  0  0
    4.2579   52.5623   28.7276 C   0  0  0  0  0  0
    4.3028   53.9509   29.3806 N   0  3  0  0  0  0
    3.4658   54.9960   28.6197 C   0  0  0  0  0  0
    2.0679   54.4477   28.2563 C   0  0  0  0  0  0
   -1.9015   51.4568   24.1829 N   0  5  0  0  0  0
   -3.3244   50.9469   24.6052 S   0  0  0  0  0  0
   -4.2367   50.8443   23.4617 O   0  0  0  0  0  0
   -3.8605   51.5825   25.8140 O   0  0  0  0  0  0
   -3.1008   49.2131   25.0866 C   0  0  0  0  0  0
   -1.9249   48.4707   25.0170 C   0  0  0  0  0  0
   -2.0958   47.1509   25.4449 C   0  0  0  0  0  0
   -3.3978   46.8754   25.8360 C   0  0  0  0  0  0
   -4.4222   48.2703   25.6988 S   0  0  0  0  0  0
   -4.0922   45.2254   26.4800 Br  0  0  0  0  0  0
    5.8358   54.2789   22.2759 H   0  0  0  0  0  0
    5.2625   54.5483   23.8965 H   0  0  0  0  0  0
    5.4932   52.8972   23.2886 H   0  0  0  0  0  0
    3.3939   54.9258   22.3319 H   0  0  0  0  0  0
    4.3669   53.6171   20.4331 H   0  0  0  0  0  0
    3.8736   52.1283   21.2022 H   0  0  0  0  0  0
    2.6590   53.2958   20.6520 H   0  0  0  0  0  0
    2.1320   52.5799   22.9800 H   0  0  0  0  0  0
    0.2283   52.6206   23.4572 H   0  0  0  0  0  0
   -1.7396   51.1699   26.9558 H   0  0  0  0  0  0
    2.2482   52.1086   29.4517 H   0  0  0  0  0  0
    2.7040   51.1474   28.0826 H   0  0  0  0  0  0
    4.8118   52.6358   27.7878 H   0  0  0  0  0  0
    4.7890   51.8898   29.4036 H   0  0  0  0  0  0
    5.2619   54.2695   29.4478 H   0  0  0  0  0  0
    4.0428   55.2631   27.7322 H   0  0  0  0  0  0
    3.4082   55.8630   29.2783 H   0  0  0  0  0  0
    1.4995   55.1612   27.6627 H   0  0  0  0  0  0
    1.4948   54.3096   29.1746 H   0  0  0  0  0  0
   -0.9814   48.8708   24.6773 H   0  0  0  0  0  0
   -1.2959   46.4283   25.4835 H   0  0  0  0  0  0
    3.9503   53.8616   30.3203 H   0  0  0  0  0  0
  1  2  1  0  0  0
  1 29  1  0  0  0
  1 30  1  0  0  0
  1 31  1  0  0  0
  2  3  1  0  0  0
  2  4  1  0  0  0
  2 32  1  0  0  0
  3 33  1  0  0  0
  3 34  1  0  0  0
  3 35  1  0  0  0
  4  5  1  0  0  0
  4 36  1  0  0  0
  5  6  2  0  0  0
  5  7  1  0  0  0
  7 12  2  0  0  0
  7  8  1  0  0  0
  8  9  2  0  0  0
  8 37  1  0  0  0
  9 10  1  0  0  0
  9 19  1  0  0  0
 10 11  2  0  0  0
 10 38  1  0  0  0
 11 12  1  0  0  0
 12 13  1  0  0  0
 13 18  1  0  0  0
 13 14  1  0  0  0
 14 15  1  0  0  0
 14 39  1  0  0  0
 14 40  1  0  0  0
 15 16  1  0  0  0
 15 41  1  0  0  0
 15 42  1  0  0  0
 16 17  1  0  0  0
 16 43  1  0  0  0
 16 50  1  0  0  0
 17 18  1  0  0  0
 17 44  1  0  0  0
 17 45  1  0  0  0
 18 46  1  0  0  0
 18 47  1  0  0  0
 19 20  1  0  0  0
 20 21  2  0  0  0
 20 22  2  0  0  0
 20 23  1  0  0  0
 23 27  1  0  0  0
 23 24  2  0  0  0
 24 25  1  0  0  0
 24 48  1  0  0  0
 25 26  2  0  0  0
 25 49  1  0  0  0
 26 27  1  0  0  0
 26 28  1  0  0  0
M  CHG  2  16   1  19  -1
M  END
> <i_i_glide_confnum>
92

> <i_i_glide_lignum>
509

> <i_i_glide_posenum>
393

> <i_i_glide_rotatable_bonds>
7

> <i_m_Source_File_Index>
5623

> <b_m_subgroup_collapsed>
0

> <r_i_docking_score>
-1.27403

> <r_i_glide_ecoul>
-0.207833

> <r_i_glide_eff_state_penalty>
0

> <r_i_glide_einternal>
8.08996

> <r_i_glide_emodel>
-26.1502

> <r_i_glide_energy>
-33.7897

> <r_i_glide_erotb>
0.511481

> <r_i_glide_esite>
-0.0106236

> <r_i_glide_evdw>
-33.5818

> <r_i_glide_gscore>
-1.27403

> <r_i_glide_hbond>
0

> <r_i_glide_ligand_efficiency>
-0.0455012

> <r_i_glide_ligand_efficiency_ln>
-0.294085

> <r_i_glide_ligand_efficiency_sa>
-0.138169

> <r_i_glide_lipo>
-1.79587

> <r_i_glide_metal>
0

> <r_i_glide_rewards>
1.73124

> <s_i_glide_gridfile>
wee1_glide-grid

> <s_m_Source_File>
wee1_decoys_glide_SP.sdf

> <s_m_Source_Path>
/Users/zhangxujun/Desktop

> <s_m_entry_id>
5898

> <s_m_entry_name>
wee1_decoys_glide_SP.5623

> <s_m_subgroup_title>
wee1_decoys_glide_SP

> <s_m_subgroupid>
wee1_decoys_glide_SP


$$$$
