ZINC12419939_3373
                    3D
 Schrodinger Suite 2024-2.
 58 61  0  0  1  0            999 V2000
    1.2954   52.9026   30.6444 C   0  0  0  0  0  0
    2.6354   53.1544   30.2249 O   0  0  0  0  0  0
    2.8875   53.3936   28.8867 C   0  0  0  0  0  0
    1.9052   53.4740   27.8918 C   0  0  0  0  0  0
    2.2609   53.6966   26.5646 C   0  0  0  0  0  0
    3.6015   53.8504   26.1868 C   0  0  0  0  0  0
    4.5949   53.7963   27.1829 C   0  0  0  0  0  0
    4.2203   53.5646   28.5183 C   0  0  0  0  0  0
    5.9099   53.9725   26.7876 O   0  0  0  0  0  0
    6.9554   53.8322   27.7404 C   0  0  0  0  0  0
    4.0171   54.0162   24.7668 C   0  0  0  0  0  0
    3.4013   53.6008   23.6312 C   0  0  0  0  0  0
    4.0313   53.7854   22.3376 C   0  0  0  0  0  0
    5.1200   54.3502   22.1802 O   0  0  0  0  0  0
    3.2657   53.2427   21.3348 N   0  0  0  0  0  0
    2.0256   52.7806   21.6896 C   0  0  0  0  0  0
    1.0430   52.4153   20.8350 C   0  0  0  0  0  0
    1.2490   52.4645   19.3131 C   0  0  1  0  0  0
    0.6558   53.2967   18.9372 H   0  0  0  0  0  0
    2.7056   52.8530   18.9949 C   0  0  0  0  0  0
    3.5898   53.2011   19.9685 C   0  0  0  0  0  0
    4.8923   53.5025   19.6162 N   0  0  0  0  0  0
    3.0922   52.8552   17.6150 C   0  0  0  0  0  0
    3.3832   52.9001   16.4966 N   0  0  0  0  0  0
    0.7143   51.2213   18.5855 C   0  0  0  0  0  0
    1.5624   50.1256   18.3778 C   0  0  0  0  0  0
    1.1039   48.9860   17.7251 C   0  0  0  0  0  0
   -0.2102   48.9017   17.2768 C   0  0  0  0  0  0
   -1.0668   49.9921   17.4901 C   0  0  0  0  0  0
   -0.6207   51.1585   18.1391 C   0  0  0  0  0  0
   -1.4361   52.2545   18.3770 O   0  0  0  0  0  0
   -2.7921   52.2302   17.9412 C   0  0  0  0  0  0
   -0.5749   47.7288   16.6440 O   0  0  0  0  0  0
   -1.8985   47.5918   16.1393 C   0  0  0  0  0  0
   -0.2344   51.9909   21.3160 C   0  0  0  0  0  0
   -1.2883   51.6971   21.6952 N   0  0  0  0  0  0
    1.8884   52.7241   23.4407 S   0  0  0  0  0  0
    1.2764   52.7116   31.7184 H   0  0  0  0  0  0
    0.6464   53.7591   30.4544 H   0  0  0  0  0  0
    0.8790   52.0237   30.1499 H   0  0  0  0  0  0
    0.8597   53.3590   28.1293 H   0  0  0  0  0  0
    1.4673   53.7643   25.8408 H   0  0  0  0  0  0
    4.9614   53.5005   29.2966 H   0  0  0  0  0  0
    7.9043   54.0997   27.2808 H   0  0  0  0  0  0
    6.8098   54.4903   28.5954 H   0  0  0  0  0  0
    7.0320   52.7983   28.0819 H   0  0  0  0  0  0
    4.9527   54.5498   24.6564 H   0  0  0  0  0  0
    5.2168   53.3951   18.6637 H   0  0  0  0  0  0
    5.5474   53.8355   20.3122 H   0  0  0  0  0  0
    2.5943   50.1508   18.7001 H   0  0  0  0  0  0
    1.7873   48.1666   17.5535 H   0  0  0  0  0  0
   -2.0856   49.9324   17.1451 H   0  0  0  0  0  0
   -3.2724   53.1742   18.1982 H   0  0  0  0  0  0
   -2.8616   52.1123   16.8580 H   0  0  0  0  0  0
   -3.3551   51.4320   18.4278 H   0  0  0  0  0  0
   -2.0041   46.6167   15.6627 H   0  0  0  0  0  0
   -2.1208   48.3512   15.3869 H   0  0  0  0  0  0
   -2.6386   47.6504   16.9398 H   0  0  0  0  0  0
  1  2  1  0  0  0
  1 38  1  0  0  0
  1 39  1  0  0  0
  1 40  1  0  0  0
  2  3  1  0  0  0
  3  8  2  0  0  0
  3  4  1  0  0  0
  4  5  2  0  0  0
  4 41  1  0  0  0
  5  6  1  0  0  0
  5 42  1  0  0  0
  6  7  2  0  0  0
  6 11  1  0  0  0
  7  8  1  0  0  0
  7  9  1  0  0  0
  8 43  1  0  0  0
  9 10  1  0  0  0
 10 44  1  0  0  0
 10 45  1  0  0  0
 10 46  1  0  0  0
 11 12  2  0  0  0
 11 47  1  0  0  0
 12 37  1  0  0  0
 12 13  1  0  0  0
 13 14  2  0  0  0
 13 15  1  0  0  0
 15 21  1  0  0  0
 15 16  1  0  0  0
 16 17  2  0  0  0
 16 37  1  0  0  0
 17 18  1  0  0  0
 17 35  1  0  0  0
 18 19  1  0  0  0
 18 20  1  0  0  0
 18 25  1  0  0  0
 20 21  2  0  0  0
 20 23  1  0  0  0
 21 22  1  0  0  0
 22 48  1  0  0  0
 22 49  1  0  0  0
 23 24  3  0  0  0
 25 30  2  0  0  0
 25 26  1  0  0  0
 26 27  2  0  0  0
 26 50  1  0  0  0
 27 28  1  0  0  0
 27 51  1  0  0  0
 28 29  2  0  0  0
 28 33  1  0  0  0
 29 30  1  0  0  0
 29 52  1  0  0  0
 30 31  1  0  0  0
 31 32  1  0  0  0
 32 53  1  0  0  0
 32 54  1  0  0  0
 32 55  1  0  0  0
 33 34  1  0  0  0
 34 56  1  0  0  0
 34 57  1  0  0  0
 34 58  1  0  0  0
 35 36  3  0  0  0
M  END
> <i_i_glide_confnum>
8

> <i_i_glide_lignum>
3374

> <i_i_glide_posenum>
19

> <i_i_glide_rotatable_bonds>
8

> <i_m_Source_File_Index>
5578

> <b_m_subgroup_collapsed>
0

> <r_i_docking_score>
-4.94008

> <r_i_glide_ecoul>
-2.8898

> <r_i_glide_eff_state_penalty>
0

> <r_i_glide_einternal>
7.48221

> <r_i_glide_emodel>
-53.7421

> <r_i_glide_energy>
-43.5994

> <r_i_glide_erotb>
0.161821

> <r_i_glide_esite>
-0.0750773

> <r_i_glide_evdw>
-40.7096

> <r_i_glide_gscore>
-4.94008

> <r_i_glide_hbond>
-0.272243

> <r_i_glide_ligand_efficiency>
-0.137224

> <r_i_glide_ligand_efficiency_ln>
-1.07779

> <r_i_glide_ligand_efficiency_sa>
-0.453105

> <r_i_glide_lipo>
-2.27319

> <r_i_glide_metal>
0

> <r_i_glide_rewards>
-0.0124412

> <s_i_glide_gridfile>
wee1_glide-grid

> <s_m_Source_File>
wee1_decoys_glide_SP.sdf

> <s_m_Source_Path>
/Users/zhangxujun/Desktop

> <s_m_entry_id>
5853

> <s_m_entry_name>
wee1_decoys_glide_SP.5578

> <s_m_subgroup_title>
wee1_decoys_glide_SP

> <s_m_subgroupid>
wee1_decoys_glide_SP


$$$$
