ZINC35242796_5048
                    3D
 Schrodinger Suite 2024-2.
 76 81  0  0  1  0            999 V2000
   -3.3518   54.1634   12.4309 C   0  0  0  0  0  0
   -2.9007   54.7575   13.7829 C   0  0  2  0  0  0
   -3.1302   54.0137   14.5493 H   0  0  0  0  0  0
   -3.6882   56.0403   14.1267 C   0  0  0  0  0  0
   -3.3542   56.5266   15.5486 C   0  0  0  0  0  0
   -1.8374   56.7402   15.7438 C   0  0  0  0  0  0
   -0.9671   55.5402   15.2844 C   0  0  1  0  0  0
   -1.2500   54.7465   15.9810 H   0  0  0  0  0  0
   -1.3700   55.0331   13.8588 C   0  0  2  0  0  0
   -0.9100   54.0497   13.7523 H   0  0  0  0  0  0
   -0.8013   55.9253   12.7292 C   0  0  0  0  0  0
    0.4573   55.8025   15.5001 N   0  0  0  0  0  0
    1.4515   54.8955   15.4841 C   0  0  0  0  0  0
    1.2257   53.6950   15.3250 O   0  0  0  0  0  0
    2.9224   55.3893   15.6435 C   0  0  2  0  0  0
    3.3316   55.4326   14.6331 H   0  0  0  0  0  0
    3.7740   54.4846   16.5429 C   0  0  1  0  0  0
    3.1062   53.8207   17.7555 C   0  0  0  0  0  0
    3.9760   52.9048   18.1876 C   0  0  0  0  0  0
    5.2191   53.1401   17.3503 C   0  0  1  0  0  0
    5.9139   52.3026   17.2724 H   0  0  0  0  0  0
    4.5784   53.4192   16.0935 O   0  0  0  0  0  0
    5.8910   54.5454   17.6388 C   0  0  1  0  0  0
    6.8916   54.5441   17.2041 H   0  0  0  0  0  0
    4.9491   55.4057   16.7609 C   0  0  2  0  0  0
    5.5139   55.5977   15.8422 H   0  0  0  0  0  0
    4.2985   56.7510   17.0624 C   0  0  0  0  0  0
    4.7953   57.6885   17.6813 O   0  0  0  0  0  0
    3.1382   56.6973   16.3425 N   0  0  0  0  0  0
    2.3551   57.9186   16.1119 C   0  0  0  0  0  0
    3.0068   59.1477   15.5209 C   0  0  0  0  0  0
    2.0477   58.3467   14.6873 C   0  0  0  0  0  0
    6.1283   55.0180   19.1098 C   0  0  0  0  0  0
    6.8585   55.9904   19.3002 O   0  0  0  0  0  0
    5.5442   54.3304   20.1123 N   0  0  0  0  0  0
    5.6331   54.5161   21.5040 C   0  0  0  0  0  0
    4.5843   53.9796   22.2490 C   0  0  0  0  0  0
    4.5764   54.0961   23.6341 C   0  0  0  0  0  0
    5.6212   54.7471   24.2991 C   0  0  0  0  0  0
    6.6876   55.2696   23.5525 C   0  0  0  0  0  0
    6.7018   55.1514   22.1608 C   0  0  0  0  0  0
    5.6029   54.9187   25.8253 C   0  0  0  0  0  0
    4.1951   54.8969   26.4614 C   0  0  0  0  0  0
    6.5184   53.9109   26.5350 C   0  0  0  0  0  0
   -3.2439   54.8733   11.6088 H   0  0  0  0  0  0
   -2.7743   53.2706   12.1785 H   0  0  0  0  0  0
   -4.4020   53.8717   12.4637 H   0  0  0  0  0  0
   -4.7590   55.8418   14.0588 H   0  0  0  0  0  0
   -3.5097   56.8168   13.3819 H   0  0  0  0  0  0
   -3.7163   55.7959   16.2738 H   0  0  0  0  0  0
   -3.8908   57.4552   15.7570 H   0  0  0  0  0  0
   -1.6356   56.9705   16.7931 H   0  0  0  0  0  0
   -1.5502   57.6221   15.1685 H   0  0  0  0  0  0
   -1.2187   56.9333   12.7586 H   0  0  0  0  0  0
    0.2832   56.0175   12.8036 H   0  0  0  0  0  0
   -1.0116   55.5067   11.7417 H   0  0  0  0  0  0
    0.7330   56.7730   15.4906 H   0  0  0  0  0  0
    2.1117   54.0440   18.1117 H   0  0  0  0  0  0
    3.8886   52.1800   18.9840 H   0  0  0  0  0  0
    1.5941   58.0805   16.8728 H   0  0  0  0  0  0
    2.6928   60.0996   15.9359 H   0  0  0  0  0  0
    4.0724   59.1280   15.2943 H   0  0  0  0  0  0
    2.4358   57.7541   13.8617 H   0  0  0  0  0  0
    1.0641   58.7622   14.4702 H   0  0  0  0  0  0
    4.8753   53.6363   19.8155 H   0  0  0  0  0  0
    3.7603   53.4796   21.7596 H   0  0  0  0  0  0
    3.7457   53.6772   24.1803 H   0  0  0  0  0  0
    7.4993   55.7732   24.0530 H   0  0  0  0  0  0
    7.5448   55.5467   21.6140 H   0  0  0  0  0  0
    6.0083   55.9129   26.0133 H   0  0  0  0  0  0
    3.5108   55.5692   25.9435 H   0  0  0  0  0  0
    4.2363   55.2124   27.5047 H   0  0  0  0  0  0
    3.7562   53.8983   26.4458 H   0  0  0  0  0  0
    7.5044   53.9047   26.0836 H   0  0  0  0  0  0
    6.6387   54.1613   27.5903 H   0  0  0  0  0  0
    6.1189   52.8968   26.4808 H   0  0  0  0  0  0
  1  2  1  0  0  0
  1 45  1  0  0  0
  1 46  1  0  0  0
  1 47  1  0  0  0
  2  3  1  0  0  0
  2  9  1  0  0  0
  2  4  1  0  0  0
  4  5  1  0  0  0
  4 48  1  0  0  0
  4 49  1  0  0  0
  5  6  1  0  0  0
  5 50  1  0  0  0
  5 51  1  0  0  0
  6  7  1  0  0  0
  6 52  1  0  0  0
  6 53  1  0  0  0
  7  8  1  0  0  0
  7  9  1  0  0  0
  7 12  1  0  0  0
  9 10  1  0  0  0
  9 11  1  0  0  0
 11 54  1  0  0  0
 11 55  1  0  0  0
 11 56  1  0  0  0
 12 13  1  0  0  0
 12 57  1  0  0  0
 13 14  2  0  0  0
 13 15  1  0  0  0
 15 16  1  0  0  0
 15 29  1  0  0  0
 15 17  1  0  0  0
 17 22  1  0  0  0
 17 25  1  0  0  0
 17 18  1  0  0  0
 18 19  2  0  0  0
 18 58  1  0  0  0
 19 20  1  0  0  0
 19 59  1  0  0  0
 20 21  1  0  0  0
 20 22  1  0  0  0
 20 23  1  0  0  0
 23 24  1  0  0  0
 23 25  1  0  0  0
 23 33  1  0  0  0
 25 26  1  0  0  0
 25 27  1  0  0  0
 27 28  2  0  0  0
 27 29  1  0  0  0
 29 30  1  0  0  0
 30 32  1  0  0  0
 30 31  1  0  0  0
 30 60  1  0  0  0
 31 32  1  0  0  0
 31 61  1  0  0  0
 31 62  1  0  0  0
 32 63  1  0  0  0
 32 64  1  0  0  0
 33 34  2  0  0  0
 33 35  1  0  0  0
 35 36  1  0  0  0
 35 65  1  0  0  0
 36 41  2  0  0  0
 36 37  1  0  0  0
 37 38  2  0  0  0
 37 66  1  0  0  0
 38 39  1  0  0  0
 38 67  1  0  0  0
 39 40  2  0  0  0
 39 42  1  0  0  0
 40 41  1  0  0  0
 40 68  1  0  0  0
 41 69  1  0  0  0
 42 43  1  0  0  0
 42 44  1  0  0  0
 42 70  1  0  0  0
 43 71  1  0  0  0
 43 72  1  0  0  0
 43 73  1  0  0  0
 44 74  1  0  0  0
 44 75  1  0  0  0
 44 76  1  0  0  0
M  END
> <i_i_glide_confnum>
62

> <i_i_glide_lignum>
5049

> <i_i_glide_posenum>
79

> <i_i_glide_rotatable_bonds>
8

> <i_m_Source_File_Index>
4787

> <b_m_subgroup_collapsed>
0

> <r_i_docking_score>
-3.88329

> <r_i_glide_ecoul>
-3.57999

> <r_i_glide_eff_state_penalty>
0

> <r_i_glide_einternal>
13.8568

> <r_i_glide_emodel>
-35.3522

> <r_i_glide_energy>
-32.2626

> <r_i_glide_erotb>
0.560009

> <r_i_glide_esite>
0

> <r_i_glide_evdw>
-28.6826

> <r_i_glide_gscore>
-3.88329

> <r_i_glide_hbond>
0

> <r_i_glide_ligand_efficiency>
-0.104954

> <r_i_glide_ligand_efficiency_ln>
-0.842194

> <r_i_glide_ligand_efficiency_sa>
-0.349729

> <r_i_glide_lipo>
-2.16955

> <r_i_glide_metal>
0

> <r_i_glide_rewards>
-0.30262

> <s_i_glide_gridfile>
wee1_glide-grid

> <s_m_Source_File>
wee1_decoys_glide_SP.sdf

> <s_m_Source_Path>
/Users/zhangxujun/Desktop

> <s_m_entry_id>
5062

> <s_m_entry_name>
wee1_decoys_glide_SP.4787

> <s_m_subgroup_title>
wee1_decoys_glide_SP

> <s_m_subgroupid>
wee1_decoys_glide_SP


$$$$
