ZINC01009152_3421
                    3D
 Schrodinger Suite 2024-2.
 55 59  0  0  1  0            999 V2000
   -1.1527   49.7419   26.0813 C   0  0  0  0  0  0
   -0.1595   50.8013   25.6571 C   0  0  0  0  0  0
    0.1805   51.8418   26.5221 C   0  0  0  0  0  0
    1.1041   52.8045   26.1201 C   0  0  0  0  0  0
    1.6919   52.7360   24.8510 C   0  0  0  0  0  0
    1.3294   51.6878   23.9890 C   0  0  0  0  0  0
    0.4085   50.7281   24.3892 C   0  0  0  0  0  0
    2.7319   53.7898   24.4408 C   0  0  1  0  0  0
    2.1809   54.7317   24.4428 H   0  0  0  0  0  0
    3.9090   53.8716   25.4585 C   0  0  0  0  0  0
    5.0819   54.7708   25.0338 C   0  0  2  0  0  0
    4.7045   55.7803   25.0804 H   0  0  0  0  0  0
    5.3723   54.4967   23.6222 N   0  0  0  0  0  0
    4.4436   54.0968   22.6884 C   0  0  0  0  0  0
    5.0443   54.2542   21.4622 C   0  0  0  0  0  0
    6.2715   54.8968   21.7135 C   0  0  0  0  0  0
    6.4851   54.9502   23.0142 N   0  0  0  0  0  0
    7.1974   55.3983   20.7220 C   0  0  0  0  0  0
    8.3570   55.6968   21.0044 O   0  0  0  0  0  0
    6.6847   55.5251   19.4856 N   0  0  0  0  0  0
    7.4291   55.9621   18.3073 C   0  0  0  0  0  0
    8.1380   54.7887   17.6646 C   0  0  0  0  0  0
    7.6457   53.7311   16.9235 C   0  0  0  0  0  0
    8.7475   52.9005   16.5482 C   0  0  0  0  0  0
    8.8700   51.7111   15.8186 C   0  0  0  0  0  0
   10.1367   51.1635   15.6284 C   0  0  0  0  0  0
   11.2719   51.7843   16.1462 C   0  0  0  0  0  0
   11.1965   52.9701   16.8816 C   0  0  0  0  0  0
    9.9210   53.5106   17.0787 C   0  0  0  0  0  0
    9.5017   54.6316   17.7642 N   0  0  0  0  0  0
   10.0781   55.2726   18.2915 H   0  0  0  0  0  0
   10.2972   49.6954   14.7378 Cl  0  0  0  0  0  0
    3.2028   53.6380   23.0546 N   0  0  0  0  0  0
    6.2987   54.7837   25.9825 C   0  0  0  0  0  0
    7.0889   55.8140   25.7026 F   0  0  0  0  0  0
    5.9298   54.8970   27.2584 F   0  0  0  0  0  0
    7.0356   53.6877   25.8914 F   0  0  0  0  0  0
   -1.8016   50.0971   26.8822 H   0  0  0  0  0  0
   -1.7996   49.4580   25.2503 H   0  0  0  0  0  0
   -0.6167   48.8545   26.4205 H   0  0  0  0  0  0
   -0.2625   51.8987   27.5061 H   0  0  0  0  0  0
    1.3587   53.6006   26.8032 H   0  0  0  0  0  0
    1.7661   51.5865   23.0065 H   0  0  0  0  0  0
    0.1511   49.9204   23.7201 H   0  0  0  0  0  0
    4.3119   52.8967   25.6805 H   0  0  0  0  0  0
    3.5403   54.2137   26.4261 H   0  0  0  0  0  0
    4.6025   54.0149   20.5049 H   0  0  0  0  0  0
    5.7116   55.2999   19.3463 H   0  0  0  0  0  0
    8.1228   56.7603   18.5804 H   0  0  0  0  0  0
    6.7245   56.4115   17.6064 H   0  0  0  0  0  0
    6.6037   53.5711   16.6885 H   0  0  0  0  0  0
    7.9960   51.2266   15.4119 H   0  0  0  0  0  0
   12.2375   51.3288   15.9781 H   0  0  0  0  0  0
   12.0820   53.4347   17.2875 H   0  0  0  0  0  0
    2.4441   53.7087   22.3903 H   0  0  0  0  0  0
  1  2  1  0  0  0
  1 38  1  0  0  0
  1 39  1  0  0  0
  1 40  1  0  0  0
  2  7  2  0  0  0
  2  3  1  0  0  0
  3  4  2  0  0  0
  3 41  1  0  0  0
  4  5  1  0  0  0
  4 42  1  0  0  0
  5  6  2  0  0  0
  5  8  1  0  0  0
  6  7  1  0  0  0
  6 43  1  0  0  0
  7 44  1  0  0  0
  8  9  1  0  0  0
  8 33  1  0  0  0
  8 10  1  0  0  0
 10 11  1  0  0  0
 10 45  1  0  0  0
 10 46  1  0  0  0
 11 12  1  0  0  0
 11 13  1  0  0  0
 11 34  1  0  0  0
 13 17  1  0  0  0
 13 14  1  0  0  0
 14 15  2  0  0  0
 14 33  1  0  0  0
 15 16  1  0  0  0
 15 47  1  0  0  0
 16 17  2  0  0  0
 16 18  1  0  0  0
 18 19  2  0  0  0
 18 20  1  0  0  0
 20 21  1  0  0  0
 20 48  1  0  0  0
 21 22  1  0  0  0
 21 49  1  0  0  0
 21 50  1  0  0  0
 22 30  1  0  0  0
 22 23  2  0  0  0
 23 24  1  0  0  0
 23 51  1  0  0  0
 24 29  2  0  0  0
 24 25  1  0  0  0
 25 26  2  0  0  0
 25 52  1  0  0  0
 26 27  1  0  0  0
 26 32  1  0  0  0
 27 28  2  0  0  0
 27 53  1  0  0  0
 28 29  1  0  0  0
 28 54  1  0  0  0
 29 30  1  0  0  0
 30 31  1  0  0  0
 33 55  1  0  0  0
 34 35  1  0  0  0
 34 36  1  0  0  0
 34 37  1  0  0  0
M  END
> <i_i_glide_confnum>
30

> <i_i_glide_lignum>
3422

> <i_i_glide_posenum>
193

> <i_i_glide_rotatable_bonds>
6

> <i_m_Source_File_Index>
3689

> <b_m_subgroup_collapsed>
0

> <r_i_docking_score>
-5.80803

> <r_i_glide_ecoul>
-2.67536

> <r_i_glide_eff_state_penalty>
0

> <r_i_glide_einternal>
7.59985

> <r_i_glide_emodel>
-54.2796

> <r_i_glide_energy>
-41.9302

> <r_i_glide_erotb>
0.341653

> <r_i_glide_esite>
-0.0205762

> <r_i_glide_evdw>
-39.2549

> <r_i_glide_gscore>
-5.80803

> <r_i_glide_hbond>
0

> <r_i_glide_ligand_efficiency>
-0.170824

> <r_i_glide_ligand_efficiency_ln>
-1.28316

> <r_i_glide_ligand_efficiency_sa>
-0.553405

> <r_i_glide_lipo>
-2.53127

> <r_i_glide_metal>
0

> <r_i_glide_rewards>
-1.23379

> <s_i_glide_gridfile>
wee1_glide-grid

> <s_m_Source_File>
wee1_decoys_glide_SP.sdf

> <s_m_Source_Path>
/Users/zhangxujun/Desktop

> <s_m_entry_id>
3964

> <s_m_entry_name>
wee1_decoys_glide_SP.3689

> <s_m_subgroup_title>
wee1_decoys_glide_SP

> <s_m_subgroupid>
wee1_decoys_glide_SP


$$$$
