@<TRIPOS>MOLECULE
ZINC41098405_1543
56   58    1
SMALL
USER_CHARGES


@<TRIPOS>ATOM
      1 C1          2.3052   49.6116   22.4318 C.3       1 UNK         0.0000 
      2 C2          1.8555   50.9188   21.7361 C.3       1 UNK         0.0000 
      3 C3          1.1688   50.5312   20.4018 C.3       1 UNK         0.0000 
      4 C4          0.7941   51.5845   22.6486 C.3       1 UNK         0.0000 
      5 C5          3.0739   51.8943   21.5050 C.3       1 UNK         0.0000 
      6 C6          4.2676   51.3026   20.7087 C.3       1 UNK         0.0000 
      7 C7          5.4028   52.3002   20.4157 C.3       1 UNK         0.0000 
      8 C8          4.8807   53.5254   19.6496 C.3       1 UNK         0.0000 
      9 C9          3.9036   54.2024   20.6162 C.3       1 UNK         0.0000 
     10 C10         2.7020   53.2964   20.9687 C.3       1 UNK         0.0000 
     11 C11         6.0019   54.4969   19.3065 C.2       1 UNK         0.0000 
     12 O12         6.7847   55.0211   20.1031 O.2       1 UNK         0.0000 
     13 N13         5.9522   54.6508   17.9637 N.am      1 UNK         0.0000 
     14 C14         4.9541   53.9574   17.3606 C.2       1 UNK         0.0000 
     15 O15         4.5253   54.0974   16.2170 O.2       1 UNK         0.0000 
     16 N16         4.3815   53.2401   18.3309 N.am      1 UNK         0.0000 
     17 C17         6.9934   55.3669   17.1944 C.3       1 UNK         0.0000 
     18 C18         8.3027   54.5628   17.0719 C.2       1 UNK         0.0000 
     19 O19         8.4030   53.4119   17.4995 O.2       1 UNK         0.0000 
     20 N20         9.3189   55.2129   16.4855 N.am      1 UNK         0.0000 
     21 C21        10.6678   54.6714   16.3468 C.3       1 UNK         0.0000 
     22 H22        10.6676   53.6294   16.0099 H         1 UNK         0.0000 
     23 C23        11.4548   55.4876   15.2964 C.3       1 UNK         0.0000 
     24 C24        12.9386   55.1043   15.3819 C.3       1 UNK         0.0000 
     25 S25        13.2576   54.8890   17.2149 S.o2      1 UNK         0.0000 
     26 O26        13.9108   53.5950   17.4289 O.2       1 UNK         0.0000 
     27 O27        13.8332   56.1180   17.7689 O.2       1 UNK         0.0000 
     28 C28        11.4429   54.7866   17.6715 C.3       1 UNK         0.0000 
     29 H29         1.4625   48.9434   22.6145 H         1 UNK         0.0000 
     30 H30         2.7594   49.8052   23.4020 H         1 UNK         0.0000 
     31 H31         3.0182   49.0470   21.8314 H         1 UNK         0.0000 
     32 H32         0.7769   51.3977   19.8691 H         1 UNK         0.0000 
     33 H33         1.8474   50.0106   19.7254 H         1 UNK         0.0000 
     34 H34         0.3242   49.8612   20.5700 H         1 UNK         0.0000 
     35 H35         0.3070   52.4297   22.1612 H         1 UNK         0.0000 
     36 H36         0.0020   50.8857   22.9225 H         1 UNK         0.0000 
     37 H37         1.2372   51.9505   23.5757 H         1 UNK         0.0000 
     38 H38         3.5047   52.1155   22.4816 H         1 UNK         0.0000 
     39 H39         4.6923   50.4967   21.2755 H         1 UNK         0.0000 
     40 H40         3.9042   50.8880   19.7682 H         1 UNK         0.0000 
     41 H41         5.9044   52.5854   21.3419 H         1 UNK         0.0000 
     42 H42         6.1252   51.7723   19.7891 H         1 UNK         0.0000 
     43 H43         3.5044   55.0496   20.0712 H         1 UNK         0.0000 
     44 H44         4.3928   54.6296   21.4942 H         1 UNK         0.0000 
     45 H45         2.1199   53.1674   20.0565 H         1 UNK         0.0000 
     46 H46         2.0487   53.7999   21.6819 H         1 UNK         0.0000 
     47 H47         3.8696   52.3876   18.1473 H         1 UNK         0.0000 
     48 H48         6.6301   55.6200   16.1978 H         1 UNK         0.0000 
     49 H49         7.2164   56.3123   17.6900 H         1 UNK         0.0000 
     50 H50         9.1572   56.1358   16.1117 H         1 UNK         0.0000 
     51 H51        11.0559   55.3216   14.2941 H         1 UNK         0.0000 
     52 H52        11.3350   56.5574   15.4831 H         1 UNK         0.0000 
     53 H53        13.0616   54.1227   14.9239 H         1 UNK         0.0000 
     54 H54        13.6723   55.7746   14.9384 H         1 UNK         0.0000 
     55 H55        11.2463   55.7819   18.0710 H         1 UNK         0.0000 
     56 H56        11.2153   54.0965   18.4797 H         1 UNK         0.0000 
@<TRIPOS>BOND
     1    1    2 1    
     2    1   29 1    
     3    1   30 1    
     4    1   31 1    
     5    2    3 1    
     6    2    4 1    
     7    2    5 1    
     8    3   32 1    
     9    3   33 1    
    10    3   34 1    
    11    4   35 1    
    12    4   36 1    
    13    4   37 1    
    14    5   10 1    
    15    5    6 1    
    16    5   38 1    
    17    6    7 1    
    18    6   39 1    
    19    6   40 1    
    20    7    8 1    
    21    7   41 1    
    22    7   42 1    
    23    8   16 1    
    24    8    9 1    
    25    8   11 1    
    26    9   10 1    
    27    9   43 1    
    28    9   44 1    
    29   10   45 1    
    30   10   46 1    
    31   11   12 2    
    32   11   13 am   BACKBONE|DICT|INTERRES
    33   13   14 am   BACKBONE|DICT|INTERRES
    34   13   17 1    
    35   14   15 2    
    36   14   16 am   BACKBONE|DICT|INTERRES
    37   16   47 1    
    38   17   18 1    
    39   17   48 1    
    40   17   49 1    
    41   18   19 2    
    42   18   20 am   BACKBONE|DICT|INTERRES
    43   20   21 1    
    44   20   50 1    
    45   21   22 1    
    46   21   28 1    
    47   21   23 1    
    48   23   24 1    
    49   23   51 1    
    50   23   52 1    
    51   24   25 1    
    52   24   53 1    
    53   24   54 1    
    54   25   26 2    
    55   25   27 2    
    56   25   28 1    
    57   28   55 1    
    58   28   56 1    
@<TRIPOS>SUBSTRUCTURE
     1 UNK         1 GROUP             0       ****    0 ROOT    
