ZINC09318450_3914
                    3D
 Schrodinger Suite 2024-2.
 56 58  0  0  1  0            999 V2000
    5.8142   54.4854   25.0225 C   0  0  0  0  0  0
    5.2074   54.2870   26.3993 C   0  0  0  0  0  0
    5.9037   54.6772   27.5453 C   0  0  0  0  0  0
    5.3375   54.4967   28.8060 C   0  0  0  0  0  0
    4.0862   53.8960   28.9366 C   0  0  0  0  0  0
    3.3871   53.4780   27.7942 C   0  0  0  0  0  0
    3.9476   53.6967   26.5312 C   0  0  0  0  0  0
    2.1255   52.8643   27.8154 N   0  0  0  0  0  0
    1.4780   52.2298   28.8194 C   0  0  0  0  0  0
    1.9377   52.0968   29.9533 O   0  0  0  0  0  0
    0.2589   51.7111   28.5272 N   0  0  0  0  0  0
   -0.4471   51.7356   27.3221 C   0  0  0  0  0  0
    0.0157   52.0421   26.1317 N   0  0  0  0  0  0
   -0.9024   51.9763   25.1767 C   0  0  0  0  0  0
   -2.1716   51.6050   25.6324 C   0  0  0  0  0  0
   -2.1228   51.2967   27.3451 S   0  0  0  0  0  0
   -0.5539   52.2544   23.7910 C   0  0  0  0  0  0
   -1.4109   52.2533   22.9044 O   0  0  0  0  0  0
    0.7559   52.4697   23.5502 N   0  0  0  0  0  0
    1.3974   52.5448   22.2408 C   0  0  1  0  0  0
    0.7686   53.1548   21.5895 H   0  0  0  0  0  0
    2.7538   53.3053   22.2960 C   0  0  0  0  0  0
    3.6087   53.2182   21.0062 C   0  0  2  0  0  0
    3.1046   53.7739   20.2186 H   0  0  0  0  0  0
    3.7032   51.7429   20.5638 C   0  0  0  0  0  0
    2.3131   51.1390   20.2235 C   0  0  0  0  0  0
    1.5168   51.1488   21.5556 C   0  0  0  0  0  0
    1.5688   51.9116   19.1074 C   0  0  0  0  0  0
    2.5315   49.6681   19.8093 C   0  0  0  0  0  0
    4.9956   53.8536   21.2062 C   0  0  0  0  0  0
    6.8837   54.6966   25.0728 H   0  0  0  0  0  0
    5.6948   53.5783   24.4292 H   0  0  0  0  0  0
    5.3107   55.2950   24.4934 H   0  0  0  0  0  0
    6.8756   55.1407   27.4697 H   0  0  0  0  0  0
    5.8712   54.8413   29.6813 H   0  0  0  0  0  0
    3.6757   53.7732   29.9255 H   0  0  0  0  0  0
    3.4145   53.3913   25.6422 H   0  0  0  0  0  0
    1.6604   52.8404   26.9220 H   0  0  0  0  0  0
   -0.2306   51.2903   29.3041 H   0  0  0  0  0  0
   -3.0794   51.4716   25.0628 H   0  0  0  0  0  0
    1.3840   52.3965   24.3349 H   0  0  0  0  0  0
    3.3500   52.8496   23.0877 H   0  0  0  0  0  0
    2.6182   54.3481   22.5884 H   0  0  0  0  0  0
    4.2365   51.1511   21.3101 H   0  0  0  0  0  0
    4.3413   51.6967   19.6818 H   0  0  0  0  0  0
    0.5247   50.7241   21.3907 H   0  0  0  0  0  0
    2.0179   50.4782   22.2583 H   0  0  0  0  0  0
    1.2354   52.8980   19.4143 H   0  0  0  0  0  0
    0.6750   51.3720   18.7883 H   0  0  0  0  0  0
    2.2000   52.0343   18.2254 H   0  0  0  0  0  0
    3.0606   49.1044   20.5771 H   0  0  0  0  0  0
    1.5831   49.1595   19.6370 H   0  0  0  0  0  0
    3.1043   49.5925   18.8842 H   0  0  0  0  0  0
    5.5717   53.3220   21.9639 H   0  0  0  0  0  0
    5.5718   53.8379   20.2799 H   0  0  0  0  0  0
    4.9110   54.8942   21.5225 H   0  0  0  0  0  0
  1  2  1  0  0  0
  1 31  1  0  0  0
  1 32  1  0  0  0
  1 33  1  0  0  0
  2  7  2  0  0  0
  2  3  1  0  0  0
  3  4  2  0  0  0
  3 34  1  0  0  0
  4  5  1  0  0  0
  4 35  1  0  0  0
  5  6  2  0  0  0
  5 36  1  0  0  0
  6  7  1  0  0  0
  6  8  1  0  0  0
  7 37  1  0  0  0
  8  9  1  0  0  0
  8 38  1  0  0  0
  9 10  2  0  0  0
  9 11  1  0  0  0
 11 12  1  0  0  0
 11 39  1  0  0  0
 12 16  1  0  0  0
 12 13  2  0  0  0
 13 14  1  0  0  0
 14 15  2  0  0  0
 14 17  1  0  0  0
 15 16  1  0  0  0
 15 40  1  0  0  0
 17 18  2  0  0  0
 17 19  1  0  0  0
 19 20  1  0  0  0
 19 41  1  0  0  0
 20 21  1  0  0  0
 20 27  1  0  0  0
 20 22  1  0  0  0
 22 23  1  0  0  0
 22 42  1  0  0  0
 22 43  1  0  0  0
 23 24  1  0  0  0
 23 25  1  0  0  0
 23 30  1  0  0  0
 25 26  1  0  0  0
 25 44  1  0  0  0
 25 45  1  0  0  0
 26 27  1  0  0  0
 26 28  1  0  0  0
 26 29  1  0  0  0
 27 46  1  0  0  0
 27 47  1  0  0  0
 28 48  1  0  0  0
 28 49  1  0  0  0
 28 50  1  0  0  0
 29 51  1  0  0  0
 29 52  1  0  0  0
 29 53  1  0  0  0
 30 54  1  0  0  0
 30 55  1  0  0  0
 30 56  1  0  0  0
M  END
> <i_i_glide_confnum>
120

> <i_i_glide_lignum>
3915

> <i_i_glide_posenum>
343

> <i_i_glide_rotatable_bonds>
7

> <i_m_Source_File_Index>
5066

> <b_m_subgroup_collapsed>
0

> <r_i_docking_score>
-4.03477

> <r_i_glide_ecoul>
-3.6375

> <r_i_glide_eff_state_penalty>
0

> <r_i_glide_einternal>
7.47993

> <r_i_glide_emodel>
-50.8798

> <r_i_glide_energy>
-44.5455

> <r_i_glide_erotb>
0.855425

> <r_i_glide_esite>
0

> <r_i_glide_evdw>
-40.908

> <r_i_glide_gscore>
-4.03477

> <r_i_glide_hbond>
-0.100859

> <r_i_glide_ligand_efficiency>
-0.144099

> <r_i_glide_ligand_efficiency_ln>
-0.931344

> <r_i_glide_ligand_efficiency_sa>
-0.437569

> <r_i_glide_lipo>
-1.84017

> <r_i_glide_metal>
0

> <r_i_glide_rewards>
-0.358142

> <s_i_glide_gridfile>
wee1_glide-grid

> <s_m_Source_File>
wee1_decoys_glide_SP.sdf

> <s_m_Source_Path>
/Users/zhangxujun/Desktop

> <s_m_entry_id>
5341

> <s_m_entry_name>
wee1_decoys_glide_SP.5066

> <s_m_subgroup_title>
wee1_decoys_glide_SP

> <s_m_subgroupid>
wee1_decoys_glide_SP


$$$$
