@<TRIPOS>MOLECULE
ZINC40752195_3946
40   43    1
SMALL
USER_CHARGES


@<TRIPOS>ATOM
      1 C1          4.4278   54.2716   29.1145 C.ar      1 UNK         0.0000 
      2 C2          3.4787   53.4826   29.7523 C.ar      1 UNK         0.0000 
      3 C3          2.4028   52.9387   29.0169 C.ar      1 UNK         0.0000 
      4 C4          1.3642   52.1984   29.6337 C.ar      1 UNK         0.0000 
      5 C5          0.3272   51.6956   28.8549 C.ar      1 UNK         0.0000 
      6 C6          0.3478   51.9193   27.4837 C.ar      1 UNK         0.0000 
      7 N7          1.3192   52.6229   26.8571 N.ar      1 UNK         0.0000 
      8 C8          2.3408   53.1450   27.6009 C.ar      1 UNK         0.0000 
      9 C9          3.3577   53.9119   26.9539 C.ar      1 UNK         0.0000 
     10 C10         4.3536   54.4965   27.7466 C.ar      1 UNK         0.0000 
     11 O11         3.2590   54.1003   25.5816 O.3       1 UNK         0.0000 
     12 C12         4.3152   54.1312   24.6775 C.ar      1 UNK         0.0000 
     13 C13         4.0318   54.0966   23.2971 C.ar      1 UNK         0.0000 
     14 C14         5.1440   54.0956   22.4187 C.ar      1 UNK         0.0000 
     15 N15         6.4144   54.2122   22.8815 N.ar      1 UNK         0.0000 
     16 C16         6.5824   54.2388   24.2199 C.ar      1 UNK         0.0000 
     17 N17         5.5975   54.1761   25.1426 N.ar      1 UNK         0.0000 
     18 N18         5.0846   53.9815   21.0200 N.pl3     1 UNK         0.0000 
     19 C19         4.1571   53.3464   20.1783 C.ar      1 UNK         0.0000 
     20 C20         3.9048   53.9189   18.9282 C.ar      1 UNK         0.0000 
     21 C21         3.0335   53.3016   18.0292 C.ar      1 UNK         0.0000 
     22 C22         2.4229   52.0949   18.3646 C.ar      1 UNK         0.0000 
     23 C23         2.7052   51.4913   19.5886 C.ar      1 UNK         0.0000 
     24 C24         3.5828   52.1003   20.4865 C.ar      1 UNK         0.0000 
     25 F25         3.8771   51.4612   21.6429 F         1 UNK         0.0000 
     26 Br26        1.2198   51.2661   17.1471 Br        1 UNK         0.0000 
     27 N27         2.6987   54.0901   22.8589 N.pl3     1 UNK         0.0000 
     28 H28         5.2309   54.7235   29.6813 H         1 UNK         0.0000 
     29 H29         3.5476   53.2952   30.8127 H         1 UNK         0.0000 
     30 H30         1.3739   52.0364   30.7032 H         1 UNK         0.0000 
     31 H31        -0.4752   51.1249   29.3031 H         1 UNK         0.0000 
     32 H32        -0.4352   51.5158   26.8552 H         1 UNK         0.0000 
     33 H33         5.0937   55.1459   27.3109 H         1 UNK         0.0000 
     34 H34         7.5963   54.3098   24.5770 H         1 UNK         0.0000 
     35 H35         5.9662   54.1899   20.5715 H         1 UNK         0.0000 
     36 H36         4.3712   54.8537   18.6523 H         1 UNK         0.0000 
     37 H37         2.8317   53.7600   17.0715 H         1 UNK         0.0000 
     38 H38         2.2609   50.5383   19.8337 H         1 UNK         0.0000 
     39 H39         2.4907   54.1496   21.8676 H         1 UNK         0.0000 
     40 H40         1.9600   54.0732   23.5485 H         1 UNK         0.0000 
@<TRIPOS>BOND
     1    1   10 ar   
     2    1    2 ar   
     3    1   28 1    
     4    2    3 ar   
     5    2   29 1    
     6    3    8 ar   
     7    3    4 ar   
     8    4    5 ar   
     9    4   30 1    
    10    5    6 ar   
    11    5   31 1    
    12    6    7 ar   
    13    6   32 1    
    14    7    8 ar   
    15    8    9 ar   
    16    9   10 ar   
    17    9   11 1    
    18   10   33 1    
    19   11   12 1    
    20   12   17 ar   
    21   12   13 ar   
    22   13   14 ar   
    23   13   27 1    
    24   14   15 ar   
    25   14   18 1    
    26   15   16 ar   
    27   16   17 ar   
    28   16   34 1    
    29   18   19 1    
    30   18   35 1    
    31   19   24 ar   
    32   19   20 ar   
    33   20   21 ar   
    34   20   36 1    
    35   21   22 ar   
    36   21   37 1    
    37   22   23 ar   
    38   22   26 1    
    39   23   24 ar   
    40   23   38 1    
    41   24   25 1    
    42   27   39 1    
    43   27   40 1    
@<TRIPOS>SUBSTRUCTURE
     1 UNK         1 GROUP             0       ****    0 ROOT    
