ZINC38659974_845
                    3D
 Schrodinger Suite 2024-2.
 55 58  0  0  1  0            999 V2000
   10.3739   54.2513   17.8356 C   0  0  0  0  0  0
    9.7085   53.3606   16.9453 O   0  0  0  0  0  0
    8.3289   53.3774   16.8834 C   0  0  0  0  0  0
    7.7255   52.5331   15.9557 C   0  0  0  0  0  0
    6.3391   52.4967   15.8206 C   0  0  0  0  0  0
    5.5127   53.2984   16.6271 C   0  0  0  0  0  0
    6.1122   54.1535   17.5690 C   0  0  0  0  0  0
    7.5097   54.1843   17.6835 C   0  0  0  0  0  0
    5.2712   55.0748   18.4671 C   0  0  1  0  0  0
    4.2128   54.8795   18.2875 H   0  0  0  0  0  0
    5.5385   54.8263   19.9604 C   0  0  0  0  0  0
    4.8806   53.8270   20.6847 C   0  0  0  0  0  0
    5.1117   53.6632   22.0510 C   0  0  0  0  0  0
    6.0159   54.4969   22.7274 C   0  0  0  0  0  0
    6.7045   55.4728   22.0051 C   0  0  0  0  0  0
    6.4293   55.6697   20.6522 C   0  0  0  0  0  0
    7.0108   56.7636   20.0331 O   0  0  0  0  0  0
    6.3835   57.2616   18.9324 C   0  0  0  0  0  0
    5.5246   56.5536   18.1703 C   0  0  0  0  0  0
    4.8842   57.1423   17.0398 C   0  0  0  0  0  0
    4.3461   57.6024   16.1259 N   0  0  0  0  0  0
    6.7879   58.5544   18.7410 N   0  0  0  0  0  0
    6.2555   54.4053   24.0859 O   0  0  0  0  0  0
    5.2258   54.4531   24.9845 C   0  0  0  0  0  0
    4.0241   54.4967   24.7069 O   0  0  0  0  0  0
    5.7414   54.4875   26.4352 C   0  0  0  0  0  0
    4.7467   53.9777   27.4857 C   0  0  0  0  0  0
    3.4610   54.5163   27.6145 C   0  0  0  0  0  0
    2.5980   54.0573   28.6047 C   0  0  0  0  0  0
    3.0213   53.0588   29.4770 C   0  0  0  0  0  0
    4.3007   52.5198   29.3652 C   0  0  0  0  0  0
    5.1624   52.9878   28.3772 C   0  0  0  0  0  0
    1.9542   52.4967   30.7095 Cl  0  0  0  0  0  0
    4.1315   53.2951   16.5391 O   0  0  0  0  0  0
    3.4848   52.3958   15.6444 C   0  0  0  0  0  0
   11.4488   54.0787   17.7845 H   0  0  0  0  0  0
   10.0658   54.0977   18.8704 H   0  0  0  0  0  0
   10.1929   55.2926   17.5647 H   0  0  0  0  0  0
    8.3397   51.8999   15.3327 H   0  0  0  0  0  0
    5.9208   51.8211   15.0912 H   0  0  0  0  0  0
    7.9528   54.8506   18.4059 H   0  0  0  0  0  0
    4.1767   53.1774   20.1829 H   0  0  0  0  0  0
    4.5741   52.8967   22.5881 H   0  0  0  0  0  0
    7.4140   56.1068   22.5129 H   0  0  0  0  0  0
    6.3065   59.1572   18.0823 H   0  0  0  0  0  0
    7.7027   58.8560   19.0404 H   0  0  0  0  0  0
    6.6620   53.9057   26.4904 H   0  0  0  0  0  0
    6.0013   55.5173   26.6762 H   0  0  0  0  0  0
    3.1250   55.2965   26.9495 H   0  0  0  0  0  0
    1.6062   54.4759   28.6944 H   0  0  0  0  0  0
    4.6306   51.7485   30.0448 H   0  0  0  0  0  0
    6.1541   52.5687   28.2958 H   0  0  0  0  0  0
    2.4057   52.5194   15.7318 H   0  0  0  0  0  0
    3.7564   52.5989   14.6074 H   0  0  0  0  0  0
    3.7144   51.3556   15.8780 H   0  0  0  0  0  0
  1  2  1  0  0  0
  1 36  1  0  0  0
  1 37  1  0  0  0
  1 38  1  0  0  0
  2  3  1  0  0  0
  3  8  2  0  0  0
  3  4  1  0  0  0
  4  5  2  0  0  0
  4 39  1  0  0  0
  5  6  1  0  0  0
  5 40  1  0  0  0
  6  7  2  0  0  0
  6 34  1  0  0  0
  7  8  1  0  0  0
  7  9  1  0  0  0
  8 41  1  0  0  0
  9 10  1  0  0  0
  9 19  1  0  0  0
  9 11  1  0  0  0
 11 16  2  0  0  0
 11 12  1  0  0  0
 12 13  2  0  0  0
 12 42  1  0  0  0
 13 14  1  0  0  0
 13 43  1  0  0  0
 14 15  2  0  0  0
 14 23  1  0  0  0
 15 16  1  0  0  0
 15 44  1  0  0  0
 16 17  1  0  0  0
 17 18  1  0  0  0
 18 19  2  0  0  0
 18 22  1  0  0  0
 19 20  1  0  0  0
 20 21  3  0  0  0
 22 45  1  0  0  0
 22 46  1  0  0  0
 23 24  1  0  0  0
 24 25  2  0  0  0
 24 26  1  0  0  0
 26 27  1  0  0  0
 26 47  1  0  0  0
 26 48  1  0  0  0
 27 32  2  0  0  0
 27 28  1  0  0  0
 28 29  2  0  0  0
 28 49  1  0  0  0
 29 30  1  0  0  0
 29 50  1  0  0  0
 30 31  2  0  0  0
 30 33  1  0  0  0
 31 32  1  0  0  0
 31 51  1  0  0  0
 32 52  1  0  0  0
 34 35  1  0  0  0
 35 53  1  0  0  0
 35 54  1  0  0  0
 35 55  1  0  0  0
M  END
> <i_i_glide_confnum>
2

> <i_i_glide_lignum>
846

> <i_i_glide_posenum>
96

> <i_i_glide_rotatable_bonds>
8

> <i_m_Source_File_Index>
1221

> <b_m_subgroup_collapsed>
0

> <r_i_docking_score>
-5.05434

> <r_i_glide_ecoul>
-1.32199

> <r_i_glide_eff_state_penalty>
0

> <r_i_glide_einternal>
5.43372

> <r_i_glide_emodel>
-57.577

> <r_i_glide_energy>
-47.3491

> <r_i_glide_erotb>
0.356193

> <r_i_glide_esite>
-0.0818277

> <r_i_glide_evdw>
-46.0271

> <r_i_glide_gscore>
-5.05434

> <r_i_glide_hbond>
-0.323571

> <r_i_glide_ligand_efficiency>
-0.148657

> <r_i_glide_ligand_efficiency_ln>
-1.11664

> <r_i_glide_ligand_efficiency_sa>
-0.481591

> <r_i_glide_lipo>
-2.77266

> <r_i_glide_metal>
0

> <r_i_glide_rewards>
0.267186

> <s_i_glide_gridfile>
wee1_glide-grid

> <s_m_Source_File>
wee1_decoys_glide_SP.sdf

> <s_m_Source_Path>
/Users/zhangxujun/Desktop

> <s_m_entry_id>
1496

> <s_m_entry_name>
wee1_decoys_glide_SP.1221

> <s_m_subgroup_title>
wee1_decoys_glide_SP

> <s_m_subgroupid>
wee1_decoys_glide_SP


$$$$
