ZINC35692882_5801
                    3D
 Schrodinger Suite 2024-2.
 57 60  0  0  1  0            999 V2000
    0.2508   53.8177   30.4815 C   0  0  0  0  0  0
   -0.1204   52.3669   30.1556 C   0  0  0  0  0  0
   -0.2679   52.1887   28.7487 O   0  0  0  0  0  0
    0.7766   51.8236   27.9677 C   0  0  0  0  0  0
    1.9064   51.5755   28.3939 O   0  0  0  0  0  0
    0.4230   51.7350   26.5457 C   0  0  0  0  0  0
    1.1039   52.3309   25.4996 C   0  0  0  0  0  0
    0.7469   52.0437   24.2002 N   0  0  0  0  0  0
    0.1064   50.9648   23.9535 C   0  0  0  0  0  0
   -0.4570   50.1216   24.8995 N   0  0  0  0  0  0
   -0.6788   50.6742   26.2608 C   0  0  2  0  0  0
   -0.5306   49.8373   26.9436 H   0  0  0  0  0  0
   -2.0902   51.2348   26.4358 C   0  0  0  0  0  0
   -3.0662   50.8643   27.3602 C   0  0  0  0  0  0
   -4.2812   51.5421   27.2338 C   0  0  0  0  0  0
   -4.2618   52.4726   26.2125 C   0  0  0  0  0  0
   -2.7315   52.4967   25.4084 S   0  0  0  0  0  0
   -0.9674   48.9292   24.4168 C   0  0  0  0  0  0
   -1.0053   48.9152   23.0713 C   0  0  0  0  0  0
   -0.3132   50.3669   22.3368 S   0  0  0  0  0  0
   -1.4715   47.8731   25.2817 C   0  0  0  0  0  0
   -2.3554   46.8959   25.0235 C   0  0  0  0  0  0
   -2.9597   46.5581   23.9402 O   0  5  0  0  0  0
   -2.7115   46.0482   26.0464 N   0  0  0  0  0  0
   -4.0264   45.9996   26.6876 C   0  0  0  0  0  0
   -5.1541   45.3325   25.8690 C   0  0  0  0  0  0
   -4.8959   43.9511   25.6305 O   0  0  0  0  0  0
   -5.2815   43.0803   26.6894 C   0  0  0  0  0  0
    2.2783   53.2979   25.5684 C   0  0  0  0  0  0
    3.1042   53.4991   24.4398 C   0  0  0  0  0  0
    4.2525   54.2827   24.4918 C   0  0  0  0  0  0
    4.6092   54.8967   25.6836 C   0  0  0  0  0  0
    3.8016   54.7585   26.8046 C   0  0  0  0  0  0
    2.6389   53.9976   26.7355 C   0  0  0  0  0  0
    0.3036   53.9705   31.5596 H   0  0  0  0  0  0
    1.2176   54.0851   30.0544 H   0  0  0  0  0  0
   -0.4955   54.5002   30.0821 H   0  0  0  0  0  0
   -1.0650   52.1088   30.6348 H   0  0  0  0  0  0
    0.6296   51.6968   30.5732 H   0  0  0  0  0  0
   -2.8959   50.0960   28.1022 H   0  0  0  0  0  0
   -5.1372   51.3556   27.8656 H   0  0  0  0  0  0
   -5.0583   53.1283   25.8947 H   0  0  0  0  0  0
   -1.3917   48.1181   22.4549 H   0  0  0  0  0  0
   -1.0720   47.8819   26.2838 H   0  0  0  0  0  0
   -2.0416   46.1609   26.7953 H   0  0  0  0  0  0
   -4.3097   47.0224   26.9420 H   0  0  0  0  0  0
   -3.9143   45.4838   27.6415 H   0  0  0  0  0  0
   -5.2735   45.8352   24.9098 H   0  0  0  0  0  0
   -6.1128   45.4566   26.3759 H   0  0  0  0  0  0
   -4.9108   42.0745   26.4901 H   0  0  0  0  0  0
   -6.3679   43.0249   26.7624 H   0  0  0  0  0  0
   -4.8950   43.3943   27.6590 H   0  0  0  0  0  0
    2.8910   53.0102   23.5006 H   0  0  0  0  0  0
    4.8717   54.3967   23.6140 H   0  0  0  0  0  0
    5.5066   55.4953   25.7349 H   0  0  0  0  0  0
    4.0664   55.2530   27.7272 H   0  0  0  0  0  0
    2.0345   53.9770   27.6243 H   0  0  0  0  0  0
  1  2  1  0  0  0
  1 35  1  0  0  0
  1 36  1  0  0  0
  1 37  1  0  0  0
  2  3  1  0  0  0
  2 38  1  0  0  0
  2 39  1  0  0  0
  3  4  1  0  0  0
  4  5  2  0  0  0
  4  6  1  0  0  0
  6 11  1  0  0  0
  6  7  2  0  0  0
  7  8  1  0  0  0
  7 29  1  0  0  0
  8  9  2  0  0  0
  9 20  1  0  0  0
  9 10  1  0  0  0
 10 11  1  0  0  0
 10 18  1  0  0  0
 11 12  1  0  0  0
 11 13  1  0  0  0
 13 17  1  0  0  0
 13 14  2  0  0  0
 14 15  1  0  0  0
 14 40  1  0  0  0
 15 16  2  0  0  0
 15 41  1  0  0  0
 16 17  1  0  0  0
 16 42  1  0  0  0
 18 19  2  0  0  0
 18 21  1  0  0  0
 19 20  1  0  0  0
 19 43  1  0  0  0
 21 22  2  0  0  0
 21 44  1  0  0  0
 22 23  1  0  0  0
 22 24  1  0  0  0
 24 25  1  0  0  0
 24 45  1  0  0  0
 25 26  1  0  0  0
 25 46  1  0  0  0
 25 47  1  0  0  0
 26 27  1  0  0  0
 26 48  1  0  0  0
 26 49  1  0  0  0
 27 28  1  0  0  0
 28 50  1  0  0  0
 28 51  1  0  0  0
 28 52  1  0  0  0
 29 34  2  0  0  0
 29 30  1  0  0  0
 30 31  2  0  0  0
 30 53  1  0  0  0
 31 32  1  0  0  0
 31 54  1  0  0  0
 32 33  2  0  0  0
 32 55  1  0  0  0
 33 34  1  0  0  0
 33 56  1  0  0  0
 34 57  1  0  0  0
M  CHG  1  23  -1
M  END
> <i_i_glide_confnum>
130

> <i_i_glide_lignum>
5802

> <i_i_glide_posenum>
127

> <i_i_glide_rotatable_bonds>
10

> <i_m_Source_File_Index>
83

> <b_m_subgroup_collapsed>
0

> <r_i_docking_score>
-4.43261

> <r_i_glide_ecoul>
-6.26311

> <r_i_glide_eff_state_penalty>
0

> <r_i_glide_einternal>
8.17267

> <r_i_glide_emodel>
-55.361

> <r_i_glide_energy>
-45.9733

> <r_i_glide_erotb>
0.697113

> <r_i_glide_esite>
-0.122357

> <r_i_glide_evdw>
-39.7102

> <r_i_glide_gscore>
-4.43261

> <r_i_glide_hbond>
-0.111029

> <r_i_glide_ligand_efficiency>
-0.134322

> <r_i_glide_ligand_efficiency_ln>
-0.98579

> <r_i_glide_ligand_efficiency_sa>
-0.430841

> <r_i_glide_lipo>
-1.61446

> <r_i_glide_metal>
0

> <r_i_glide_rewards>
-0.356898

> <s_i_glide_gridfile>
wee1_glide-grid

> <s_m_Source_File>
wee1_decoys_glide_SP.sdf

> <s_m_Source_Path>
/Users/zhangxujun/Desktop

> <s_m_entry_id>
358

> <s_m_entry_name>
wee1_decoys_glide_SP.83

> <s_m_subgroup_title>
wee1_decoys_glide_SP

> <s_m_subgroupid>
wee1_decoys_glide_SP


$$$$
