ZINC33253049_5796
                    3D
 Schrodinger Suite 2024-2.
 56 59  0  0  1  0            999 V2000
   -0.2079   43.5305   19.3948 C   0  0  0  0  0  0
   -0.1444   44.9576   18.8807 C   0  0  0  0  0  0
    0.7029   45.2720   17.8178 C   0  0  0  0  0  0
    0.7696   46.5795   17.3459 C   0  0  0  0  0  0
   -0.0297   47.5662   17.9222 C   0  0  0  0  0  0
   -0.8882   47.2534   18.9781 C   0  0  0  0  0  0
   -0.9423   45.9471   19.4592 C   0  0  0  0  0  0
    0.0670   49.2373   17.2852 S   0  0  0  0  0  0
   -1.0721   50.0024   17.8044 O   0  0  0  0  0  0
    0.3032   49.1271   15.8415 O   0  0  0  0  0  0
    1.5560   49.9117   17.9741 N   0  0  0  0  0  0
    1.6510   50.5424   19.2246 C   0  0  0  0  0  0
    0.7154   50.3712   20.2445 C   0  0  0  0  0  0
    0.8537   51.0573   21.4472 C   0  0  0  0  0  0
    1.9375   51.9167   21.6835 C   0  0  0  0  0  0
    2.9448   52.0189   20.6831 C   0  0  0  0  0  0
    2.7522   51.3613   19.4580 C   0  0  0  0  0  0
    4.2265   52.7784   20.8741 C   0  0  0  0  0  0
    4.8536   52.6155   21.9455 O   0  0  0  0  0  0
    4.6220   53.5054   19.9329 O   0  5  0  0  0  0
    1.9417   52.6497   22.8729 N   0  0  0  0  0  0
    1.3600   52.1950   24.1448 C   0  0  0  0  0  0
    1.8759   52.9211   25.4177 C   0  0  0  0  0  0
    3.1087   53.6973   25.2225 N   0  0  0  0  0  0
    2.9954   54.6017   24.0690 C   0  0  0  0  0  0
    2.1415   54.1005   22.8859 C   0  0  0  0  0  0
    4.1166   53.8204   26.1725 C   0  0  0  0  0  0
    5.4315   54.0988   25.7694 C   0  0  0  0  0  0
    6.4716   54.0962   26.6894 C   0  0  0  0  0  0
    6.2094   53.8052   28.0199 C   0  0  0  0  0  0
    4.9050   53.5918   28.4560 C   0  0  0  0  0  0
    3.8622   53.6022   27.5344 C   0  0  0  0  0  0
    7.2382   53.6969   28.8815 F   0  0  0  0  0  0
   -0.1636   42.8269   18.5631 H   0  0  0  0  0  0
    0.6314   43.3271   20.0600 H   0  0  0  0  0  0
   -1.1439   43.3420   19.9271 H   0  0  0  0  0  0
    1.3186   44.5126   17.3588 H   0  0  0  0  0  0
    1.4346   46.8248   16.5306 H   0  0  0  0  0  0
   -1.5137   48.0111   19.4232 H   0  0  0  0  0  0
   -1.6049   45.7105   20.2769 H   0  0  0  0  0  0
    2.4148   49.7817   17.4437 H   0  0  0  0  0  0
   -0.1413   49.7315   20.1148 H   0  0  0  0  0  0
    0.0803   50.9344   22.1898 H   0  0  0  0  0  0
    3.5002   51.4591   18.6785 H   0  0  0  0  0  0
    1.7084   51.1631   24.2231 H   0  0  0  0  0  0
    0.2683   52.1996   24.1411 H   0  0  0  0  0  0
    1.8904   52.2505   26.2770 H   0  0  0  0  0  0
    1.1492   53.6939   25.6711 H   0  0  0  0  0  0
    2.6926   55.6039   24.3572 H   0  0  0  0  0  0
    3.9957   54.6600   23.6424 H   0  0  0  0  0  0
    1.1280   54.4917   22.9991 H   0  0  0  0  0  0
    2.4935   54.5081   21.9414 H   0  0  0  0  0  0
    5.6780   54.2437   24.7293 H   0  0  0  0  0  0
    7.4872   54.2572   26.3621 H   0  0  0  0  0  0
    4.7067   53.3838   29.4955 H   0  0  0  0  0  0
    2.8591   53.4059   27.8815 H   0  0  0  0  0  0
  1  2  1  0  0  0
  1 34  1  0  0  0
  1 35  1  0  0  0
  1 36  1  0  0  0
  2  7  2  0  0  0
  2  3  1  0  0  0
  3  4  2  0  0  0
  3 37  1  0  0  0
  4  5  1  0  0  0
  4 38  1  0  0  0
  5  6  2  0  0  0
  5  8  1  0  0  0
  6  7  1  0  0  0
  6 39  1  0  0  0
  7 40  1  0  0  0
  8  9  2  0  0  0
  8 10  2  0  0  0
  8 11  1  0  0  0
 11 12  1  0  0  0
 11 41  1  0  0  0
 12 17  2  0  0  0
 12 13  1  0  0  0
 13 14  2  0  0  0
 13 42  1  0  0  0
 14 15  1  0  0  0
 14 43  1  0  0  0
 15 16  2  0  0  0
 15 21  1  0  0  0
 16 17  1  0  0  0
 16 18  1  0  0  0
 17 44  1  0  0  0
 18 19  2  0  0  0
 18 20  1  0  0  0
 21 26  1  0  0  0
 21 22  1  0  0  0
 22 23  1  0  0  0
 22 45  1  0  0  0
 22 46  1  0  0  0
 23 24  1  0  0  0
 23 47  1  0  0  0
 23 48  1  0  0  0
 24 25  1  0  0  0
 24 27  1  0  0  0
 25 26  1  0  0  0
 25 49  1  0  0  0
 25 50  1  0  0  0
 26 51  1  0  0  0
 26 52  1  0  0  0
 27 32  2  0  0  0
 27 28  1  0  0  0
 28 29  2  0  0  0
 28 53  1  0  0  0
 29 30  1  0  0  0
 29 54  1  0  0  0
 30 31  2  0  0  0
 30 33  1  0  0  0
 31 32  1  0  0  0
 31 55  1  0  0  0
 32 56  1  0  0  0
M  CHG  1  20  -1
M  END
> <i_i_glide_confnum>
692

> <i_i_glide_lignum>
5797

> <i_i_glide_posenum>
93

> <i_i_glide_rotatable_bonds>
6

> <i_m_Source_File_Index>
2383

> <b_m_subgroup_collapsed>
0

> <r_i_docking_score>
-4.78777

> <r_i_glide_ecoul>
-1.43294

> <r_i_glide_eff_state_penalty>
0

> <r_i_glide_einternal>
1.96809

> <r_i_glide_emodel>
-46.4258

> <r_i_glide_energy>
-35.6222

> <r_i_glide_erotb>
0.459896

> <r_i_glide_esite>
-0.144085

> <r_i_glide_evdw>
-34.1892

> <r_i_glide_gscore>
-4.78777

> <r_i_glide_hbond>
-0.158496

> <r_i_glide_ligand_efficiency>
-0.145084

> <r_i_glide_ligand_efficiency_ln>
-1.06478

> <r_i_glide_ligand_efficiency_sa>
-0.465362

> <r_i_glide_lipo>
-2.30388

> <r_i_glide_metal>
0

> <r_i_glide_rewards>
-0.716809

> <s_i_glide_gridfile>
wee1_glide-grid

> <s_m_Source_File>
wee1_decoys_glide_SP.sdf

> <s_m_Source_Path>
/Users/zhangxujun/Desktop

> <s_m_entry_id>
2658

> <s_m_entry_name>
wee1_decoys_glide_SP.2383

> <s_m_subgroup_title>
wee1_decoys_glide_SP

> <s_m_subgroupid>
wee1_decoys_glide_SP


$$$$
