ZINC39695843_5564
                    3D
 Schrodinger Suite 2024-2.
 72 77  0  0  1  0            999 V2000
    1.0607   53.6732   12.9294 C   0  0  0  0  0  0
    1.0669   53.3914   14.4203 C   0  0  0  0  0  0
    0.3494   54.2321   15.2781 C   0  0  0  0  0  0
    0.3150   54.0131   16.6567 C   0  0  0  0  0  0
    1.0195   52.9155   17.1678 C   0  0  0  0  0  0
    1.7393   52.0727   16.2858 C   0  0  0  0  0  0
    1.7777   52.2864   14.9055 C   0  0  0  0  0  0
    2.3032   51.1365   17.1184 N   0  0  0  0  0  0
    2.9422   50.3722   16.8832 H   0  0  0  0  0  0
    1.9179   51.4344   18.4074 C   0  0  0  0  0  0
    1.1444   52.4963   18.4645 N   0  0  0  0  0  0
    2.4247   50.6298   19.6067 C   0  0  2  0  0  0
    2.1820   49.1120   19.4759 C   0  0  0  0  0  0
    2.0146   51.1892   20.9026 N   0  0  0  0  0  0
    0.7965   51.1559   21.4821 C   0  0  0  0  0  0
   -0.1581   50.5689   20.9762 O   0  0  0  0  0  0
    0.5495   51.9655   22.7895 C   0  0  2  0  0  0
    1.8282   52.7240   23.2144 C   0  0  0  0  0  0
    1.7054   52.8894   24.6616 N   0  0  0  0  0  0
    0.5357   52.1648   25.1697 C   0  0  0  0  0  0
    0.1462   51.1534   24.0521 C   0  0  0  0  0  0
    0.9075   49.7929   24.1728 C   0  0  0  0  0  0
    0.6474   49.0895   25.5242 C   0  0  0  0  0  0
   -0.8762   48.8708   25.6816 N   0  3  0  0  0  0
   -1.7414   50.1308   25.4377 C   0  0  0  0  0  0
   -1.3485   50.7518   24.0778 C   0  0  0  0  0  0
    2.5938   53.4888   25.5066 C   0  0  0  0  0  0
    2.3743   53.5784   26.7173 O   0  0  0  0  0  0
    3.8601   53.9968   24.9949 C   0  0  0  0  0  0
    4.9632   54.5036   25.6753 C   0  0  0  0  0  0
    5.9389   54.8009   24.7196 C   0  0  0  0  0  0
    5.3975   54.4966   23.4787 C   0  0  0  0  0  0
    4.1388   54.0166   23.6630 O   0  0  0  0  0  0
    5.8727   54.6449   22.0702 C   0  0  0  0  0  0
    7.0823   55.2972   21.8070 C   0  0  0  0  0  0
    7.4997   55.4985   20.4930 C   0  0  0  0  0  0
    6.7123   55.0374   19.4399 C   0  0  0  0  0  0
    5.5123   54.3762   19.6891 C   0  0  0  0  0  0
    5.0933   54.1804   21.0026 C   0  0  0  0  0  0
    7.1187   55.2305   18.1655 F   0  0  0  0  0  0
    1.7860   54.4491   12.6830 H   0  0  0  0  0  0
    1.2898   52.7767   12.3515 H   0  0  0  0  0  0
    0.0749   54.0114   12.6069 H   0  0  0  0  0  0
   -0.1880   55.0758   14.8693 H   0  0  0  0  0  0
   -0.2321   54.6726   17.3127 H   0  0  0  0  0  0
    2.3341   51.6355   14.2467 H   0  0  0  0  0  0
    3.5043   50.7794   19.6152 H   0  0  0  0  0  0
    2.7054   48.7021   18.6117 H   0  0  0  0  0  0
    2.5408   48.5777   20.3551 H   0  0  0  0  0  0
    1.1226   48.8851   19.3553 H   0  0  0  0  0  0
    2.7330   51.7119   21.3727 H   0  0  0  0  0  0
   -0.1834   52.7316   22.5342 H   0  0  0  0  0  0
    2.7066   52.0897   23.0935 H   0  0  0  0  0  0
    1.9370   53.6691   22.6781 H   0  0  0  0  0  0
   -0.2755   52.8906   25.2405 H   0  0  0  0  0  0
    0.6470   51.7106   26.1534 H   0  0  0  0  0  0
    0.6697   49.1179   23.3477 H   0  0  0  0  0  0
    1.9777   49.9650   24.0830 H   0  0  0  0  0  0
    1.1014   48.0974   25.5738 H   0  0  0  0  0  0
    0.9729   49.6523   26.3992 H   0  0  0  0  0  0
   -1.1712   48.1363   25.0535 H   0  0  0  0  0  0
   -2.7800   49.7973   25.4665 H   0  0  0  0  0  0
   -1.5650   50.7908   26.2887 H   0  0  0  0  0  0
   -1.9601   51.6447   23.9410 H   0  0  0  0  0  0
   -1.6063   50.0979   23.2432 H   0  0  0  0  0  0
    5.0550   54.6227   26.7456 H   0  0  0  0  0  0
    6.9223   55.2063   24.9048 H   0  0  0  0  0  0
    7.6970   55.6681   22.6140 H   0  0  0  0  0  0
    8.4331   56.0020   20.2866 H   0  0  0  0  0  0
    4.9095   54.0203   18.8657 H   0  0  0  0  0  0
    4.1518   53.6826   21.1793 H   0  0  0  0  0  0
   -1.0619   48.5289   26.6312 H   0  0  0  0  0  0
  1  2  1  0  0  0
  1 41  1  0  0  0
  1 42  1  0  0  0
  1 43  1  0  0  0
  2  7  2  0  0  0
  2  3  1  0  0  0
  3  4  2  0  0  0
  3 44  1  0  0  0
  4  5  1  0  0  0
  4 45  1  0  0  0
  5 11  1  0  0  0
  5  6  2  0  0  0
  6  7  1  0  0  0
  6  8  1  0  0  0
  7 46  1  0  0  0
  8  9  1  0  0  0
  8 10  1  0  0  0
 10 11  2  0  0  0
 10 12  1  0  0  0
 12 13  1  0  0  0
 12 14  1  0  0  0
 12 47  1  0  0  0
 13 48  1  0  0  0
 13 49  1  0  0  0
 13 50  1  0  0  0
 14 15  1  0  0  0
 14 51  1  0  0  0
 15 16  2  0  0  0
 15 17  1  0  0  0
 17 21  1  0  0  0
 17 18  1  0  0  0
 17 52  1  0  0  0
 18 19  1  0  0  0
 18 53  1  0  0  0
 18 54  1  0  0  0
 19 20  1  0  0  0
 19 27  1  0  0  0
 20 21  1  0  0  0
 20 55  1  0  0  0
 20 56  1  0  0  0
 21 26  1  0  0  0
 21 22  1  0  0  0
 22 23  1  0  0  0
 22 57  1  0  0  0
 22 58  1  0  0  0
 23 24  1  0  0  0
 23 59  1  0  0  0
 23 60  1  0  0  0
 24 25  1  0  0  0
 24 61  1  0  0  0
 24 72  1  0  0  0
 25 26  1  0  0  0
 25 62  1  0  0  0
 25 63  1  0  0  0
 26 64  1  0  0  0
 26 65  1  0  0  0
 27 28  2  0  0  0
 27 29  1  0  0  0
 29 33  1  0  0  0
 29 30  2  0  0  0
 30 31  1  0  0  0
 30 66  1  0  0  0
 31 32  2  0  0  0
 31 67  1  0  0  0
 32 33  1  0  0  0
 32 34  1  0  0  0
 34 39  2  0  0  0
 34 35  1  0  0  0
 35 36  2  0  0  0
 35 68  1  0  0  0
 36 37  1  0  0  0
 36 69  1  0  0  0
 37 38  2  0  0  0
 37 40  1  0  0  0
 38 39  1  0  0  0
 38 70  1  0  0  0
 39 71  1  0  0  0
M  CHG  1  24   1
M  END
> <i_i_glide_confnum>
65

> <i_i_glide_lignum>
5565

> <i_i_glide_posenum>
315

> <i_i_glide_rotatable_bonds>
7

> <i_m_Source_File_Index>
3760

> <b_m_subgroup_collapsed>
0

> <r_i_docking_score>
-6.11796

> <r_i_glide_ecoul>
-9.63158

> <r_i_glide_eff_state_penalty>
0

> <r_i_glide_einternal>
4.25894

> <r_i_glide_emodel>
-67.8615

> <r_i_glide_energy>
-47.0089

> <r_i_glide_erotb>
0.512535

> <r_i_glide_esite>
-0.251619

> <r_i_glide_evdw>
-37.3773

> <r_i_glide_gscore>
-6.11796

> <r_i_glide_hbond>
-0.36

> <r_i_glide_ligand_efficiency>
-0.156871

> <r_i_glide_ligand_efficiency_ln>
-1.31186

> <r_i_glide_ligand_efficiency_sa>
-0.531982

> <r_i_glide_lipo>
-2.01148

> <r_i_glide_metal>
0

> <r_i_glide_rewards>
-0.693793

> <s_i_glide_gridfile>
wee1_glide-grid

> <s_m_Source_File>
wee1_decoys_glide_SP.sdf

> <s_m_Source_Path>
/Users/zhangxujun/Desktop

> <s_m_entry_id>
4035

> <s_m_entry_name>
wee1_decoys_glide_SP.3760

> <s_m_subgroup_title>
wee1_decoys_glide_SP

> <s_m_subgroupid>
wee1_decoys_glide_SP


$$$$
