ZINC04211923_3502
                    3D
 Schrodinger Suite 2024-2.
 59 61  0  0  1  0            999 V2000
    6.2400   54.6661   27.9328 C   0  0  0  0  0  0
    5.4110   53.7092   27.0525 C   0  0  2  0  0  0
    5.9672   52.7713   27.0635 H   0  0  0  0  0  0
    5.3639   54.0968   25.5592 C   0  0  0  0  0  0
    4.1634   54.0961   24.8286 C   0  0  0  0  0  0
    4.1749   54.2747   23.4472 C   0  0  0  0  0  0
    5.3822   54.4946   22.7902 C   0  0  0  0  0  0
    6.5738   54.5455   23.5030 C   0  0  0  0  0  0
    6.5629   54.3485   24.8811 C   0  0  0  0  0  0
    4.1311   53.2987   27.6524 N   0  0  0  0  0  0
    3.1320   54.0862   28.0977 C   0  0  0  0  0  0
    3.2632   55.2952   28.2323 O   0  0  0  0  0  0
    1.8241   53.3710   28.3860 C   0  0  0  0  0  0
    1.4527   52.3286   27.5172 C   0  0  0  0  0  0
    0.3133   51.5497   27.7432 C   0  0  0  0  0  0
   -0.4461   51.7791   28.8800 C   0  0  0  0  0  0
   -0.1307   52.8402   29.7190 C   0  0  0  0  0  0
    0.9531   53.7027   29.4657 C   0  0  0  0  0  0
    1.1364   54.8214   30.3252 N   0  0  0  0  0  0
    0.5831   54.7791   31.6738 C   0  0  0  0  0  0
    1.1045   56.1654   29.7448 C   0  0  0  0  0  0
   -0.0959   50.4967   26.9141 N   0  0  0  0  0  0
    0.0907   50.3640   25.5892 C   0  0  0  0  0  0
    0.6812   51.1826   24.8822 O   0  0  0  0  0  0
   -0.5057   49.2353   25.1626 N   0  0  0  0  0  0
   -0.7130   48.7771   23.8498 C   0  0  0  0  0  0
   -1.5364   47.6589   23.7201 C   0  0  0  0  0  0
   -1.8315   47.1446   22.4609 C   0  0  0  0  0  0
   -1.2952   47.7391   21.3142 C   0  0  0  0  0  0
   -0.4682   48.8604   21.4398 C   0  0  0  0  0  0
   -0.1737   49.3745   22.6997 C   0  0  0  0  0  0
   -1.6191   47.1713   19.9328 C   0  0  0  0  0  0
   -1.5629   48.1115   18.9878 F   0  0  0  0  0  0
   -0.7317   46.2196   19.6405 F   0  0  0  0  0  0
   -2.8403   46.6325   19.9071 F   0  0  0  0  0  0
    7.2974   54.6467   27.6689 H   0  0  0  0  0  0
    5.9045   55.6961   27.8375 H   0  0  0  0  0  0
    6.1802   54.3944   28.9883 H   0  0  0  0  0  0
    3.2138   53.9019   25.3035 H   0  0  0  0  0  0
    3.2536   54.2418   22.8858 H   0  0  0  0  0  0
    5.3882   54.6372   21.7198 H   0  0  0  0  0  0
    7.5045   54.7218   22.9858 H   0  0  0  0  0  0
    7.5041   54.3461   25.4055 H   0  0  0  0  0  0
    3.9177   52.3172   27.5566 H   0  0  0  0  0  0
    2.0719   52.0982   26.6647 H   0  0  0  0  0  0
   -1.3017   51.1577   29.1081 H   0  0  0  0  0  0
   -0.7835   52.9865   30.5641 H   0  0  0  0  0  0
    0.7932   53.8363   32.1790 H   0  0  0  0  0  0
    0.9908   55.6024   32.2561 H   0  0  0  0  0  0
   -0.4960   54.8961   31.6461 H   0  0  0  0  0  0
    0.9966   56.1598   28.6596 H   0  0  0  0  0  0
    0.3046   56.7723   30.1659 H   0  0  0  0  0  0
    2.0333   56.6826   29.9845 H   0  0  0  0  0  0
   -0.6734   49.7971   27.3708 H   0  0  0  0  0  0
   -0.9039   48.6496   25.8845 H   0  0  0  0  0  0
   -1.9651   47.1922   24.5950 H   0  0  0  0  0  0
   -2.4764   46.2828   22.3781 H   0  0  0  0  0  0
   -0.0438   49.3371   20.5675 H   0  0  0  0  0  0
    0.4725   50.2350   22.7471 H   0  0  0  0  0  0
  1  2  1  0  0  0
  1 36  1  0  0  0
  1 37  1  0  0  0
  1 38  1  0  0  0
  2  3  1  0  0  0
  2  4  1  0  0  0
  2 10  1  0  0  0
  4  9  2  0  0  0
  4  5  1  0  0  0
  5  6  2  0  0  0
  5 39  1  0  0  0
  6  7  1  0  0  0
  6 40  1  0  0  0
  7  8  2  0  0  0
  7 41  1  0  0  0
  8  9  1  0  0  0
  8 42  1  0  0  0
  9 43  1  0  0  0
 10 11  1  0  0  0
 10 44  1  0  0  0
 11 12  2  0  0  0
 11 13  1  0  0  0
 13 18  2  0  0  0
 13 14  1  0  0  0
 14 15  2  0  0  0
 14 45  1  0  0  0
 15 16  1  0  0  0
 15 22  1  0  0  0
 16 17  2  0  0  0
 16 46  1  0  0  0
 17 18  1  0  0  0
 17 47  1  0  0  0
 18 19  1  0  0  0
 19 20  1  0  0  0
 19 21  1  0  0  0
 20 48  1  0  0  0
 20 49  1  0  0  0
 20 50  1  0  0  0
 21 51  1  0  0  0
 21 52  1  0  0  0
 21 53  1  0  0  0
 22 23  1  0  0  0
 22 54  1  0  0  0
 23 24  2  0  0  0
 23 25  1  0  0  0
 25 26  1  0  0  0
 25 55  1  0  0  0
 26 31  2  0  0  0
 26 27  1  0  0  0
 27 28  2  0  0  0
 27 56  1  0  0  0
 28 29  1  0  0  0
 28 57  1  0  0  0
 29 30  2  0  0  0
 29 32  1  0  0  0
 30 31  1  0  0  0
 30 58  1  0  0  0
 31 59  1  0  0  0
 32 33  1  0  0  0
 32 34  1  0  0  0
 32 35  1  0  0  0
M  END
> <i_i_glide_confnum>
38

> <i_i_glide_lignum>
3503

> <i_i_glide_posenum>
49

> <i_i_glide_rotatable_bonds>
10

> <i_m_Source_File_Index>
4824

> <b_m_subgroup_collapsed>
0

> <r_i_docking_score>
-6.41018

> <r_i_glide_ecoul>
-6.25628

> <r_i_glide_eff_state_penalty>
0

> <r_i_glide_einternal>
12.1519

> <r_i_glide_emodel>
-61.6976

> <r_i_glide_energy>
-47.4265

> <r_i_glide_erotb>
0.638956

> <r_i_glide_esite>
-0.169677

> <r_i_glide_evdw>
-41.1702

> <r_i_glide_gscore>
-6.41018

> <r_i_glide_hbond>
-0.16

> <r_i_glide_ligand_efficiency>
-0.188535

> <r_i_glide_ligand_efficiency_ln>
-1.41619

> <r_i_glide_ligand_efficiency_sa>
-0.610779

> <r_i_glide_lipo>
-2.82461

> <r_i_glide_metal>
0

> <r_i_glide_rewards>
-0.897898

> <s_i_glide_gridfile>
wee1_glide-grid

> <s_m_Source_File>
wee1_decoys_glide_SP.sdf

> <s_m_Source_Path>
/Users/zhangxujun/Desktop

> <s_m_entry_id>
5099

> <s_m_entry_name>
wee1_decoys_glide_SP.4824

> <s_m_subgroup_title>
wee1_decoys_glide_SP

> <s_m_subgroupid>
wee1_decoys_glide_SP


$$$$
