ZINC15003056_569
                    3D
 Schrodinger Suite 2024-2.
 77 81  0  0  1  0            999 V2000
    3.2074   52.8324   29.6525 C   0  0  0  0  0  0
    3.8662   53.3662   28.3944 C   0  0  0  0  0  0
    5.2173   53.6992   28.3894 C   0  0  0  0  0  0
    5.8205   54.1641   27.2259 C   0  0  0  0  0  0
    5.0940   54.3021   26.0336 C   0  0  0  0  0  0
    3.7127   53.9720   26.0412 C   0  0  0  0  0  0
    3.1215   53.5116   27.2247 C   0  0  0  0  0  0
    2.8002   54.1130   24.8249 C   0  0  0  0  0  0
    5.8368   54.8202   24.8196 C   0  0  0  0  0  0
    6.6965   55.6932   24.9667 O   0  0  0  0  0  0
    5.5025   54.2600   23.6341 N   0  0  0  0  0  0
    5.9037   54.6507   22.3423 C   0  0  0  0  0  0
    7.1107   55.3004   22.0780 C   0  0  0  0  0  0
    7.4095   55.7289   20.7885 C   0  0  0  0  0  0
    6.5045   55.5404   19.7371 C   0  0  0  0  0  0
    5.3190   54.8400   19.9991 C   0  0  0  0  0  0
    5.0226   54.3948   21.2891 C   0  0  0  0  0  0
    6.8005   56.0381   18.4678 N   0  0  0  0  0  0
    7.4265   57.3523   18.2370 C   0  0  0  0  0  0
    6.3973   58.3852   17.7177 C   0  0  0  0  0  0
    5.7377   57.9386   16.4013 C   0  0  0  0  0  0
    5.1834   56.5068   16.6124 C   0  0  0  0  0  0
    6.2320   55.5359   17.2057 C   0  0  0  0  0  0
    4.1316   58.8246   14.5669 C   0  0  0  0  0  0
    2.5784   58.9438   14.4091 C   0  0  0  0  0  0
    2.0973   60.3533   14.8921 C   0  0  0  0  0  0
    2.6772   61.5364   14.0819 C   0  0  0  0  0  0
    2.3557   61.3847   12.6998 O   0  0  0  0  0  0
    2.7765   60.1572   12.1060 C   0  0  0  0  0  0
    2.2045   58.9578   12.8969 C   0  0  0  0  0  0
    1.8154   57.7616   15.0702 C   0  0  0  0  0  0
    2.2297   56.4450   14.8126 C   0  0  0  0  0  0
    1.5846   55.3603   15.3998 C   0  0  0  0  0  0
    0.4931   55.5767   16.2337 C   0  0  0  0  0  0
    0.0309   56.8680   16.4631 C   0  0  0  0  0  0
    0.6774   57.9485   15.8698 C   0  0  0  0  0  0
    2.6767   51.9067   29.4266 H   0  0  0  0  0  0
    3.9315   52.6148   30.4379 H   0  0  0  0  0  0
    2.4768   53.5472   30.0302 H   0  0  0  0  0  0
    5.8111   53.5964   29.2815 H   0  0  0  0  0  0
    6.8728   54.4117   27.2625 H   0  0  0  0  0  0
    2.0719   53.2535   27.2392 H   0  0  0  0  0  0
    2.9718   53.3049   24.1143 H   0  0  0  0  0  0
    1.7462   54.0970   25.1034 H   0  0  0  0  0  0
    2.9681   55.0631   24.3193 H   0  0  0  0  0  0
    4.7694   53.5697   23.6724 H   0  0  0  0  0  0
    7.8281   55.4995   22.8560 H   0  0  0  0  0  0
    8.3613   56.2090   20.6157 H   0  0  0  0  0  0
    4.5980   54.6626   19.2147 H   0  0  0  0  0  0
    4.0844   53.8883   21.4647 H   0  0  0  0  0  0
    7.9305   57.7345   19.1224 H   0  0  0  0  0  0
    8.2122   57.2169   17.4916 H   0  0  0  0  0  0
    5.6389   58.5405   18.4820 H   0  0  0  0  0  0
    6.8587   59.3613   17.5918 H   0  0  0  0  0  0
    6.5000   57.9327   15.6183 H   0  0  0  0  0  0
    4.7791   56.1080   15.6846 H   0  0  0  0  0  0
    4.3238   56.5291   17.2853 H   0  0  0  0  0  0
    7.0563   55.4251   16.4982 H   0  0  0  0  0  0
    5.8243   54.5304   17.3244 H   0  0  0  0  0  0
    4.7070   59.6241   14.1019 H   0  0  0  0  0  0
    4.5144   57.8873   14.1645 H   0  0  0  0  0  0
    1.0137   60.4372   14.8153 H   0  0  0  0  0  0
    2.3033   60.4818   15.9558 H   0  0  0  0  0  0
    2.2586   62.4774   14.4384 H   0  0  0  0  0  0
    3.7564   61.6090   14.2050 H   0  0  0  0  0  0
    2.4272   60.1281   11.0741 H   0  0  0  0  0  0
    3.8647   60.1103   12.0697 H   0  0  0  0  0  0
    2.5062   58.0230   12.4240 H   0  0  0  0  0  0
    1.1181   58.9672   12.7912 H   0  0  0  0  0  0
    3.0595   56.2463   14.1518 H   0  0  0  0  0  0
    1.9283   54.3538   15.2075 H   0  0  0  0  0  0
   -0.0036   54.7369   16.6966 H   0  0  0  0  0  0
   -0.8231   57.0361   17.1016 H   0  0  0  0  0  0
    0.2878   58.9297   16.0820 H   0  0  0  0  0  0
    4.5706   58.8963   16.0480 N   0  3  0  0  0  0
    3.7845   58.6688   16.6407 H   0  0  0  0  0  0
    4.7915   59.8639   16.2875 H   0  0  0  0  0  0
  1  2  1  0  0  0
  1 37  1  0  0  0
  1 38  1  0  0  0
  1 39  1  0  0  0
  2  7  2  0  0  0
  2  3  1  0  0  0
  3  4  2  0  0  0
  3 40  1  0  0  0
  4  5  1  0  0  0
  4 41  1  0  0  0
  5  6  2  0  0  0
  5  9  1  0  0  0
  6  7  1  0  0  0
  6  8  1  0  0  0
  7 42  1  0  0  0
  8 43  1  0  0  0
  8 44  1  0  0  0
  8 45  1  0  0  0
  9 10  2  0  0  0
  9 11  1  0  0  0
 11 12  1  0  0  0
 11 46  1  0  0  0
 12 17  2  0  0  0
 12 13  1  0  0  0
 13 14  2  0  0  0
 13 47  1  0  0  0
 14 15  1  0  0  0
 14 48  1  0  0  0
 15 16  2  0  0  0
 15 18  1  0  0  0
 16 17  1  0  0  0
 16 49  1  0  0  0
 17 50  1  0  0  0
 18 23  1  0  0  0
 18 19  1  0  0  0
 19 20  1  0  0  0
 19 51  1  0  0  0
 19 52  1  0  0  0
 20 21  1  0  0  0
 20 53  1  0  0  0
 20 54  1  0  0  0
 21 22  1  0  0  0
 21 55  1  0  0  0
 21 75  1  0  0  0
 22 23  1  0  0  0
 22 56  1  0  0  0
 22 57  1  0  0  0
 23 58  1  0  0  0
 23 59  1  0  0  0
 24 25  1  0  0  0
 24 60  1  0  0  0
 24 61  1  0  0  0
 24 75  1  0  0  0
 25 30  1  0  0  0
 25 26  1  0  0  0
 25 31  1  0  0  0
 26 27  1  0  0  0
 26 62  1  0  0  0
 26 63  1  0  0  0
 27 28  1  0  0  0
 27 64  1  0  0  0
 27 65  1  0  0  0
 28 29  1  0  0  0
 29 30  1  0  0  0
 29 66  1  0  0  0
 29 67  1  0  0  0
 30 68  1  0  0  0
 30 69  1  0  0  0
 31 36  2  0  0  0
 31 32  1  0  0  0
 32 33  2  0  0  0
 32 70  1  0  0  0
 33 34  1  0  0  0
 33 71  1  0  0  0
 34 35  2  0  0  0
 34 72  1  0  0  0
 35 36  1  0  0  0
 35 73  1  0  0  0
 36 74  1  0  0  0
 75 76  1  0  0  0
 75 77  1  0  0  0
M  CHG  1  75   1
M  END
> <i_i_glide_confnum>
300

> <i_i_glide_lignum>
570

> <i_i_glide_posenum>
131

> <i_i_glide_rotatable_bonds>
8

> <i_m_Source_File_Index>
5657

> <b_m_subgroup_collapsed>
0

> <r_i_docking_score>
-5.97665

> <r_i_glide_ecoul>
-5.83103

> <r_i_glide_eff_state_penalty>
0

> <r_i_glide_einternal>
11.4699

> <r_i_glide_emodel>
-60.176

> <r_i_glide_energy>
-45.7937

> <r_i_glide_erotb>
0.65651

> <r_i_glide_esite>
-0.1

> <r_i_glide_evdw>
-39.9627

> <r_i_glide_gscore>
-5.97665

> <r_i_glide_hbond>
-0.331524

> <r_i_glide_ligand_efficiency>
-0.161531

> <r_i_glide_ligand_efficiency_ln>
-1.2962

> <r_i_glide_ligand_efficiency_sa>
-0.538258

> <r_i_glide_lipo>
-2.79365

> <r_i_glide_metal>
0

> <r_i_glide_rewards>
-0.535199

> <s_i_glide_gridfile>
wee1_glide-grid

> <s_m_Source_File>
wee1_decoys_glide_SP.sdf

> <s_m_Source_Path>
/Users/zhangxujun/Desktop

> <s_m_entry_id>
5932

> <s_m_entry_name>
wee1_decoys_glide_SP.5657

> <s_m_subgroup_title>
wee1_decoys_glide_SP

> <s_m_subgroupid>
wee1_decoys_glide_SP


$$$$
