ZINC51088571_4748
                    3D
 Schrodinger Suite 2024-2.
 33 35  0  0  1  0            999 V2000
    4.1804   54.1054   23.1114 C   0  0  0  0  0  0
    3.8832   53.9700   24.4751 C   0  0  0  0  0  0
    4.9138   54.1792   25.3845 C   0  0  0  0  0  0
    6.1748   54.5103   24.9796 C   0  0  0  0  0  0
    6.4944   54.6729   23.6365 C   0  0  0  0  0  0
    5.4657   54.4966   22.6842 C   0  0  0  0  0  0
    5.6105   54.7585   21.3070 N   0  0  0  0  0  0
    6.5320   55.5257   20.6811 C   0  0  0  0  0  0
    7.4596   56.0860   21.2683 O   0  0  0  0  0  0
    6.3303   55.7754   19.1918 C   0  0  0  0  0  0
    6.9415   56.9229   18.6510 C   0  0  0  0  0  0
    6.7612   57.2935   17.3234 C   0  0  0  0  0  0
    5.9593   56.5208   16.4968 C   0  0  0  0  0  0
    5.3634   55.3680   16.9960 C   0  0  0  0  0  0
    5.5465   54.9578   18.3284 C   0  0  0  0  0  0
    4.9678   53.7453   18.7591 N   0  0  0  0  0  0
    4.1836   52.8968   17.8746 N   0  0  0  0  0  0
    7.5282   58.7121   16.7096 Cl  0  0  0  0  0  0
    6.9660   54.6890   26.0707 O   0  0  0  0  0  0
    6.2120   54.2251   27.1592 C   0  0  0  0  0  0
    4.8754   54.1347   26.7420 O   0  0  0  0  0  0
    3.3856   53.9677   22.3913 H   0  0  0  0  0  0
    2.8869   53.7104   24.8004 H   0  0  0  0  0  0
    7.4980   54.9534   23.3581 H   0  0  0  0  0  0
    4.8487   54.4460   20.7202 H   0  0  0  0  0  0
    7.5609   57.5619   19.2639 H   0  0  0  0  0  0
    5.8068   56.8063   15.4662 H   0  0  0  0  0  0
    4.7629   54.7802   16.3181 H   0  0  0  0  0  0
    5.4988   53.1705   19.4031 H   0  0  0  0  0  0
    4.7039   52.0320   17.6850 H   0  0  0  0  0  0
    3.3189   52.6565   18.3410 H   0  0  0  0  0  0
    6.3031   54.8964   28.0134 H   0  0  0  0  0  0
    6.5681   53.2341   27.4464 H   0  0  0  0  0  0
  1  6  2  0  0  0
  1  2  1  0  0  0
  1 22  1  0  0  0
  2  3  2  0  0  0
  2 23  1  0  0  0
  3 21  1  0  0  0
  3  4  1  0  0  0
  4  5  2  0  0  0
  4 19  1  0  0  0
  5  6  1  0  0  0
  5 24  1  0  0  0
  6  7  1  0  0  0
  7  8  1  0  0  0
  7 25  1  0  0  0
  8  9  2  0  0  0
  8 10  1  0  0  0
 10 15  2  0  0  0
 10 11  1  0  0  0
 11 12  2  0  0  0
 11 26  1  0  0  0
 12 13  1  0  0  0
 12 18  1  0  0  0
 13 14  2  0  0  0
 13 27  1  0  0  0
 14 15  1  0  0  0
 14 28  1  0  0  0
 15 16  1  0  0  0
 16 17  1  0  0  0
 16 29  1  0  0  0
 17 30  1  0  0  0
 17 31  1  0  0  0
 19 20  1  0  0  0
 20 21  1  0  0  0
 20 32  1  0  0  0
 20 33  1  0  0  0
M  END
> <i_i_glide_confnum>
3

> <i_i_glide_lignum>
4749

> <i_i_glide_posenum>
25

> <i_i_glide_rotatable_bonds>
4

> <i_m_Source_File_Index>
2909

> <b_m_subgroup_collapsed>
0

> <r_i_docking_score>
-6.5026

> <r_i_glide_ecoul>
-5.73981

> <r_i_glide_eff_state_penalty>
0

> <r_i_glide_einternal>
5.24694

> <r_i_glide_emodel>
-47.5605

> <r_i_glide_energy>
-35.3065

> <r_i_glide_erotb>
0.59258

> <r_i_glide_esite>
-0.0342276

> <r_i_glide_evdw>
-29.5667

> <r_i_glide_gscore>
-6.5026

> <r_i_glide_hbond>
-0.537765

> <r_i_glide_ligand_efficiency>
-0.309648

> <r_i_glide_ligand_efficiency_ln>
-1.60776

> <r_i_glide_ligand_efficiency_sa>
-0.854295

> <r_i_glide_lipo>
-1.58971

> <r_i_glide_metal>
0

> <r_i_glide_rewards>
-2.59418

> <s_i_glide_gridfile>
wee1_glide-grid

> <s_m_Source_File>
wee1_decoys_glide_SP.sdf

> <s_m_Source_Path>
/Users/zhangxujun/Desktop

> <s_m_entry_id>
3184

> <s_m_entry_name>
wee1_decoys_glide_SP.2909

> <s_m_subgroup_title>
wee1_decoys_glide_SP

> <s_m_subgroupid>
wee1_decoys_glide_SP


$$$$
