@<TRIPOS>MOLECULE
ZINC13353572_1936
49   51    1
SMALL
USER_CHARGES


@<TRIPOS>ATOM
      1 C1          0.7987   50.3669   23.2035 C.3       1 UNK         0.0000 
      2 C2          0.3523   50.9889   24.5412 C.3       1 UNK         0.0000 
      3 H3          0.5887   50.2492   25.3087 H         1 UNK         0.0000 
      4 C4         -1.1629   51.2681   24.5664 C.2       1 UNK         0.0000 
      5 O5         -1.6837   51.9519   23.6834 O.2       1 UNK         0.0000 
      6 N6         -1.8612   50.7322   25.5855 N.am      1 UNK         0.0000 
      7 C7         -3.2929   50.8960   25.8564 C.3       1 UNK         0.0000 
      8 C8         -3.6918   50.1001   27.1296 C.3       1 UNK         0.0000 
      9 C9         -5.1919   50.2005   27.4856 C.3       1 UNK         0.0000 
     10 C10        -5.6436   51.6674   27.6196 C.3       1 UNK         0.0000 
     11 C11        -5.2427   52.5226   26.4016 C.3       1 UNK         0.0000 
     12 C12        -3.7414   52.3727   26.0728 C.3       1 UNK         0.0000 
     13 C13        -4.0847   50.3204   24.7417 C.1       1 UNK         0.0000 
     14 N14        -4.7029   49.8712   23.8704 N.1       1 UNK         0.0000 
     15 S15         1.3127   52.4967   24.9278 S.3       1 UNK         0.0000 
     16 C16         1.3176   52.4805   26.7073 C.ar      1 UNK         0.0000 
     17 N17         0.3439   51.9205   27.3916 N.2       1 UNK         0.0000 
     18 C18         0.6814   52.0020   28.6527 C.ar      1 UNK         0.0000 
     19 C19         1.8843   52.6598   28.8072 C.ar      1 UNK         0.0000 
     20 N20         2.3405   52.9677   27.5268 N.pl3     1 UNK         0.0000 
     21 C21         3.5699   53.5797   27.1159 C.ar      1 UNK         0.0000 
     22 C22         4.7807   53.2730   27.7605 C.ar      1 UNK         0.0000 
     23 C23         5.9754   53.8558   27.3504 C.ar      1 UNK         0.0000 
     24 C24         5.9663   54.7309   26.2726 C.ar      1 UNK         0.0000 
     25 C25         4.7884   55.0274   25.6103 C.ar      1 UNK         0.0000 
     26 C26         3.5926   54.4724   26.0383 C.ar      1 UNK         0.0000 
     27 F27         7.1044   55.3077   25.8518 F         1 UNK         0.0000 
     28 C28         2.6216   52.9938   30.0148 C.2       1 UNK         0.0000 
     29 O29         2.7110   52.0969   30.8819 O.co2     1 UNK         0.0000 
     30 H30         0.2379   49.4594   22.9738 H         1 UNK         0.0000 
     31 H31         0.6648   51.0602   22.3714 H         1 UNK         0.0000 
     32 H32         1.8541   50.0929   23.2355 H         1 UNK         0.0000 
     33 H33        -1.3755   50.1168   26.2248 H         1 UNK         0.0000 
     34 H34        -3.0988   50.4513   27.9771 H         1 UNK         0.0000 
     35 H35        -3.4052   49.0519   27.0218 H         1 UNK         0.0000 
     36 H36        -5.3863   49.6661   28.4168 H         1 UNK         0.0000 
     37 H37        -5.7903   49.7007   26.7228 H         1 UNK         0.0000 
     38 H38        -5.2032   52.0927   28.5217 H         1 UNK         0.0000 
     39 H39        -6.7235   51.7104   27.7638 H         1 UNK         0.0000 
     40 H40        -5.4795   53.5705   26.5903 H         1 UNK         0.0000 
     41 H41        -5.8401   52.2312   25.5365 H         1 UNK         0.0000 
     42 H42        -3.4961   52.9801   25.2011 H         1 UNK         0.0000 
     43 H43        -3.1494   52.8048   26.8810 H         1 UNK         0.0000 
     44 H44         0.0587   51.6041   29.4426 H         1 UNK         0.0000 
     45 H45         4.8177   52.5652   28.5748 H         1 UNK         0.0000 
     46 H46         6.9002   53.6218   27.8565 H         1 UNK         0.0000 
     47 H47         4.8106   55.6966   24.7676 H         1 UNK         0.0000 
     48 H48         2.7033   54.7341   25.4966 H         1 UNK         0.0000 
     49 O49         3.1043   54.1453   30.0817 O.co2     1 UNK         0.0000 
@<TRIPOS>BOND
     1    1    2 1    
     2    1   30 1    
     3    1   31 1    
     4    1   32 1    
     5    2    3 1    
     6    2    4 1    
     7    2   15 1    
     8    4    5 2    
     9    4    6 am   BACKBONE|DICT|INTERRES
    10    6    7 1    
    11    6   33 1    
    12    7   12 1    
    13    7    8 1    
    14    7   13 1    
    15    8    9 1    
    16    8   34 1    
    17    8   35 1    
    18    9   10 1    
    19    9   36 1    
    20    9   37 1    
    21   10   11 1    
    22   10   38 1    
    23   10   39 1    
    24   11   12 1    
    25   11   40 1    
    26   11   41 1    
    27   12   42 1    
    28   12   43 1    
    29   13   14 3    
    30   15   16 1    
    31   16   20 ar   
    32   16   17 ar   
    33   17   18 ar   
    34   18   19 ar   
    35   18   44 1    
    36   19   20 ar   
    37   19   28 1    
    38   20   21 1    
    39   21   26 ar   
    40   21   22 ar   
    41   22   23 ar   
    42   22   45 1    
    43   23   24 ar   
    44   23   46 1    
    45   24   25 ar   
    46   24   27 1    
    47   25   26 ar   
    48   25   47 1    
    49   26   48 1    
    50   28   29 2    
    51   28   49 1    
@<TRIPOS>SUBSTRUCTURE
     1 UNK         1 GROUP             0       ****    0 ROOT    
