@<TRIPOS>MOLECULE
ZINC39686649_133
72   75    1
SMALL
USER_CHARGES


@<TRIPOS>ATOM
      1 C1          6.9088   54.5477   26.0766 C.3       1 UNK         0.0000 
      2 C2          5.4851   54.3354   26.5592 C.ar      1 UNK         0.0000 
      3 C3          5.2435   54.2511   27.9333 C.ar      1 UNK         0.0000 
      4 C4          3.9518   54.0415   28.4119 C.ar      1 UNK         0.0000 
      5 C5          2.8782   53.9011   27.5244 C.ar      1 UNK         0.0000 
      6 C6          3.1224   54.0114   26.1485 C.ar      1 UNK         0.0000 
      7 C7          4.4147   54.2106   25.6574 C.ar      1 UNK         0.0000 
      8 C8          4.6104   54.2984   24.1492 C.3       1 UNK         0.0000 
      9 C9          1.4757   53.7348   28.0580 C.2       1 UNK         0.0000 
     10 O10         1.1132   54.4622   28.9863 O.2       1 UNK         0.0000 
     11 N11         0.6448   52.8243   27.4807 N.am      1 UNK         0.0000 
     12 C12        -0.7552   52.7195   27.8912 C.3       1 UNK         0.0000 
     13 C13        -1.1568   51.2952   27.4746 C.3       1 UNK         0.0000 
     14 H14        -0.9073   50.6121   28.2878 H         1 UNK         0.0000 
     15 C15        -0.2715   50.9830   26.2336 C.3       1 UNK         0.0000 
     16 C16         1.0422   51.7002   26.6228 C.3       1 UNK         0.0000 
     17 C17        -0.8390   51.5707   24.8977 C.3       1 UNK         0.0000 
     18 C18         0.0661   51.2892   23.6835 C.3       1 UNK         0.0000 
     19 N19         0.1823   49.7587   23.5260 N.4       1 UNK         0.0000 
     20 C20         0.7050   49.0450   24.7891 C.3       1 UNK         0.0000 
     21 C21        -0.1464   49.4544   26.0040 C.3       1 UNK         0.0000 
     22 C22        -2.6880   51.2246   27.2258 C.2       1 UNK         0.0000 
     23 O23        -3.3019   52.1651   26.7178 O.2       1 UNK         0.0000 
     24 N24        -3.2957   50.0972   27.6301 N.am      1 UNK         0.0000 
     25 C25        -4.6907   49.7305   27.3894 C.3       1 UNK         0.0000 
     26 H26        -5.2927   50.6025   27.6613 H         1 UNK         0.0000 
     27 C27        -5.1588   48.6385   28.3713 C.3       1 UNK         0.0000 
     28 C28        -5.0155   49.4445   25.8910 C.3       1 UNK         0.0000 
     29 C29        -4.0849   48.5223   25.0758 C.ar      1 UNK         0.0000 
     30 C30        -3.2654   47.5686   25.6971 C.ar      1 UNK         0.0000 
     31 C31        -2.3967   46.7744   24.9533 C.ar      1 UNK         0.0000 
     32 C32        -2.3496   46.9031   23.5700 C.ar      1 UNK         0.0000 
     33 C33        -3.1738   47.8277   22.9331 C.ar      1 UNK         0.0000 
     34 C34        -4.0491   48.6445   23.6725 C.ar      1 UNK         0.0000 
     35 O35        -4.8794   49.5865   23.0893 O.3       1 UNK         0.0000 
     36 C36        -4.8762   49.7590   21.6761 C.3       1 UNK         0.0000 
     37 H37         7.6258   54.4599   26.8935 H         1 UNK         0.0000 
     38 H38         7.1562   53.7952   25.3274 H         1 UNK         0.0000 
     39 H39         7.0136   55.5292   25.6143 H         1 UNK         0.0000 
     40 H40         6.0556   54.3543   28.6394 H         1 UNK         0.0000 
     41 H41         3.7936   53.9911   29.4800 H         1 UNK         0.0000 
     42 H42         2.3009   53.9606   25.4477 H         1 UNK         0.0000 
     43 H43         4.7399   53.3042   23.7229 H         1 UNK         0.0000 
     44 H44         3.7474   54.7657   23.6727 H         1 UNK         0.0000 
     45 H45         5.4745   54.9014   23.8763 H         1 UNK         0.0000 
     46 H46        -1.2960   53.4446   27.2823 H         1 UNK         0.0000 
     47 H47        -0.8958   52.8506   28.9659 H         1 UNK         0.0000 
     48 H48         1.5967   51.0281   27.2807 H         1 UNK         0.0000 
     49 H49         1.7011   51.9285   25.7902 H         1 UNK         0.0000 
     50 H50        -1.8377   51.1844   24.6861 H         1 UNK         0.0000 
     51 H51        -0.9688   52.6504   24.9946 H         1 UNK         0.0000 
     52 H52        -0.3710   51.6573   22.7540 H         1 UNK         0.0000 
     53 H53         1.0784   51.6833   23.7741 H         1 UNK         0.0000 
     54 H54        -0.7330   49.3869   23.3101 H         1 UNK         0.0000 
     55 H55         0.6356   47.9743   24.5924 H         1 UNK         0.0000 
     56 H56         1.7579   49.2966   24.8817 H         1 UNK         0.0000 
     57 H57         0.2842   48.9754   26.8818 H         1 UNK         0.0000 
     58 H58        -1.1377   49.0198   25.9230 H         1 UNK         0.0000 
     59 H59        -2.7061   49.3896   28.0811 H         1 UNK         0.0000 
     60 H60        -6.1426   48.2583   28.0934 H         1 UNK         0.0000 
     61 H61        -4.4833   47.7864   28.4303 H         1 UNK         0.0000 
     62 H62        -5.2643   49.0450   29.3784 H         1 UNK         0.0000 
     63 H63        -4.9843   50.4176   25.3977 H         1 UNK         0.0000 
     64 H64        -6.0414   49.0940   25.7786 H         1 UNK         0.0000 
     65 H65        -3.2459   47.4558   26.7687 H         1 UNK         0.0000 
     66 H66        -1.7453   46.0806   25.4642 H         1 UNK         0.0000 
     67 H67        -1.6741   46.2913   22.9899 H         1 UNK         0.0000 
     68 H68        -3.1190   47.8983   21.8575 H         1 UNK         0.0000 
     69 H69        -5.5836   50.5454   21.4086 H         1 UNK         0.0000 
     70 H70        -3.8931   50.0642   21.3127 H         1 UNK         0.0000 
     71 H71        -5.1851   48.8482   21.1604 H         1 UNK         0.0000 
     72 H72         0.7802   49.5381   22.7402 H         1 UNK         0.0000 
@<TRIPOS>BOND
     1    1    2 1    
     2    1   37 1    
     3    1   38 1    
     4    1   39 1    
     5    2    7 ar   
     6    2    3 ar   
     7    3    4 ar   
     8    3   40 1    
     9    4    5 ar   
    10    4   41 1    
    11    5    6 ar   
    12    5    9 1    
    13    6    7 ar   
    14    6   42 1    
    15    7    8 1    
    16    8   43 1    
    17    8   44 1    
    18    8   45 1    
    19    9   10 2    
    20    9   11 am   BACKBONE|DICT|INTERRES
    21   11   16 1    
    22   11   12 1    
    23   12   13 1    
    24   12   46 1    
    25   12   47 1    
    26   13   14 1    
    27   13   15 1    
    28   13   22 1    
    29   15   21 1    
    30   15   16 1    
    31   15   17 1    
    32   16   48 1    
    33   16   49 1    
    34   17   18 1    
    35   17   50 1    
    36   17   51 1    
    37   18   19 1    
    38   18   52 1    
    39   18   53 1    
    40   19   20 1    
    41   19   54 1    
    42   19   72 1    
    43   20   21 1    
    44   20   55 1    
    45   20   56 1    
    46   21   57 1    
    47   21   58 1    
    48   22   23 2    
    49   22   24 am   BACKBONE|DICT|INTERRES
    50   24   25 1    
    51   24   59 1    
    52   25   26 1    
    53   25   27 1    
    54   25   28 1    
    55   27   60 1    
    56   27   61 1    
    57   27   62 1    
    58   28   29 1    
    59   28   63 1    
    60   28   64 1    
    61   29   34 ar   
    62   29   30 ar   
    63   30   31 ar   
    64   30   65 1    
    65   31   32 ar   
    66   31   66 1    
    67   32   33 ar   
    68   32   67 1    
    69   33   34 ar   
    70   33   68 1    
    71   34   35 1    
    72   35   36 1    
    73   36   69 1    
    74   36   70 1    
    75   36   71 1    
@<TRIPOS>SUBSTRUCTURE
     1 UNK         1 GROUP             0       ****    0 ROOT    
