@<TRIPOS>MOLECULE
ZINC14816773_2249
54   56    1
SMALL
USER_CHARGES


@<TRIPOS>ATOM
      1 C1          0.1339   49.2941   25.3072 C.3       1 UNK         0.0000 
      2 C2          0.3238   49.6272   23.8372 C.ar      1 UNK         0.0000 
      3 C3         -0.4639   49.0019   22.8671 C.ar      1 UNK         0.0000 
      4 C4         -0.2738   49.2910   21.5153 C.ar      1 UNK         0.0000 
      5 C5          0.7012   50.2105   21.1249 C.ar      1 UNK         0.0000 
      6 C6          1.4724   50.8704   22.0864 C.ar      1 UNK         0.0000 
      7 C7          1.2824   50.5671   23.4457 C.ar      1 UNK         0.0000 
      8 N8          2.4401   51.7826   21.6289 N.am      1 UNK         0.0000 
      9 C9          2.8914   52.8866   22.2653 C.2       1 UNK         0.0000 
     10 O10         2.4381   53.2910   23.3396 O.2       1 UNK         0.0000 
     11 C11         4.0613   53.6023   21.6091 C.ar      1 UNK         0.0000 
     12 C12         4.1194   53.6744   20.2070 C.ar      1 UNK         0.0000 
     13 C13         5.1480   54.3527   19.5596 C.ar      1 UNK         0.0000 
     14 C14         6.1478   54.9686   20.3003 C.ar      1 UNK         0.0000 
     15 C15         6.1269   54.8964   21.6912 C.ar      1 UNK         0.0000 
     16 C16         5.0947   54.2165   22.3670 C.ar      1 UNK         0.0000 
     17 N17         5.0569   54.1078   23.7782 N.am      1 UNK         0.0000 
     18 C18         5.7857   54.7073   24.7445 C.2       1 UNK         0.0000 
     19 O19         6.7034   55.5055   24.5490 O.2       1 UNK         0.0000 
     20 C20         5.4324   54.3078   26.1547 C.ar      1 UNK         0.0000 
     21 C21         6.4342   54.3170   27.1347 C.ar      1 UNK         0.0000 
     22 C22         6.1560   53.9334   28.4429 C.ar      1 UNK         0.0000 
     23 C23         4.8719   53.5301   28.7936 C.ar      1 UNK         0.0000 
     24 C24         3.8560   53.5268   27.8400 C.ar      1 UNK         0.0000 
     25 C25         4.1278   53.9260   26.5250 C.ar      1 UNK         0.0000 
     26 S26         2.2148   53.0385   28.3535 S.o2      1 UNK         0.0000 
     27 O27         1.3591   52.9973   27.1616 O.2       1 UNK         0.0000 
     28 O28         2.3736   51.8508   29.2034 O.2       1 UNK         0.0000 
     29 N29         1.6561   54.3696   29.3859 N.pl3     1 UNK         0.0000 
     30 C30         0.5581   54.0515   30.3238 C.3       1 UNK         0.0000 
     31 C31         1.5684   55.6958   28.7420 C.3       1 UNK         0.0000 
     32 H32        -0.8914   48.9846   25.5149 H         1 UNK         0.0000 
     33 H33         0.3309   50.1608   25.9408 H         1 UNK         0.0000 
     34 H34         0.8047   48.4891   25.6094 H         1 UNK         0.0000 
     35 H35        -1.2142   48.2846   23.1628 H         1 UNK         0.0000 
     36 H36        -0.8816   48.7985   20.7710 H         1 UNK         0.0000 
     37 H37         0.8411   50.4155   20.0724 H         1 UNK         0.0000 
     38 H38         1.8900   51.0432   24.1992 H         1 UNK         0.0000 
     39 H39         2.8141   51.5945   20.7113 H         1 UNK         0.0000 
     40 H40         3.3508   53.2295   19.5932 H         1 UNK         0.0000 
     41 H41         5.1612   54.3984   18.4802 H         1 UNK         0.0000 
     42 H42         6.9461   55.4929   19.7948 H         1 UNK         0.0000 
     43 H43         6.9430   55.3660   22.2180 H         1 UNK         0.0000 
     44 H44         4.3103   53.5112   24.1051 H         1 UNK         0.0000 
     45 H45         7.4430   54.6152   26.8917 H         1 UNK         0.0000 
     46 H46         6.9478   53.9539   29.1763 H         1 UNK         0.0000 
     47 H47         4.6666   53.2234   29.8074 H         1 UNK         0.0000 
     48 H48         3.3212   53.9284   25.8047 H         1 UNK         0.0000 
     49 H49         0.4589   54.8381   31.0724 H         1 UNK         0.0000 
     50 H50        -0.3763   53.9399   29.7727 H         1 UNK         0.0000 
     51 H51         0.7662   53.1091   30.8335 H         1 UNK         0.0000 
     52 H52         0.7043   55.7263   28.0817 H         1 UNK         0.0000 
     53 H53         1.4996   56.4815   29.4935 H         1 UNK         0.0000 
     54 H54         2.4559   55.8722   28.1368 H         1 UNK         0.0000 
@<TRIPOS>BOND
     1    1    2 1    
     2    1   32 1    
     3    1   33 1    
     4    1   34 1    
     5    2    7 ar   
     6    2    3 ar   
     7    3    4 ar   
     8    3   35 1    
     9    4    5 ar   
    10    4   36 1    
    11    5    6 ar   
    12    5   37 1    
    13    6    7 ar   
    14    6    8 1    
    15    7   38 1    
    16    8    9 am   BACKBONE|DICT|INTERRES
    17    8   39 1    
    18    9   10 2    
    19    9   11 1    
    20   11   16 ar   
    21   11   12 ar   
    22   12   13 ar   
    23   12   40 1    
    24   13   14 ar   
    25   13   41 1    
    26   14   15 ar   
    27   14   42 1    
    28   15   16 ar   
    29   15   43 1    
    30   16   17 1    
    31   17   18 am   BACKBONE|DICT|INTERRES
    32   17   44 1    
    33   18   19 2    
    34   18   20 1    
    35   20   25 ar   
    36   20   21 ar   
    37   21   22 ar   
    38   21   45 1    
    39   22   23 ar   
    40   22   46 1    
    41   23   24 ar   
    42   23   47 1    
    43   24   25 ar   
    44   24   26 1    
    45   25   48 1    
    46   26   27 2    
    47   26   28 2    
    48   26   29 1    
    49   29   30 1    
    50   29   31 1    
    51   30   49 1    
    52   30   50 1    
    53   30   51 1    
    54   31   52 1    
    55   31   53 1    
    56   31   54 1    
@<TRIPOS>SUBSTRUCTURE
     1 UNK         1 GROUP             0       ****    0 ROOT    
