ZINC18597318_4430
                    3D
 Schrodinger Suite 2024-2.
 46 47  0  0  1  0            999 V2000
    0.4126   54.2250   28.7221 C   0  0  0  0  0  0
    0.6788   52.7043   28.7193 C   0  0  1  0  0  0
   -0.1673   52.2578   29.2430 H   0  0  0  0  0  0
    0.6767   52.1392   27.2799 C   0  0  0  0  0  0
    1.2037   52.8025   26.3825 O   0  0  0  0  0  0
    0.0693   50.9442   27.0961 N   0  0  0  0  0  0
   -0.1311   50.3191   25.9186 C   0  0  0  0  0  0
    0.3057   50.6805   24.8214 O   0  0  0  0  0  0
   -0.9278   49.2509   26.0797 N   0  0  0  0  0  0
   -1.5377   48.4171   25.0313 C   0  0  0  0  0  0
   -2.5111   49.2410   24.1560 C   0  0  0  0  0  0
   -2.3402   47.3026   25.7310 C   0  0  0  0  0  0
   -0.4654   47.7502   24.1384 C   0  0  0  0  0  0
    2.1607   52.2175   29.6871 S   0  0  0  0  0  0
    3.4118   53.2317   28.9653 C   0  0  0  0  0  0
    3.6384   53.3178   27.6227 N   0  0  0  0  0  0
    3.0791   52.8704   26.9082 H   0  0  0  0  0  0
    4.6926   54.1578   27.4088 C   0  0  0  0  0  0
    5.0663   54.4947   28.7090 C   0  0  0  0  0  0
    4.2869   53.9447   29.6320 N   0  0  0  0  0  0
    5.2076   54.4980   26.0536 C   0  0  0  0  0  0
    6.3776   55.2457   25.9317 C   0  0  0  0  0  0
    6.9116   55.4939   24.6705 C   0  0  0  0  0  0
    6.3045   54.9698   23.5350 C   0  0  0  0  0  0
    5.1144   54.2594   23.6440 C   0  0  0  0  0  0
    4.5527   54.0520   24.9002 C   0  0  0  0  0  0
    7.0568   55.2971   21.8173 Br  0  0  0  0  0  0
   -0.4417   54.4793   28.0920 H   0  0  0  0  0  0
    0.2078   54.5779   29.7338 H   0  0  0  0  0  0
    1.2647   54.7955   28.3473 H   0  0  0  0  0  0
   -0.3297   50.4898   27.9040 H   0  0  0  0  0  0
   -1.1048   48.8994   27.0282 H   0  0  0  0  0  0
   -3.0003   48.6204   23.4044 H   0  0  0  0  0  0
   -2.0004   50.0429   23.6222 H   0  0  0  0  0  0
   -3.2943   49.7019   24.7572 H   0  0  0  0  0  0
   -1.6958   46.6799   26.3559 H   0  0  0  0  0  0
   -3.1084   47.7142   26.3868 H   0  0  0  0  0  0
   -2.8361   46.6474   25.0163 H   0  0  0  0  0  0
    0.3012   47.2673   24.7444 H   0  0  0  0  0  0
   -0.8987   46.9963   23.4813 H   0  0  0  0  0  0
    0.0466   48.4698   23.5011 H   0  0  0  0  0  0
    5.9005   55.1295   28.9859 H   0  0  0  0  0  0
    6.8739   55.6229   26.8144 H   0  0  0  0  0  0
    7.8057   56.0918   24.5604 H   0  0  0  0  0  0
    4.6216   53.8812   22.7581 H   0  0  0  0  0  0
    3.6300   53.4923   24.9660 H   0  0  0  0  0  0
  1  2  1  0  0  0
  1 28  1  0  0  0
  1 29  1  0  0  0
  1 30  1  0  0  0
  2  3  1  0  0  0
  2  4  1  0  0  0
  2 14  1  0  0  0
  4  5  2  0  0  0
  4  6  1  0  0  0
  6  7  1  0  0  0
  6 31  1  0  0  0
  7  8  2  0  0  0
  7  9  1  0  0  0
  9 10  1  0  0  0
  9 32  1  0  0  0
 10 11  1  0  0  0
 10 12  1  0  0  0
 10 13  1  0  0  0
 11 33  1  0  0  0
 11 34  1  0  0  0
 11 35  1  0  0  0
 12 36  1  0  0  0
 12 37  1  0  0  0
 12 38  1  0  0  0
 13 39  1  0  0  0
 13 40  1  0  0  0
 13 41  1  0  0  0
 14 15  1  0  0  0
 15 20  2  0  0  0
 15 16  1  0  0  0
 16 17  1  0  0  0
 16 18  1  0  0  0
 18 19  2  0  0  0
 18 21  1  0  0  0
 19 20  1  0  0  0
 19 42  1  0  0  0
 21 26  2  0  0  0
 21 22  1  0  0  0
 22 23  2  0  0  0
 22 43  1  0  0  0
 23 24  1  0  0  0
 23 44  1  0  0  0
 24 25  2  0  0  0
 24 27  1  0  0  0
 25 26  1  0  0  0
 25 45  1  0  0  0
 26 46  1  0  0  0
M  END
> <i_i_glide_confnum>
6

> <i_i_glide_lignum>
4431

> <i_i_glide_posenum>
53

> <i_i_glide_rotatable_bonds>
8

> <i_m_Source_File_Index>
5077

> <b_m_subgroup_collapsed>
0

> <r_i_docking_score>
-5.85539

> <r_i_glide_ecoul>
-7.45152

> <r_i_glide_eff_state_penalty>
0

> <r_i_glide_einternal>
1.31494

> <r_i_glide_emodel>
-62.1921

> <r_i_glide_energy>
-45.7801

> <r_i_glide_erotb>
0.767502

> <r_i_glide_esite>
-0.208915

> <r_i_glide_evdw>
-38.3286

> <r_i_glide_gscore>
-5.85539

> <r_i_glide_hbond>
-0.147085

> <r_i_glide_ligand_efficiency>
-0.234216

> <r_i_glide_ligand_efficiency_ln>
-1.3879

> <r_i_glide_ligand_efficiency_sa>
-0.68485

> <r_i_glide_lipo>
-2.32975

> <r_i_glide_metal>
0

> <r_i_glide_rewards>
-0.902979

> <s_i_glide_gridfile>
wee1_glide-grid

> <s_m_Source_File>
wee1_decoys_glide_SP.sdf

> <s_m_Source_Path>
/Users/zhangxujun/Desktop

> <s_m_entry_id>
5352

> <s_m_entry_name>
wee1_decoys_glide_SP.5077

> <s_m_subgroup_title>
wee1_decoys_glide_SP

> <s_m_subgroupid>
wee1_decoys_glide_SP


$$$$
