@<TRIPOS>MOLECULE
ZINC62825495_2635
33   33    1
SMALL
USER_CHARGES


@<TRIPOS>ATOM
      1 C1          6.8768   53.2164   27.8548 C.3       1 UNK         0.0000 
      2 C2          6.2168   54.5576   27.5294 C.3       1 UNK         0.0000 
      3 H3          6.9817   55.3180   27.6809 H         1 UNK         0.0000 
      4 C4          5.8047   54.7161   26.0508 C.3       1 UNK         0.0000 
      5 O5          6.9580   54.7876   25.2240 O.3       1 UNK         0.0000 
      6 C6          6.6339   55.0552   23.8663 C.3       1 UNK         0.0000 
      7 N7          5.1724   54.8938   28.5022 N.am      1 UNK         0.0000 
      8 C8          3.8899   54.4968   28.5682 C.2       1 UNK         0.0000 
      9 O9          3.0963   55.1094   29.2811 O.2       1 UNK         0.0000 
     10 N10         3.5636   53.4105   27.8409 N.am      1 UNK         0.0000 
     11 C11         2.2689   52.8672   27.7669 C.ar      1 UNK         0.0000 
     12 C12         1.6184   52.2821   28.8847 C.ar      1 UNK         0.0000 
     13 C13         0.2953   51.8336   28.7318 C.ar      1 UNK         0.0000 
     14 C14        -0.3540   51.9192   27.5025 C.ar      1 UNK         0.0000 
     15 C15         0.3064   52.4562   26.4047 C.ar      1 UNK         0.0000 
     16 C16         1.6052   52.9383   26.5296 C.ar      1 UNK         0.0000 
     17 Br17        2.4235   53.6968   24.9794 Br        1 UNK         0.0000 
     18 Br18       -2.1432   51.2997   27.3076 Br        1 UNK         0.0000 
     19 C19         2.2913   52.0969   30.2128 C.2       1 UNK         0.0000 
     20 O20         1.5983   52.2337   31.2433 O.co2     1 UNK         0.0000 
     21 O21         3.4923   51.7354   30.2217 O.co2     1 UNK         0.0000 
     22 H22         7.5140   52.8966   27.0345 H         1 UNK         0.0000 
     23 H23         7.5089   53.2977   28.7382 H         1 UNK         0.0000 
     24 H24         6.1398   52.4351   28.0283 H         1 UNK         0.0000 
     25 H25         5.2073   55.6230   25.9316 H         1 UNK         0.0000 
     26 H26         5.1860   53.8746   25.7396 H         1 UNK         0.0000 
     27 H27         7.5041   54.9186   23.2305 H         1 UNK         0.0000 
     28 H28         6.3049   56.0878   23.7525 H         1 UNK         0.0000 
     29 H29         5.8548   54.3899   23.4899 H         1 UNK         0.0000 
     30 H30         5.4508   55.5646   29.2028 H         1 UNK         0.0000 
     31 H31         4.2784   52.9702   27.2828 H         1 UNK         0.0000 
     32 H32        -0.2343   51.3907   29.5657 H         1 UNK         0.0000 
     33 H33        -0.1994   52.5108   25.4519 H         1 UNK         0.0000 
@<TRIPOS>BOND
     1    1    2 1    
     2    1   22 1    
     3    1   23 1    
     4    1   24 1    
     5    2    3 1    
     6    2    4 1    
     7    2    7 1    
     8    4    5 1    
     9    4   25 1    
    10    4   26 1    
    11    5    6 1    
    12    6   27 1    
    13    6   28 1    
    14    6   29 1    
    15    7    8 am   BACKBONE|DICT|INTERRES
    16    7   30 1    
    17    8    9 2    
    18    8   10 am   BACKBONE|DICT|INTERRES
    19   10   11 1    
    20   10   31 1    
    21   11   16 ar   
    22   11   12 ar   
    23   12   13 ar   
    24   12   19 1    
    25   13   14 ar   
    26   13   32 1    
    27   14   15 ar   
    28   14   18 1    
    29   15   16 ar   
    30   15   33 1    
    31   16   17 1    
    32   19   20 2    
    33   19   21 1    
@<TRIPOS>SUBSTRUCTURE
     1 UNK         1 GROUP             0       ****    0 ROOT    
