@<TRIPOS>MOLECULE
ZINC30956125_3171
58   59    1
SMALL
USER_CHARGES


@<TRIPOS>ATOM
      1 C1          5.3594   53.8212   20.6759 C.3       1 UNK         0.0000 
      2 C2          4.1435   53.2459   21.3757 C.ar      1 UNK         0.0000 
      3 C3          3.2991   54.0984   22.0817 C.ar      1 UNK         0.0000 
      4 C4          2.1395   53.6044   22.6673 C.ar      1 UNK         0.0000 
      5 C5          1.8405   52.2412   22.6049 C.ar      1 UNK         0.0000 
      6 C6          2.7023   51.3823   21.9016 C.ar      1 UNK         0.0000 
      7 C7          3.8445   51.8866   21.2818 C.ar      1 UNK         0.0000 
      8 C8          0.5694   51.7365   23.2408 C.2       1 UNK         0.0000 
      9 O9         -0.4362   52.4477   23.2874 O.2       1 UNK         0.0000 
     10 N10         0.6167   50.4807   23.7233 N.am      1 UNK         0.0000 
     11 C11        -0.5199   49.6784   24.2115 C.3       1 UNK         0.0000 
     12 H12        -0.0540   48.7881   24.6375 H         1 UNK         0.0000 
     13 C13        -1.4706   49.1822   23.0522 C.3       1 UNK         0.0000 
     14 C14        -0.7888   49.0394   21.6711 C.3       1 UNK         0.0000 
     15 C15        -2.1664   47.8481   23.4000 C.3       1 UNK         0.0000 
     16 C16        -1.3310   50.2950   25.3979 C.2       1 UNK         0.0000 
     17 O17        -2.5660   50.2333   25.3977 O.2       1 UNK         0.0000 
     18 N18        -0.6103   50.8719   26.3826 N.am      1 UNK         0.0000 
     19 N19        -1.1844   51.2975   27.5314 N.2       1 UNK         0.0000 
     20 C20        -0.4256   51.7980   28.4281 C.2       1 UNK         0.0000 
     21 C21         0.9482   52.3250   28.3274 C.ar      1 UNK         0.0000 
     22 C22         1.7845   52.2848   29.4504 C.ar      1 UNK         0.0000 
     23 C23         3.0488   52.9007   29.4429 C.ar      1 UNK         0.0000 
     24 C24         3.4764   53.5703   28.2906 C.ar      1 UNK         0.0000 
     25 C25         2.6597   53.5871   27.1572 C.ar      1 UNK         0.0000 
     26 C26         1.4150   52.9675   27.1764 C.ar      1 UNK         0.0000 
     27 Br27        3.1875   54.4967   25.5781 Br        1 UNK         0.0000 
     28 O28         4.6592   54.2773   28.3112 O.3       1 UNK         0.0000 
     29 C29         5.8300   53.5766   27.8988 C.3       1 UNK         0.0000 
     30 C30         6.3530   54.0969   26.6240 C.1       1 UNK         0.0000 
     31 C31         6.7044   54.5179   25.5331 C.1       1 UNK         0.0000 
     32 O32         3.9043   52.9258   30.5237 O.3       1 UNK         0.0000 
     33 C33         3.5757   52.2240   31.7116 C.3       1 UNK         0.0000 
     34 H34         5.8122   53.1051   19.9871 H         1 UNK         0.0000 
     35 H35         5.0708   54.6964   20.0918 H         1 UNK         0.0000 
     36 H36         6.0957   54.1471   21.4095 H         1 UNK         0.0000 
     37 H37         3.5121   55.1553   22.1420 H         1 UNK         0.0000 
     38 H38         1.4794   54.2933   23.1762 H         1 UNK         0.0000 
     39 H39         2.4865   50.3281   21.8026 H         1 UNK         0.0000 
     40 H40         4.4834   51.2240   20.7153 H         1 UNK         0.0000 
     41 H41         1.4993   49.9929   23.6849 H         1 UNK         0.0000 
     42 H42        -2.2553   49.9262   22.8990 H         1 UNK         0.0000 
     43 H43         0.1521   48.4942   21.7412 H         1 UNK         0.0000 
     44 H44        -1.4283   48.5198   20.9568 H         1 UNK         0.0000 
     45 H45        -0.5656   50.0142   21.2377 H         1 UNK         0.0000 
     46 H46        -1.4355   47.0513   23.5365 H         1 UNK         0.0000 
     47 H47        -2.7517   47.9153   24.3168 H         1 UNK         0.0000 
     48 H48        -2.8493   47.5419   22.6083 H         1 UNK         0.0000 
     49 H49         0.3961   50.9229   26.3452 H         1 UNK         0.0000 
     50 H50        -0.8337   51.8873   29.4317 H         1 UNK         0.0000 
     51 H51         1.4234   51.7944   30.3417 H         1 UNK         0.0000 
     52 H52         0.7909   53.0547   26.2976 H         1 UNK         0.0000 
     53 H53         5.6750   52.5009   27.7914 H         1 UNK         0.0000 
     54 H54         6.6023   53.7167   28.6541 H         1 UNK         0.0000 
     55 H55         7.0040   54.8733   24.5715 H         1 UNK         0.0000 
     56 H56         4.2975   52.4956   32.4811 H         1 UNK         0.0000 
     57 H57         2.5872   52.4932   32.0859 H         1 UNK         0.0000 
     58 H58         3.6404   51.1503   31.5751 H         1 UNK         0.0000 
@<TRIPOS>BOND
     1    1    2 1    
     2    1   34 1    
     3    1   35 1    
     4    1   36 1    
     5    2    7 ar   
     6    2    3 ar   
     7    3    4 ar   
     8    3   37 1    
     9    4    5 ar   
    10    4   38 1    
    11    5    6 ar   
    12    5    8 1    
    13    6    7 ar   
    14    6   39 1    
    15    7   40 1    
    16    8    9 2    
    17    8   10 am   BACKBONE|DICT|INTERRES
    18   10   11 1    
    19   10   41 1    
    20   11   12 1    
    21   11   13 1    
    22   11   16 1    
    23   13   14 1    
    24   13   15 1    
    25   13   42 1    
    26   14   43 1    
    27   14   44 1    
    28   14   45 1    
    29   15   46 1    
    30   15   47 1    
    31   15   48 1    
    32   16   17 2    
    33   16   18 am   BACKBONE|DICT|INTERRES
    34   18   19 1    
    35   18   49 1    
    36   19   20 2    
    37   20   21 1    
    38   20   50 1    
    39   21   26 ar   
    40   21   22 ar   
    41   22   23 ar   
    42   22   51 1    
    43   23   24 ar   
    44   23   32 1    
    45   24   25 ar   
    46   24   28 1    
    47   25   26 ar   
    48   25   27 1    
    49   26   52 1    
    50   28   29 1    
    51   29   30 1    
    52   29   53 1    
    53   29   54 1    
    54   30   31 3    
    55   31   55 1    
    56   32   33 1    
    57   33   56 1    
    58   33   57 1    
    59   33   58 1    
@<TRIPOS>SUBSTRUCTURE
     1 UNK         1 GROUP             0       ****    0 ROOT    
