@<TRIPOS>MOLECULE
ZINC50694116_3597
33   34    1
SMALL
USER_CHARGES


@<TRIPOS>ATOM
      1 C1         -3.7457   50.8933   26.6620 C.3       1 UNK         0.0000 
      2 C2         -2.3807   51.4072   26.2404 C.ar      1 UNK         0.0000 
      3 C3         -2.2061   52.0050   24.9900 C.ar      1 UNK         0.0000 
      4 C4         -0.9514   52.4776   24.6052 C.ar      1 UNK         0.0000 
      5 C5          0.1463   52.3668   25.4765 C.ar      1 UNK         0.0000 
      6 C6         -0.0365   51.7701   26.7356 C.ar      1 UNK         0.0000 
      7 C7         -1.2953   51.2974   27.1102 C.ar      1 UNK         0.0000 
      8 Br8         1.4045   51.5895   27.9819 Br        1 UNK         0.0000 
      9 N9          1.4383   52.8342   25.1773 N.am      1 UNK         0.0000 
     10 C10         1.8731   53.6432   24.1861 C.2       1 UNK         0.0000 
     11 O11         1.1691   54.0959   23.2828 O.2       1 UNK         0.0000 
     12 C12         3.3502   53.9657   24.2579 C.ar      1 UNK         0.0000 
     13 C13         3.9497   54.1318   25.5175 C.ar      1 UNK         0.0000 
     14 C14         5.3157   54.3951   25.6555 C.ar      1 UNK         0.0000 
     15 C15         6.0995   54.4999   24.4996 C.ar      1 UNK         0.0000 
     16 C16         5.5237   54.3505   23.2406 C.ar      1 UNK         0.0000 
     17 C17         4.1577   54.0968   23.1078 C.ar      1 UNK         0.0000 
     18 N18         3.6547   53.9627   21.8135 N.pl3     1 UNK         0.0000 
     19 N19         5.9117   54.5418   27.0031 N.pl3     1 UNK         0.0000 
     20 O20         5.1928   54.4055   27.9892 O.co2     1 UNK         0.0000 
     21 O21         7.1043   54.8040   27.0749 O.co2     1 UNK         0.0000 
     22 H22        -4.5452   51.4489   26.1718 H         1 UNK         0.0000 
     23 H23        -3.8873   51.0160   27.7380 H         1 UNK         0.0000 
     24 H24        -3.8407   49.8326   26.4197 H         1 UNK         0.0000 
     25 H25        -3.0412   52.0920   24.3090 H         1 UNK         0.0000 
     26 H26        -0.8591   52.9168   23.6252 H         1 UNK         0.0000 
     27 H27        -1.4234   50.8277   28.0772 H         1 UNK         0.0000 
     28 H28         2.1395   52.5302   25.8365 H         1 UNK         0.0000 
     29 H29         3.3477   54.0558   26.4150 H         1 UNK         0.0000 
     30 H30         7.1608   54.6958   24.5651 H         1 UNK         0.0000 
     31 H31         6.1509   54.4412   22.3641 H         1 UNK         0.0000 
     32 H32         4.2571   54.1160   21.0186 H         1 UNK         0.0000 
     33 H33         2.6469   53.9701   21.6928 H         1 UNK         0.0000 
@<TRIPOS>BOND
     1    1    2 1    
     2    1   22 1    
     3    1   23 1    
     4    1   24 1    
     5    2    7 ar   
     6    2    3 ar   
     7    3    4 ar   
     8    3   25 1    
     9    4    5 ar   
    10    4   26 1    
    11    5    6 ar   
    12    5    9 1    
    13    6    7 ar   
    14    6    8 1    
    15    7   27 1    
    16    9   10 am   BACKBONE|DICT|INTERRES
    17    9   28 1    
    18   10   11 2    
    19   10   12 1    
    20   12   17 ar   
    21   12   13 ar   
    22   13   14 ar   
    23   13   29 1    
    24   14   15 ar   
    25   14   19 1    
    26   15   16 ar   
    27   15   30 1    
    28   16   17 ar   
    29   16   31 1    
    30   17   18 1    
    31   18   32 1    
    32   18   33 1    
    33   19   20 2    
    34   19   21 1    
@<TRIPOS>SUBSTRUCTURE
     1 UNK         1 GROUP             0       ****    0 ROOT    
