ZINC12250850_3530
                    3D
 Schrodinger Suite 2024-2.
 59 62  0  0  1  0            999 V2000
    1.4915   53.3130   23.2641 C   0  0  0  0  0  0
    2.1653   53.4080   24.6318 C   0  0  0  0  0  0
    3.3570   54.1002   24.5653 N   0  0  0  0  0  0
    4.1348   54.3874   25.6591 C   0  0  0  0  0  0
    3.7728   53.9794   26.8913 C   0  0  0  0  0  0
    2.4962   53.1522   27.1588 C   0  0  2  0  0  0
    2.9081   52.1760   27.4195 H   0  0  0  0  0  0
    1.6831   52.9563   25.8324 C   0  0  0  0  0  0
    0.4653   52.1619   25.9193 C   0  0  0  0  0  0
   -0.4682   52.4966   26.6458 O   0  0  0  0  0  0
    0.4885   51.0412   25.1639 N   0  0  0  0  0  0
   -0.4891   50.0400   25.0071 C   0  0  0  0  0  0
   -0.0904   48.9057   24.2952 C   0  0  0  0  0  0
   -0.9859   47.8620   24.0794 C   0  0  0  0  0  0
   -2.2839   47.9502   24.5737 C   0  0  0  0  0  0
   -2.6948   49.0755   25.2821 C   0  0  0  0  0  0
   -1.8023   50.1219   25.4992 C   0  0  0  0  0  0
    1.7299   53.5688   28.4368 C   0  0  0  0  0  0
    1.7276   54.9003   28.8838 C   0  0  0  0  0  0
    1.1033   55.2502   30.0817 C   0  0  0  0  0  0
    0.4549   54.2761   30.8416 C   0  0  0  0  0  0
    0.4541   52.9503   30.4166 C   0  0  0  0  0  0
    1.0987   52.5974   29.2313 C   0  0  0  0  0  0
    1.1372   51.2969   28.8711 F   0  0  0  0  0  0
    4.6337   54.2561   27.9929 C   0  0  0  0  0  0
    5.3286   54.4969   28.8816 N   0  0  0  0  0  0
    5.6178   55.3119   25.2824 S   0  0  0  0  0  0
    6.4761   54.2517   24.0852 C   0  0  0  0  0  0
    6.3050   54.7083   22.6402 C   0  0  0  0  0  0
    5.2312   54.4970   22.0745 O   0  0  0  0  0  0
    7.3796   55.2960   22.0708 N   0  0  0  0  0  0
    7.4661   55.8244   20.7723 C   0  0  0  0  0  0
    8.6747   55.6967   20.0875 C   0  0  0  0  0  0
    8.8219   56.2392   18.8140 C   0  0  0  0  0  0
    7.7623   56.9312   18.2327 C   0  0  0  0  0  0
    6.5589   57.0849   18.9157 C   0  0  0  0  0  0
    6.4152   56.5331   20.1853 C   0  0  0  0  0  0
    2.0165   52.5962   22.6325 H   0  0  0  0  0  0
    0.4468   53.0104   23.3236 H   0  0  0  0  0  0
    1.5043   54.2795   22.7569 H   0  0  0  0  0  0
    1.3442   50.8733   24.6590 H   0  0  0  0  0  0
    0.9173   48.8223   23.9121 H   0  0  0  0  0  0
   -0.6769   46.9858   23.5323 H   0  0  0  0  0  0
   -2.9779   47.1398   24.4107 H   0  0  0  0  0  0
   -3.6995   49.1356   25.6718 H   0  0  0  0  0  0
   -2.1583   50.9745   26.0528 H   0  0  0  0  0  0
    2.2136   55.6740   28.3069 H   0  0  0  0  0  0
    1.1133   56.2784   30.4151 H   0  0  0  0  0  0
   -0.0354   54.5367   31.7680 H   0  0  0  0  0  0
   -0.0346   52.1925   31.0145 H   0  0  0  0  0  0
    6.0923   53.2405   24.1724 H   0  0  0  0  0  0
    7.5298   54.2136   24.3551 H   0  0  0  0  0  0
    8.2413   55.2991   22.6068 H   0  0  0  0  0  0
    9.5037   55.1730   20.5328 H   0  0  0  0  0  0
    9.7594   56.1302   18.2876 H   0  0  0  0  0  0
    7.8763   57.3599   17.2476 H   0  0  0  0  0  0
    5.7464   57.6383   18.4671 H   0  0  0  0  0  0
    5.5045   56.6837   20.7316 H   0  0  0  0  0  0
    3.7015   54.3753   23.6535 H   0  0  0  0  0  0
  1  2  1  0  0  0
  1 38  1  0  0  0
  1 39  1  0  0  0
  1 40  1  0  0  0
  2  8  2  0  0  0
  2  3  1  0  0  0
  3  4  1  0  0  0
  3 59  1  0  0  0
  4  5  2  0  0  0
  4 27  1  0  0  0
  5  6  1  0  0  0
  5 25  1  0  0  0
  6  7  1  0  0  0
  6  8  1  0  0  0
  6 18  1  0  0  0
  8  9  1  0  0  0
  9 10  2  0  0  0
  9 11  1  0  0  0
 11 12  1  0  0  0
 11 41  1  0  0  0
 12 17  2  0  0  0
 12 13  1  0  0  0
 13 14  2  0  0  0
 13 42  1  0  0  0
 14 15  1  0  0  0
 14 43  1  0  0  0
 15 16  2  0  0  0
 15 44  1  0  0  0
 16 17  1  0  0  0
 16 45  1  0  0  0
 17 46  1  0  0  0
 18 23  2  0  0  0
 18 19  1  0  0  0
 19 20  2  0  0  0
 19 47  1  0  0  0
 20 21  1  0  0  0
 20 48  1  0  0  0
 21 22  2  0  0  0
 21 49  1  0  0  0
 22 23  1  0  0  0
 22 50  1  0  0  0
 23 24  1  0  0  0
 25 26  3  0  0  0
 27 28  1  0  0  0
 28 29  1  0  0  0
 28 51  1  0  0  0
 28 52  1  0  0  0
 29 30  2  0  0  0
 29 31  1  0  0  0
 31 32  1  0  0  0
 31 53  1  0  0  0
 32 37  2  0  0  0
 32 33  1  0  0  0
 33 34  2  0  0  0
 33 54  1  0  0  0
 34 35  1  0  0  0
 34 55  1  0  0  0
 35 36  2  0  0  0
 35 56  1  0  0  0
 36 37  1  0  0  0
 36 57  1  0  0  0
 37 58  1  0  0  0
M  END
> <i_i_glide_confnum>
116

> <i_i_glide_lignum>
3531

> <i_i_glide_posenum>
308

> <i_i_glide_rotatable_bonds>
10

> <i_m_Source_File_Index>
4782

> <b_m_subgroup_collapsed>
0

> <r_i_docking_score>
-7.22741

> <r_i_glide_ecoul>
-4.28809

> <r_i_glide_eff_state_penalty>
0

> <r_i_glide_einternal>
12.9591

> <r_i_glide_emodel>
-75.215

> <r_i_glide_energy>
-58.3029

> <r_i_glide_erotb>
0.656767

> <r_i_glide_esite>
0

> <r_i_glide_evdw>
-54.0148

> <r_i_glide_gscore>
-7.22741

> <r_i_glide_hbond>
-0.32

> <r_i_glide_ligand_efficiency>
-0.200761

> <r_i_glide_ligand_efficiency_ln>
-1.57683

> <r_i_glide_ligand_efficiency_sa>
-0.662899

> <r_i_glide_lipo>
-3.45602

> <r_i_glide_metal>
0

> <r_i_glide_rewards>
-0.764206

> <s_i_glide_gridfile>
wee1_glide-grid

> <s_m_Source_File>
wee1_decoys_glide_SP.sdf

> <s_m_Source_Path>
/Users/zhangxujun/Desktop

> <s_m_entry_id>
5057

> <s_m_entry_name>
wee1_decoys_glide_SP.4782

> <s_m_subgroup_title>
wee1_decoys_glide_SP

> <s_m_subgroupid>
wee1_decoys_glide_SP


$$$$
