@<TRIPOS>MOLECULE
ZINC00687072_3556
40   42    1
SMALL
USER_CHARGES


@<TRIPOS>ATOM
      1 C1          3.6641   50.8968   20.7929 C.3       1 UNK         0.0000 
      2 C2          3.0182   52.2510   20.4746 C.3       1 UNK         0.0000 
      3 H3          2.5817   52.1622   19.4779 H         1 UNK         0.0000 
      4 C4          4.0152   53.4281   20.4004 C.3       1 UNK         0.0000 
      5 C5          4.7545   53.6555   21.7372 C.3       1 UNK         0.0000 
      6 C6          3.7665   53.6207   22.9164 C.2       1 UNK         0.0000 
      7 C7          2.4550   53.1380   22.7333 C.2       1 UNK         0.0000 
      8 S8          1.4914   53.2820   24.1424 S.3       1 UNK         0.0000 
      9 C9          2.8330   53.8888   25.0349 C.2       1 UNK         0.0000 
     10 C10         4.0104   54.0437   24.2641 C.2       1 UNK         0.0000 
     11 C11         5.2559   54.6236   24.7543 C.2       1 UNK         0.0000 
     12 O12         5.2927   55.4238   25.6816 O.2       1 UNK         0.0000 
     13 N13         6.3788   54.2484   24.1398 N.am      1 UNK         0.0000 
     14 N14         2.4909   54.0967   26.3560 N.am      1 UNK         0.0000 
     15 C15         3.1796   53.7410   27.4491 C.2       1 UNK         0.0000 
     16 O16         4.3259   53.2966   27.4808 O.2       1 UNK         0.0000 
     17 C17         2.3535   53.8546   28.6987 C.ar      1 UNK         0.0000 
     18 C18         1.9199   55.1087   29.1598 C.ar      1 UNK         0.0000 
     19 C19         1.1045   55.2008   30.2911 C.ar      1 UNK         0.0000 
     20 C20         0.7061   54.0393   30.9553 C.ar      1 UNK         0.0000 
     21 C21         1.0911   52.7982   30.4772 C.ar      1 UNK         0.0000 
     22 C22         1.9034   52.6943   29.3543 C.ar      1 UNK         0.0000 
     23 Cl23        2.3044   51.1054   28.8107 Cl        1 UNK         0.0000 
     24 Cl24       -0.0956   54.0967   32.4714 Cl        1 UNK         0.0000 
     25 C25         1.8675   52.5780   21.4445 C.3       1 UNK         0.0000 
     26 H26         4.1044   50.8967   21.7883 H         1 UNK         0.0000 
     27 H27         2.9402   50.0824   20.7448 H         1 UNK         0.0000 
     28 H28         4.4548   50.6733   20.0817 H         1 UNK         0.0000 
     29 H29         3.5044   54.3448   20.1054 H         1 UNK         0.0000 
     30 H30         4.7626   53.2261   19.6312 H         1 UNK         0.0000 
     31 H31         5.5048   52.8760   21.8634 H         1 UNK         0.0000 
     32 H32         5.2859   54.6067   21.6884 H         1 UNK         0.0000 
     33 H33         7.2617   54.6436   24.4253 H         1 UNK         0.0000 
     34 H34         6.3496   53.5624   23.4035 H         1 UNK         0.0000 
     35 H35         1.5100   54.2658   26.5159 H         1 UNK         0.0000 
     36 H36         2.2299   56.0172   28.6620 H         1 UNK         0.0000 
     37 H37         0.8221   56.1708   30.6748 H         1 UNK         0.0000 
     38 H38         0.7742   51.9184   31.0118 H         1 UNK         0.0000 
     39 H39         1.1893   53.2967   20.9869 H         1 UNK         0.0000 
     40 H40         1.2715   51.6862   21.6426 H         1 UNK         0.0000 
@<TRIPOS>BOND
     1    1    2 1    
     2    1   26 1    
     3    1   27 1    
     4    1   28 1    
     5    2    3 1    
     6    2   25 1    
     7    2    4 1    
     8    4    5 1    
     9    4   29 1    
    10    4   30 1    
    11    5    6 1    
    12    5   31 1    
    13    5   32 1    
    14    6   10 1    
    15    6    7 2    
    16    7    8 1    
    17    7   25 1    
    18    8    9 1    
    19    9   10 2    
    20    9   14 am   BACKBONE|DICT|INTERRES
    21   10   11 1    
    22   11   12 2    
    23   11   13 am   BACKBONE|DICT|INTERRES
    24   13   33 1    
    25   13   34 1    
    26   14   15 am   BACKBONE|DICT|INTERRES
    27   14   35 1    
    28   15   16 2    
    29   15   17 1    
    30   17   22 ar   
    31   17   18 ar   
    32   18   19 ar   
    33   18   36 1    
    34   19   20 ar   
    35   19   37 1    
    36   20   21 ar   
    37   20   24 1    
    38   21   22 ar   
    39   21   38 1    
    40   22   23 1    
    41   25   39 1    
    42   25   40 1    
@<TRIPOS>SUBSTRUCTURE
     1 UNK         1 GROUP             0       ****    0 ROOT    
