@<TRIPOS>MOLECULE
ZINC09459701_4419
41   43    1
SMALL
USER_CHARGES


@<TRIPOS>ATOM
      1 C1          2.9977   53.5817   23.5168 C.3       1 UNK         0.0000 
      2 C2          4.3353   54.0969   22.9904 C.ar      1 UNK         0.0000 
      3 C3          4.4381   54.3753   21.6234 C.ar      1 UNK         0.0000 
      4 C4          5.6142   54.8967   21.0892 C.ar      1 UNK         0.0000 
      5 C5          6.7046   55.1486   21.9167 C.ar      1 UNK         0.0000 
      6 C6          6.6276   54.8517   23.2736 C.ar      1 UNK         0.0000 
      7 C7          5.4478   54.3251   23.8272 C.ar      1 UNK         0.0000 
      8 N8          5.3852   53.9412   25.1793 N.am      1 UNK         0.0000 
      9 C9          6.0524   54.4647   26.2268 C.2       1 UNK         0.0000 
     10 O10         6.7046   55.5067   26.1795 O.2       1 UNK         0.0000 
     11 C11         5.9948   53.6617   27.5299 C.3       1 UNK         0.0000 
     12 S12         5.1047   54.4961   28.8816 S.3       1 UNK         0.0000 
     13 C13         3.7057   53.4343   28.9924 C.ar      1 UNK         0.0000 
     14 N14         3.4142   52.7289   30.0553 N.2       1 UNK         0.0000 
     15 N15         2.2008   52.0967   29.8103 N.2       1 UNK         0.0000 
     16 C16         1.7746   52.4820   28.6289 C.ar      1 UNK         0.0000 
     17 N17         2.6773   53.3722   28.0804 N.pl3     1 UNK         0.0000 
     18 N18         2.5663   54.0964   26.9109 N.3       1 UNK         0.0000 
     19 C19         0.4699   52.0470   28.0241 C.ar      1 UNK         0.0000 
     20 C20         0.3047   51.9651   26.6348 C.ar      1 UNK         0.0000 
     21 C21        -0.9162   51.5799   26.0893 C.ar      1 UNK         0.0000 
     22 C22        -1.9748   51.2528   26.9303 C.ar      1 UNK         0.0000 
     23 C23        -1.8170   51.2968   28.3119 C.ar      1 UNK         0.0000 
     24 C24        -0.5988   51.6969   28.8588 C.ar      1 UNK         0.0000 
     25 F25        -3.1631   50.8881   26.3992 F         1 UNK         0.0000 
     26 Br26        5.7261   55.2859   19.2313 Br        1 UNK         0.0000 
     27 H27         3.1125   52.8304   24.2950 H         1 UNK         0.0000 
     28 H28         2.4137   54.4057   23.9285 H         1 UNK         0.0000 
     29 H29         2.4152   53.1092   22.7235 H         1 UNK         0.0000 
     30 H30         3.5965   54.2070   20.9653 H         1 UNK         0.0000 
     31 H31         7.6193   55.5475   21.5043 H         1 UNK         0.0000 
     32 H32         7.5044   55.0198   23.8797 H         1 UNK         0.0000 
     33 H33         4.8566   53.0986   25.3465 H         1 UNK         0.0000 
     34 H34         5.5981   52.6584   27.3682 H         1 UNK         0.0000 
     35 H35         7.0228   53.5216   27.8632 H         1 UNK         0.0000 
     36 H36         2.4916   55.0876   27.0944 H         1 UNK         0.0000 
     37 H37         3.2864   53.8722   26.2432 H         1 UNK         0.0000 
     38 H38         1.1187   52.1924   25.9655 H         1 UNK         0.0000 
     39 H39        -1.0414   51.5207   25.0193 H         1 UNK         0.0000 
     40 H40        -2.6315   51.0063   28.9585 H         1 UNK         0.0000 
     41 H41        -0.4898   51.7262   29.9341 H         1 UNK         0.0000 
@<TRIPOS>BOND
     1    1    2 1    
     2    1   27 1    
     3    1   28 1    
     4    1   29 1    
     5    2    7 ar   
     6    2    3 ar   
     7    3    4 ar   
     8    3   30 1    
     9    4    5 ar   
    10    4   26 1    
    11    5    6 ar   
    12    5   31 1    
    13    6    7 ar   
    14    6   32 1    
    15    7    8 1    
    16    8    9 am   BACKBONE|DICT|INTERRES
    17    8   33 1    
    18    9   10 2    
    19    9   11 1    
    20   11   12 1    
    21   11   34 1    
    22   11   35 1    
    23   12   13 1    
    24   13   17 ar   
    25   13   14 ar   
    26   14   15 ar   
    27   15   16 ar   
    28   16   17 ar   
    29   16   19 1    
    30   17   18 1    
    31   18   36 1    
    32   18   37 1    
    33   19   24 ar   
    34   19   20 ar   
    35   20   21 ar   
    36   20   38 1    
    37   21   22 ar   
    38   21   39 1    
    39   22   23 ar   
    40   22   25 1    
    41   23   24 ar   
    42   23   40 1    
    43   24   41 1    
@<TRIPOS>SUBSTRUCTURE
     1 UNK         1 GROUP             0       ****    0 ROOT    
