@<TRIPOS>MOLECULE
ZINC20617254_5680
66   69    1
SMALL
USER_CHARGES


@<TRIPOS>ATOM
      1 C1         -2.2931   50.7161   27.0367 C.3       1 UNK         0.0000 
      2 C2         -1.1958   51.5315   27.6980 C.ar      1 UNK         0.0000 
      3 C3         -0.1472   52.0951   26.9694 C.ar      1 UNK         0.0000 
      4 C4          0.8390   52.8203   27.6466 C.ar      1 UNK         0.0000 
      5 C5          1.8728   53.3647   26.7529 C.2       1 UNK         0.0000 
      6 C6          1.8703   53.2547   25.3928 C.2       1 UNK         0.0000 
      7 C7          0.7574   52.5871   24.8259 C.2       1 UNK         0.0000 
      8 N8          0.5121   52.5750   23.5113 N.pl3     1 UNK         0.0000 
      9 C9         -0.5290   52.0034   22.7123 C.ar      1 UNK         0.0000 
     10 C10        -1.6941   51.4040   23.2111 C.ar      1 UNK         0.0000 
     11 C11        -2.6603   50.9131   22.3346 C.ar      1 UNK         0.0000 
     12 C12        -2.4798   51.0285   20.9566 C.ar      1 UNK         0.0000 
     13 C13        -1.3300   51.6225   20.4374 C.ar      1 UNK         0.0000 
     14 C14        -0.3538   52.0966   21.3276 C.ar      1 UNK         0.0000 
     15 O15        -1.2454   51.7205   19.0627 O.3       1 UNK         0.0000 
     16 C16        -0.0622   52.2532   18.4706 C.3       1 UNK         0.0000 
     17 O17        -0.1046   51.9704   25.5850 O.3       1 UNK         0.0000 
     18 C18         2.9542   53.9052   24.6571 C.2       1 UNK         0.0000 
     19 O19         3.5044   54.8968   25.1311 O.2       1 UNK         0.0000 
     20 N20         3.3339   53.3658   23.4709 N.am      1 UNK         0.0000 
     21 C21         4.3256   53.8852   22.6116 C.ar      1 UNK         0.0000 
     22 C22         4.0104   53.9640   21.2554 C.ar      1 UNK         0.0000 
     23 C23         4.9262   54.4970   20.3523 C.ar      1 UNK         0.0000 
     24 C24         6.1671   54.9661   20.7791 C.ar      1 UNK         0.0000 
     25 C25         6.4953   54.8647   22.1395 C.ar      1 UNK         0.0000 
     26 C26         5.5989   54.2930   23.0604 C.ar      1 UNK         0.0000 
     27 O27         5.8995   54.0964   24.3941 O.3       1 UNK         0.0000 
     28 C28         7.1565   54.4719   24.9047 C.3       1 UNK         0.0000 
     29 O29         7.0005   55.4884   19.8100 O.3       1 UNK         0.0000 
     30 C30         8.3533   55.7896   20.1329 C.3       1 UNK         0.0000 
     31 C31         0.7366   53.0027   29.0451 C.ar      1 UNK         0.0000 
     32 C32        -0.3428   52.3922   29.6916 C.ar      1 UNK         0.0000 
     33 N33        -1.2959   51.6816   29.0433 N.ar      1 UNK         0.0000 
     34 C34         1.6928   53.8395   29.9030 C.3       1 UNK         0.0000 
     35 O35         3.0512   53.7614   29.4866 O.3       1 UNK         0.0000 
     36 C36         3.7905   52.6563   29.6808 C.2       1 UNK         0.0000 
     37 O37         3.5049   51.6967   30.3971 O.2       1 UNK         0.0000 
     38 C38         5.0693   52.6892   28.8699 C.3       1 UNK         0.0000 
     39 H39        -2.9507   51.3583   26.4519 H         1 UNK         0.0000 
     40 H40        -1.8546   49.9629   26.3803 H         1 UNK         0.0000 
     41 H41        -2.9011   50.1811   27.7695 H         1 UNK         0.0000 
     42 H42         2.6840   53.9150   27.2035 H         1 UNK         0.0000 
     43 H43        -1.8824   51.3128   24.2670 H         1 UNK         0.0000 
     44 H44        -3.5549   50.4484   22.7240 H         1 UNK         0.0000 
     45 H45        -3.2364   50.6499   20.2844 H         1 UNK         0.0000 
     46 H46         0.5416   52.5645   20.9423 H         1 UNK         0.0000 
     47 H47        -0.1602   52.2213   17.3845 H         1 UNK         0.0000 
     48 H48         0.1022   53.2940   18.7520 H         1 UNK         0.0000 
     49 H49         0.8183   51.6668   18.7348 H         1 UNK         0.0000 
     50 H50         2.8940   52.5138   23.1615 H         1 UNK         0.0000 
     51 H51         3.0491   53.6359   20.8882 H         1 UNK         0.0000 
     52 H52         4.6661   54.5594   19.3055 H         1 UNK         0.0000 
     53 H53         7.4643   55.1953   22.4774 H         1 UNK         0.0000 
     54 H54         7.1607   54.3189   25.9843 H         1 UNK         0.0000 
     55 H55         7.9042   53.8181   24.4668 H         1 UNK         0.0000 
     56 H56         7.4133   55.5148   24.7101 H         1 UNK         0.0000 
     57 H57         8.8442   56.2365   19.2685 H         1 UNK         0.0000 
     58 H58         8.4311   56.4963   20.9569 H         1 UNK         0.0000 
     59 H59         8.9137   54.8967   20.3992 H         1 UNK         0.0000 
     60 H60        -0.4835   52.4716   30.7632 H         1 UNK         0.0000 
     61 H61         1.6108   53.5397   30.9487 H         1 UNK         0.0000 
     62 H62         1.3715   54.8809   29.8478 H         1 UNK         0.0000 
     63 H63         4.8593   52.9529   27.8331 H         1 UNK         0.0000 
     64 H64         5.5046   51.6970   28.8819 H         1 UNK         0.0000 
     65 H65         5.7769   53.4094   29.2764 H         1 UNK         0.0000 
     66 H66         1.1819   53.0857   22.9452 H         1 UNK         0.0000 
@<TRIPOS>BOND
     1    1    2 1    
     2    1   39 1    
     3    1   40 1    
     4    1   41 1    
     5    2   33 ar   
     6    2    3 ar   
     7    3   17 1    
     8    3    4 ar   
     9    4    5 1    
    10    4   31 ar   
    11    5    6 2    
    12    5   42 1    
    13    6    7 1    
    14    6   18 1    
    15    7    8 2    
    16    7   17 1    
    17    8    9 1    
    18    8   66 1    
    19    9   14 ar   
    20    9   10 ar   
    21   10   11 ar   
    22   10   43 1    
    23   11   12 ar   
    24   11   44 1    
    25   12   13 ar   
    26   12   45 1    
    27   13   14 ar   
    28   13   15 1    
    29   14   46 1    
    30   15   16 1    
    31   16   47 1    
    32   16   48 1    
    33   16   49 1    
    34   18   19 2    
    35   18   20 am   BACKBONE|DICT|INTERRES
    36   20   21 1    
    37   20   50 1    
    38   21   26 ar   
    39   21   22 ar   
    40   22   23 ar   
    41   22   51 1    
    42   23   24 ar   
    43   23   52 1    
    44   24   25 ar   
    45   24   29 1    
    46   25   26 ar   
    47   25   53 1    
    48   26   27 1    
    49   27   28 1    
    50   28   54 1    
    51   28   55 1    
    52   28   56 1    
    53   29   30 1    
    54   30   57 1    
    55   30   58 1    
    56   30   59 1    
    57   31   32 ar   
    58   31   34 1    
    59   32   33 ar   
    60   32   60 1    
    61   34   35 1    
    62   34   61 1    
    63   34   62 1    
    64   35   36 1    
    65   36   37 2    
    66   36   38 1    
    67   38   63 1    
    68   38   64 1    
    69   38   65 1    
@<TRIPOS>SUBSTRUCTURE
     1 UNK         1 GROUP             0       ****    0 ROOT    
