ZINC51634148_1803
                    3D
 Schrodinger Suite 2024-2.
 38 40  0  0  1  0            999 V2000
    6.2032   54.6376   26.4201 C   0  0  0  0  0  0
    4.9962   54.4967   27.0937 C   0  0  0  0  0  0
    3.8308   54.2345   26.3788 C   0  0  0  0  0  0
    3.8456   54.0967   24.9859 C   0  0  0  0  0  0
    5.0843   54.2061   24.3009 C   0  0  0  0  0  0
    6.2422   54.4967   25.0349 C   0  0  0  0  0  0
    5.1881   53.9447   22.7921 C   0  0  0  0  0  0
    3.8329   54.0968   22.0817 C   0  0  0  0  0  0
    2.7858   53.2709   22.8330 C   0  0  1  0  0  0
    3.1044   52.2402   22.9829 H   0  0  0  0  0  0
    2.5302   53.8573   24.2313 C   0  0  0  0  0  0
    1.5185   53.2967   22.0817 N   0  0  0  0  0  0
    0.7046   51.7806   21.7598 S   0  0  0  0  0  0
   -0.3952   52.0768   20.8357 O   0  0  0  0  0  0
    1.7168   50.7686   21.4391 O   0  0  0  0  0  0
   -0.0389   51.3444   23.3128 C   0  0  0  0  0  0
    0.3599   50.2057   24.0214 C   0  0  0  0  0  0
   -0.2624   49.9109   25.2353 C   0  0  0  0  0  0
   -1.2614   50.7698   25.6947 C   0  0  0  0  0  0
   -1.6491   51.8838   25.0276 N   0  0  0  0  0  0
   -1.0384   52.1570   23.8494 C   0  0  0  0  0  0
   -1.9176   50.4967   26.8817 N   0  0  0  0  0  0
    7.1044   54.8420   26.9784 H   0  0  0  0  0  0
    4.9625   54.6008   28.1684 H   0  0  0  0  0  0
    2.8972   54.1454   26.9151 H   0  0  0  0  0  0
    7.1913   54.5812   24.5244 H   0  0  0  0  0  0
    5.9255   54.6085   22.3382 H   0  0  0  0  0  0
    5.5578   52.9286   22.6449 H   0  0  0  0  0  0
    3.5408   55.1480   22.0738 H   0  0  0  0  0  0
    3.9113   53.7835   21.0391 H   0  0  0  0  0  0
    1.8694   53.2055   24.8054 H   0  0  0  0  0  0
    2.0198   54.8177   24.1378 H   0  0  0  0  0  0
    1.5334   53.9139   21.2574 H   0  0  0  0  0  0
    1.1363   49.5546   23.6433 H   0  0  0  0  0  0
    0.0193   49.0336   25.8015 H   0  0  0  0  0  0
   -1.3687   53.0467   23.3333 H   0  0  0  0  0  0
   -1.6956   49.6348   27.4092 H   0  0  0  0  0  0
   -2.6631   51.1030   27.1808 H   0  0  0  0  0  0
  1  6  2  0  0  0
  1  2  1  0  0  0
  1 23  1  0  0  0
  2  3  2  0  0  0
  2 24  1  0  0  0
  3  4  1  0  0  0
  3 25  1  0  0  0
  4 11  1  0  0  0
  4  5  2  0  0  0
  5  6  1  0  0  0
  5  7  1  0  0  0
  6 26  1  0  0  0
  7  8  1  0  0  0
  7 27  1  0  0  0
  7 28  1  0  0  0
  8  9  1  0  0  0
  8 29  1  0  0  0
  8 30  1  0  0  0
  9 10  1  0  0  0
  9 11  1  0  0  0
  9 12  1  0  0  0
 11 31  1  0  0  0
 11 32  1  0  0  0
 12 13  1  0  0  0
 12 33  1  0  0  0
 13 14  2  0  0  0
 13 15  2  0  0  0
 13 16  1  0  0  0
 16 21  2  0  0  0
 16 17  1  0  0  0
 17 18  2  0  0  0
 17 34  1  0  0  0
 18 19  1  0  0  0
 18 35  1  0  0  0
 19 20  2  0  0  0
 19 22  1  0  0  0
 20 21  1  0  0  0
 21 36  1  0  0  0
 22 37  1  0  0  0
 22 38  1  0  0  0
M  END
> <i_i_glide_confnum>
20

> <i_i_glide_lignum>
1804

> <i_i_glide_posenum>
279

> <i_i_glide_rotatable_bonds>
3

> <i_m_Source_File_Index>
3425

> <b_m_subgroup_collapsed>
0

> <r_i_docking_score>
-6.06391

> <r_i_glide_ecoul>
-7.93812

> <r_i_glide_eff_state_penalty>
0

> <r_i_glide_einternal>
2.15661

> <r_i_glide_emodel>
-49.8397

> <r_i_glide_energy>
-37.3882

> <r_i_glide_erotb>
0.6006

> <r_i_glide_esite>
-0.122005

> <r_i_glide_evdw>
-29.4501

> <r_i_glide_gscore>
-6.06391

> <r_i_glide_hbond>
-0.456

> <r_i_glide_ligand_efficiency>
-0.288758

> <r_i_glide_ligand_efficiency_ln>
-1.49929

> <r_i_glide_ligand_efficiency_sa>
-0.79666

> <r_i_glide_lipo>
-2.54779

> <r_i_glide_metal>
0

> <r_i_glide_rewards>
-0.875494

> <s_i_glide_gridfile>
wee1_glide-grid

> <s_m_Source_File>
wee1_decoys_glide_SP.sdf

> <s_m_Source_Path>
/Users/zhangxujun/Desktop

> <s_m_entry_id>
3700

> <s_m_entry_name>
wee1_decoys_glide_SP.3425

> <s_m_subgroup_title>
wee1_decoys_glide_SP

> <s_m_subgroupid>
wee1_decoys_glide_SP


$$$$
