@<TRIPOS>MOLECULE
ZINC03423478_914
55   58    1
SMALL
USER_CHARGES


@<TRIPOS>ATOM
      1 C1         -3.3509   47.7926   24.1223 C.3       1 UNK         0.0000 
      2 C2         -2.1918   48.2047   25.0497 C.3       1 UNK         0.0000 
      3 C3         -0.9013   47.4407   24.6751 C.3       1 UNK         0.0000 
      4 C4         -2.0408   49.7581   25.1832 C.3       1 UNK         0.0000 
      5 H5         -3.0214   50.2375   25.1960 H         1 UNK         0.0000 
      6 C6         -1.2543   50.3601   23.9677 C.2       1 UNK         0.0000 
      7 O7         -1.6946   50.1874   22.8301 O.2       1 UNK         0.0000 
      8 N8         -0.1352   51.0520   24.2613 N.am      1 UNK         0.0000 
      9 C9          0.7522   51.6997   23.4215 C.2       1 UNK         0.0000 
     10 N10         1.7291   52.3900   23.9383 N.2       1 UNK         0.0000 
     11 C11         2.5397   52.9270   23.0420 C.2       1 UNK         0.0000 
     12 C12         2.1793   52.6419   21.7203 C.2       1 UNK         0.0000 
     13 S13         0.7316   51.6717   21.6825 S.3       1 UNK         0.0000 
     14 C14         3.7270   53.7064   23.5222 C.ar      1 UNK         0.0000 
     15 C15         3.7283   54.2639   24.8092 C.ar      1 UNK         0.0000 
     16 C16         4.8599   54.8966   25.3169 C.ar      1 UNK         0.0000 
     17 C17         6.0070   55.0012   24.5389 C.ar      1 UNK         0.0000 
     18 C18         6.0085   54.4897   23.2421 C.ar      1 UNK         0.0000 
     19 C19         4.8768   53.8454   22.7342 C.ar      1 UNK         0.0000 
     20 F20         7.1105   54.6149   22.4776 F         1 UNK         0.0000 
     21 F21         7.1043   55.6126   25.0413 F         1 UNK         0.0000 
     22 N22        -1.3690   50.0967   26.4815 N.pl3     1 UNK         0.0000 
     23 S23        -1.8285   51.5846   27.2870 S.o2      1 UNK         0.0000 
     24 O24        -2.9263   51.2906   28.2131 O.2       1 UNK         0.0000 
     25 O25        -1.9878   52.6112   26.2523 O.2       1 UNK         0.0000 
     26 C26        -0.3887   52.0484   28.2440 C.ar      1 UNK         0.0000 
     27 C27        -0.4314   52.0530   29.6446 C.ar      1 UNK         0.0000 
     28 C28         0.6631   52.4967   30.3852 C.ar      1 UNK         0.0000 
     29 C29         1.8203   52.8892   29.7204 C.ar      1 UNK         0.0000 
     30 C30         1.9002   52.8099   28.3217 C.ar      1 UNK         0.0000 
     31 C31         0.7867   52.4196   27.5829 C.ar      1 UNK         0.0000 
     32 O32         3.0406   53.1829   27.6360 O.3       1 UNK         0.0000 
     33 C33         4.2095   53.3039   28.4588 C.3       1 UNK         0.0000 
     34 C34         3.8432   54.0711   29.7479 C.3       1 UNK         0.0000 
     35 O35         2.8919   53.2981   30.4817 O.3       1 UNK         0.0000 
     36 H36        -3.1682   48.0782   23.0867 H         1 UNK         0.0000 
     37 H37        -3.5006   46.7132   24.1415 H         1 UNK         0.0000 
     38 H38        -4.2868   48.2566   24.4350 H         1 UNK         0.0000 
     39 H39        -2.4745   47.8402   26.0402 H         1 UNK         0.0000 
     40 H40        -0.6286   47.5914   23.6303 H         1 UNK         0.0000 
     41 H41        -0.0579   47.7679   25.2817 H         1 UNK         0.0000 
     42 H42        -1.0228   46.3695   24.8353 H         1 UNK         0.0000 
     43 H43         0.0643   51.1042   25.2484 H         1 UNK         0.0000 
     44 H44         2.6623   52.9478   20.8034 H         1 UNK         0.0000 
     45 H45         2.8508   54.1908   25.4326 H         1 UNK         0.0000 
     46 H46         4.8479   55.2972   26.3166 H         1 UNK         0.0000 
     47 H47         4.9108   53.4322   21.7369 H         1 UNK         0.0000 
     48 H48        -1.4197   49.3095   27.1562 H         1 UNK         0.0000 
     49 H49        -1.2975   51.6967   30.1762 H         1 UNK         0.0000 
     50 H50         0.6150   52.5104   31.4652 H         1 UNK         0.0000 
     51 H51         0.8371   52.4192   26.5064 H         1 UNK         0.0000 
     52 H52         4.5667   52.3072   28.7247 H         1 UNK         0.0000 
     53 H53         5.0156   53.8006   27.9234 H         1 UNK         0.0000 
     54 H54         4.7044   54.2815   30.3701 H         1 UNK         0.0000 
     55 H55         3.4045   55.0344   29.4779 H         1 UNK         0.0000 
@<TRIPOS>BOND
     1    1    2 1    
     2    1   36 1    
     3    1   37 1    
     4    1   38 1    
     5    2    3 1    
     6    2    4 1    
     7    2   39 1    
     8    3   40 1    
     9    3   41 1    
    10    3   42 1    
    11    4    5 1    
    12    4    6 1    
    13    4   22 1    
    14    6    7 2    
    15    6    8 am   BACKBONE|DICT|INTERRES
    16    8    9 am   BACKBONE|DICT|INTERRES
    17    8   43 1    
    18    9   13 1    
    19    9   10 2    
    20   10   11 1    
    21   11   12 2    
    22   11   14 1    
    23   12   13 1    
    24   12   44 1    
    25   14   19 ar   
    26   14   15 ar   
    27   15   16 ar   
    28   15   45 1    
    29   16   17 ar   
    30   16   46 1    
    31   17   18 ar   
    32   17   21 1    
    33   18   19 ar   
    34   18   20 1    
    35   19   47 1    
    36   22   23 1    
    37   22   48 1    
    38   23   24 2    
    39   23   25 2    
    40   23   26 1    
    41   26   31 ar   
    42   26   27 ar   
    43   27   28 ar   
    44   27   49 1    
    45   28   29 ar   
    46   28   50 1    
    47   29   35 1    
    48   29   30 ar   
    49   30   31 ar   
    50   30   32 1    
    51   31   51 1    
    52   32   33 1    
    53   33   34 1    
    54   33   52 1    
    55   33   53 1    
    56   34   35 1    
    57   34   54 1    
    58   34   55 1    
@<TRIPOS>SUBSTRUCTURE
     1 UNK         1 GROUP             0       ****    0 ROOT    
