@<TRIPOS>MOLECULE
ZINC21162459_6040
70   74    1
SMALL
USER_CHARGES


@<TRIPOS>ATOM
      1 C1          2.2032   51.9436   16.9342 C.3       1 UNK         0.0000 
      2 C2          1.1512   50.9720   17.5001 C.3       1 UNK         0.0000 
      3 H3          1.5658   50.5702   18.4277 H         1 UNK         0.0000 
      4 C4          0.9288   49.7746   16.5497 C.3       1 UNK         0.0000 
      5 C5         -0.0381   48.7427   17.1576 C.3       1 UNK         0.0000 
      6 C6         -1.3732   49.4101   17.5478 C.3       1 UNK         0.0000 
      7 C7         -1.1906   50.6268   18.4924 C.3       1 UNK         0.0000 
      8 H8         -2.1813   51.0829   18.5691 H         1 UNK         0.0000 
      9 C9         -0.1943   51.6680   17.8822 C.3       1 UNK         0.0000 
     10 H10         0.0456   52.3962   18.6596 H         1 UNK         0.0000 
     11 C11        -0.8524   52.4622   16.7295 C.3       1 UNK         0.0000 
     12 N12        -0.8222   50.2091   19.8492 N.am      1 UNK         0.0000 
     13 C13        -0.9031   50.9693   20.9530 C.2       1 UNK         0.0000 
     14 O14        -1.4063   52.0967   20.9542 O.2       1 UNK         0.0000 
     15 C15        -0.3215   50.3634   22.2493 C.3       1 UNK         0.0000 
     16 C16         0.9022   51.2087   22.6903 C.3       1 UNK         0.0000 
     17 C17         1.3984   50.7533   24.0817 C.3       1 UNK         0.0000 
     18 N18         0.3035   50.9121   25.0668 N.pl3     1 UNK         0.0000 
     19 C19        -0.8169   49.9993   24.7344 C.3       1 UNK         0.0000 
     20 C20        -1.4064   50.3873   23.3574 C.3       1 UNK         0.0000 
     21 C21         0.4611   51.4181   26.3332 C.ar      1 UNK         0.0000 
     22 N22        -0.1527   50.9101   27.4588 N.pl3     1 UNK         0.0000 
     23 C23         0.0261   51.7770   28.5210 C.ar      1 UNK         0.0000 
     24 C24        -0.4534   51.7399   29.8319 C.ar      1 UNK         0.0000 
     25 C25        -0.0950   52.8083   30.6598 C.ar      1 UNK         0.0000 
     26 C26         0.6698   53.8773   30.1990 C.ar      1 UNK         0.0000 
     27 C27         1.1426   53.9241   28.8859 C.ar      1 UNK         0.0000 
     28 C28         0.8201   52.8408   28.0526 C.ar      1 UNK         0.0000 
     29 N29         1.1276   52.5820   26.7118 N.pl3     1 UNK         0.0000 
     30 C30         1.9195   53.4915   25.8608 C.3       1 UNK         0.0000 
     31 C31         3.4195   53.6730   26.1414 C.ar      1 UNK         0.0000 
     32 C32         4.0232   53.3227   27.3602 C.ar      1 UNK         0.0000 
     33 C33         5.3760   53.5818   27.5840 C.ar      1 UNK         0.0000 
     34 C34         6.1484   54.1729   26.5875 C.ar      1 UNK         0.0000 
     35 C35         5.5698   54.4961   25.3621 C.ar      1 UNK         0.0000 
     36 C36         4.2173   54.2413   25.1389 C.ar      1 UNK         0.0000 
     37 F37         3.6795   54.5384   23.9343 F         1 UNK         0.0000 
     38 H38         1.9156   52.3382   15.9596 H         1 UNK         0.0000 
     39 H39         2.3693   52.7850   17.6083 H         1 UNK         0.0000 
     40 H40         3.1599   51.4359   16.8062 H         1 UNK         0.0000 
     41 H41         0.5684   50.1196   15.5790 H         1 UNK         0.0000 
     42 H42         1.8888   49.2966   16.3379 H         1 UNK         0.0000 
     43 H43        -0.2156   47.9366   16.4453 H         1 UNK         0.0000 
     44 H44         0.4219   48.2807   18.0336 H         1 UNK         0.0000 
     45 H45        -1.8948   49.7230   16.6420 H         1 UNK         0.0000 
     46 H46        -2.0282   48.6738   18.0156 H         1 UNK         0.0000 
     47 H47        -1.0935   51.8278   15.8792 H         1 UNK         0.0000 
     48 H48        -0.2028   53.2574   16.3692 H         1 UNK         0.0000 
     49 H49        -1.7767   52.9387   17.0580 H         1 UNK         0.0000 
     50 H50        -0.2978   49.3496   19.9049 H         1 UNK         0.0000 
     51 H51        -0.0171   49.3354   22.0466 H         1 UNK         0.0000 
     52 H52         1.7370   51.0783   21.9987 H         1 UNK         0.0000 
     53 H53         0.6489   52.2680   22.7960 H         1 UNK         0.0000 
     54 H54         1.6936   49.7026   24.0716 H         1 UNK         0.0000 
     55 H55         2.2875   51.3009   24.3841 H         1 UNK         0.0000 
     56 H56        -0.4516   48.9700   24.7545 H         1 UNK         0.0000 
     57 H57        -1.6003   50.0869   25.4893 H         1 UNK         0.0000 
     58 H58        -1.8109   51.3929   23.4956 H         1 UNK         0.0000 
     59 H59        -2.2043   49.6758   23.1418 H         1 UNK         0.0000 
     60 H60        -1.0660   50.9239   30.2015 H         1 UNK         0.0000 
     61 H61        -0.4484   52.8217   31.6810 H         1 UNK         0.0000 
     62 H62         0.8880   54.6901   30.8768 H         1 UNK         0.0000 
     63 H63         1.7321   54.7597   28.5386 H         1 UNK         0.0000 
     64 H64         1.7436   53.2563   24.8146 H         1 UNK         0.0000 
     65 H65         1.5017   54.4813   25.9793 H         1 UNK         0.0000 
     66 H66         3.4667   52.8425   28.1463 H         1 UNK         0.0000 
     67 H67         5.8328   53.3124   28.5256 H         1 UNK         0.0000 
     68 H68         7.1969   54.3648   26.7607 H         1 UNK         0.0000 
     69 H69         6.1665   54.9369   24.5772 H         1 UNK         0.0000 
     70 H70        -0.6792   50.0356   27.4710 H         1 UNK         0.0000 
@<TRIPOS>BOND
     1    1    2 1    
     2    1   38 1    
     3    1   39 1    
     4    1   40 1    
     5    2    3 1    
     6    2    9 1    
     7    2    4 1    
     8    4    5 1    
     9    4   41 1    
    10    4   42 1    
    11    5    6 1    
    12    5   43 1    
    13    5   44 1    
    14    6    7 1    
    15    6   45 1    
    16    6   46 1    
    17    7    8 1    
    18    7    9 1    
    19    7   12 1    
    20    9   10 1    
    21    9   11 1    
    22   11   47 1    
    23   11   48 1    
    24   11   49 1    
    25   12   13 am   BACKBONE|DICT|INTERRES
    26   12   50 1    
    27   13   14 2    
    28   13   15 1    
    29   15   20 1    
    30   15   16 1    
    31   15   51 1    
    32   16   17 1    
    33   16   52 1    
    34   16   53 1    
    35   17   18 1    
    36   17   54 1    
    37   17   55 1    
    38   18   19 1    
    39   18   21 1    
    40   19   20 1    
    41   19   56 1    
    42   19   57 1    
    43   20   58 1    
    44   20   59 1    
    45   21   29 ar   
    46   21   22 ar   
    47   22   23 ar   
    48   22   70 1    
    49   23   28 ar   
    50   23   24 ar   
    51   24   25 ar   
    52   24   60 1    
    53   25   26 ar   
    54   25   61 1    
    55   26   27 ar   
    56   26   62 1    
    57   27   28 ar   
    58   27   63 1    
    59   28   29 ar   
    60   29   30 1    
    61   30   31 1    
    62   30   64 1    
    63   30   65 1    
    64   31   36 ar   
    65   31   32 ar   
    66   32   33 ar   
    67   32   66 1    
    68   33   34 ar   
    69   33   67 1    
    70   34   35 ar   
    71   34   68 1    
    72   35   36 ar   
    73   35   69 1    
    74   36   37 1    
@<TRIPOS>SUBSTRUCTURE
     1 UNK         1 GROUP             0       ****    0 ROOT    
