@<TRIPOS>MOLECULE
ZINC03047125_713
46   49    1
SMALL
USER_CHARGES


@<TRIPOS>ATOM
      1 C1          6.4231   54.4644   25.7915 C.ar      1 UNK         0.0000 
      2 C2          6.0924   54.3554   27.1397 C.ar      1 UNK         0.0000 
      3 C3          4.7678   54.1272   27.5069 C.ar      1 UNK         0.0000 
      4 C4          3.7784   53.9996   26.5357 C.ar      1 UNK         0.0000 
      5 C5          4.1112   54.1005   25.1864 C.ar      1 UNK         0.0000 
      6 C6          5.4388   54.3367   24.8020 C.ar      1 UNK         0.0000 
      7 C7          5.8071   54.4946   23.3808 C.2       1 UNK         0.0000 
      8 N8          6.7046   55.3430   23.0320 N.2       1 UNK         0.0000 
      9 C9          7.1695   55.4161   21.7577 C.2       1 UNK         0.0000 
     10 C10         6.5137   55.0407   20.6396 C.2       1 UNK         0.0000 
     11 C11         5.1297   54.5031   20.6894 C.3       1 UNK         0.0000 
     12 H12         4.3911   55.2948   20.7385 H         1 UNK         0.0000 
     13 S13         4.8888   53.4681   22.1753 S.3       1 UNK         0.0000 
     14 C14         4.9918   53.7967   19.3636 C.2       1 UNK         0.0000 
     15 O15         4.0499   53.0774   19.0336 O.2       1 UNK         0.0000 
     16 N16         6.0811   54.1549   18.6395 N.am      1 UNK         0.0000 
     17 C17         6.9793   54.9480   19.2898 C.2       1 UNK         0.0000 
     18 O18         8.0334   55.3922   18.8374 O.2       1 UNK         0.0000 
     19 C19         6.3253   53.6628   17.2722 C.3       1 UNK         0.0000 
     20 C20         7.4352   52.5883   17.2386 C.3       1 UNK         0.0000 
     21 N21         7.7962   52.1608   15.8848 N.pl3     1 UNK         0.0000 
     22 C22         8.8961   51.2959   15.6086 C.ar      1 UNK         0.0000 
     23 C23         9.0815   50.7543   14.3261 C.ar      1 UNK         0.0000 
     24 C24        10.1681   49.9115   14.0835 C.ar      1 UNK         0.0000 
     25 C25        11.0730   49.6147   15.1111 C.ar      1 UNK         0.0000 
     26 C26        10.8382   50.1502   16.3853 C.ar      1 UNK         0.0000 
     27 C27        12.2717   48.7065   14.8344 C.3       1 UNK         0.0000 
     28 F28        11.9074   47.6708   14.0823 F         1 UNK         0.0000 
     29 F29        12.8043   48.2308   15.9622 F         1 UNK         0.0000 
     30 F30        13.2032   49.4022   14.1858 F         1 UNK         0.0000 
     31 Cl31        7.9900   51.1004   13.0287 Cl        1 UNK         0.0000 
     32 Cl32        4.3490   54.0161   29.1786 Cl        1 UNK         0.0000 
     33 H33         7.4509   54.6400   25.5107 H         1 UNK         0.0000 
     34 H34         6.8557   54.4546   27.8972 H         1 UNK         0.0000 
     35 H35         2.7524   53.8226   26.8246 H         1 UNK         0.0000 
     36 H36         3.3230   54.0105   24.4505 H         1 UNK         0.0000 
     37 H37         8.1890   55.7749   21.6765 H         1 UNK         0.0000 
     38 H38         6.5991   54.5074   16.6369 H         1 UNK         0.0000 
     39 H39         5.4075   53.2469   16.8462 H         1 UNK         0.0000 
     40 H40         7.1189   51.6962   17.7805 H         1 UNK         0.0000 
     41 H41         8.3462   52.9679   17.6998 H         1 UNK         0.0000 
     42 H42         7.1633   52.3914   15.1317 H         1 UNK         0.0000 
     43 H43        10.3045   49.4974   13.0958 H         1 UNK         0.0000 
     44 H44        11.4644   49.9759   17.2527 H         1 UNK         0.0000 
     45 N45         9.7761   50.9587   16.5805 N.pl3     1 UNK         0.0000 
     46 H46         9.6320   51.3362   17.5071 H         1 UNK         0.0000 
@<TRIPOS>BOND
     1    1    6 ar   
     2    1    2 ar   
     3    1   33 1    
     4    2    3 ar   
     5    2   34 1    
     6    3    4 ar   
     7    3   32 1    
     8    4    5 ar   
     9    4   35 1    
    10    5    6 ar   
    11    5   36 1    
    12    6    7 1    
    13    7   13 1    
    14    7    8 2    
    15    8    9 1    
    16    9   10 2    
    17    9   37 1    
    18   10   17 1    
    19   10   11 1    
    20   11   12 1    
    21   11   13 1    
    22   11   14 1    
    23   14   15 2    
    24   14   16 am   BACKBONE|DICT|INTERRES
    25   16   17 am   BACKBONE|DICT|INTERRES
    26   16   19 1    
    27   17   18 2    
    28   19   20 1    
    29   19   38 1    
    30   19   39 1    
    31   20   21 1    
    32   20   40 1    
    33   20   41 1    
    34   21   22 1    
    35   21   42 1    
    36   22   23 ar   
    37   22   45 ar   
    38   23   24 ar   
    39   23   31 1    
    40   24   25 ar   
    41   24   43 1    
    42   25   26 ar   
    43   25   27 1    
    44   26   44 1    
    45   26   45 ar   
    46   27   28 1    
    47   27   29 1    
    48   27   30 1    
    49   45   46 1    
@<TRIPOS>SUBSTRUCTURE
     1 UNK         1 GROUP             0       ****    0 ROOT    
