@<TRIPOS>MOLECULE
ZINC02247497_4417
49   53    1
SMALL
USER_CHARGES


@<TRIPOS>ATOM
      1 C1          1.7974   53.7771   29.6739 C.ar      1 UNK         0.0000 
      2 C2          3.0024   54.4469   29.4549 C.ar      1 UNK         0.0000 
      3 C3          3.5395   54.5539   28.1756 C.ar      1 UNK         0.0000 
      4 C4          2.8556   53.9875   27.0800 C.ar      1 UNK         0.0000 
      5 C5          1.6291   53.2948   27.2983 C.ar      1 UNK         0.0000 
      6 C6          1.1060   53.1958   28.6094 C.ar      1 UNK         0.0000 
      7 N7          0.9780   52.7298   26.2452 N.ar      1 UNK         0.0000 
      8 C8          1.4924   52.8153   25.0120 C.ar      1 UNK         0.0000 
      9 C9          1.0428   52.3093   23.7447 C.ar      1 UNK         0.0000 
     10 C10         2.0732   52.6404   22.8501 C.ar      1 UNK         0.0000 
     11 N11         3.0729   53.3978   23.4777 N.pl3     1 UNK         0.0000 
     12 C12         2.7121   53.5036   24.8181 C.ar      1 UNK         0.0000 
     13 N13         3.3647   54.0970   25.8249 N.ar      1 UNK         0.0000 
     14 C14         4.2872   53.8959   22.9045 C.ar      1 UNK         0.0000 
     15 C15         5.4581   53.9489   23.6760 C.ar      1 UNK         0.0000 
     16 C16         6.6229   54.4969   23.1573 C.ar      1 UNK         0.0000 
     17 C17         6.6471   54.9681   21.8497 C.ar      1 UNK         0.0000 
     18 C18         5.5041   54.9004   21.0609 C.ar      1 UNK         0.0000 
     19 C19         4.3199   54.3993   21.5965 C.ar      1 UNK         0.0000 
     20 Br20        8.2546   55.6968   21.1338 Br        1 UNK         0.0000 
     21 N21         2.1863   52.2692   21.5336 N.pl3     1 UNK         0.0000 
     22 C22        -0.1662   51.5870   23.4058 C.2       1 UNK         0.0000 
     23 O23        -0.4666   51.2966   22.2456 O.2       1 UNK         0.0000 
     24 N24        -0.9407   51.3031   24.4651 N.am      1 UNK         0.0000 
     25 C25        -2.2365   50.6308   24.4325 C.3       1 UNK         0.0000 
     26 C26        -2.8159   50.5323   25.8490 C.3       1 UNK         0.0000 
     27 C27        -4.3240   50.3934   25.6402 C.3       1 UNK         0.0000 
     28 C28        -4.6251   51.3186   24.4608 C.3       1 UNK         0.0000 
     29 C29        -3.3189   51.4070   23.6515 C.3       1 UNK         0.0000 
     30 H30         1.3893   53.7044   30.6732 H         1 UNK         0.0000 
     31 H31         3.5328   54.8963   30.2766 H         1 UNK         0.0000 
     32 H32         4.4714   55.0746   28.0143 H         1 UNK         0.0000 
     33 H33         0.1774   52.6707   28.7774 H         1 UNK         0.0000 
     34 H34         5.4918   53.5562   24.6808 H         1 UNK         0.0000 
     35 H35         7.5044   54.5439   23.7737 H         1 UNK         0.0000 
     36 H36         5.5217   55.2754   20.0488 H         1 UNK         0.0000 
     37 H37         3.4317   54.4266   20.9838 H         1 UNK         0.0000 
     38 H38         1.4506   51.7287   21.0935 H         1 UNK         0.0000 
     39 H39         3.0063   52.4677   20.9774 H         1 UNK         0.0000 
     40 H40        -0.5182   51.3937   25.3772 H         1 UNK         0.0000 
     41 H41        -2.1754   49.6017   24.0649 H         1 UNK         0.0000 
     42 H42        -2.6055   51.4408   26.4182 H         1 UNK         0.0000 
     43 H43        -2.3764   49.7148   26.4264 H         1 UNK         0.0000 
     44 H44        -4.8917   50.6536   26.5365 H         1 UNK         0.0000 
     45 H45        -4.5706   49.3623   25.3820 H         1 UNK         0.0000 
     46 H46        -4.9073   52.3093   24.8230 H         1 UNK         0.0000 
     47 H47        -5.4556   50.9489   23.8553 H         1 UNK         0.0000 
     48 H48        -3.4260   51.0112   22.6378 H         1 UNK         0.0000 
     49 H49        -3.0460   52.4603   23.5418 H         1 UNK         0.0000 
@<TRIPOS>BOND
     1    1    6 ar   
     2    1    2 ar   
     3    1   30 1    
     4    2    3 ar   
     5    2   31 1    
     6    3    4 ar   
     7    3   32 1    
     8    4   13 ar   
     9    4    5 ar   
    10    5    6 ar   
    11    5    7 ar   
    12    6   33 1    
    13    7    8 ar   
    14    8   12 ar   
    15    8    9 ar   
    16    9   10 ar   
    17    9   22 1    
    18   10   11 ar   
    19   10   21 1    
    20   11   12 ar   
    21   11   14 1    
    22   12   13 ar   
    23   14   19 ar   
    24   14   15 ar   
    25   15   16 ar   
    26   15   34 1    
    27   16   17 ar   
    28   16   35 1    
    29   17   18 ar   
    30   17   20 1    
    31   18   19 ar   
    32   18   36 1    
    33   19   37 1    
    34   21   38 1    
    35   21   39 1    
    36   22   23 2    
    37   22   24 am   BACKBONE|DICT|INTERRES
    38   24   25 1    
    39   24   40 1    
    40   25   29 1    
    41   25   26 1    
    42   25   41 1    
    43   26   27 1    
    44   26   42 1    
    45   26   43 1    
    46   27   28 1    
    47   27   44 1    
    48   27   45 1    
    49   28   29 1    
    50   28   46 1    
    51   28   47 1    
    52   29   48 1    
    53   29   49 1    
@<TRIPOS>SUBSTRUCTURE
     1 UNK         1 GROUP             0       ****    0 ROOT    
