ZINC63393535_908
                    3D
 Schrodinger Suite 2024-2.
 68 71  0  0  1  0            999 V2000
    1.9044   56.8625   29.8306 C   0  0  0  0  0  0
    1.3877   55.4483   29.6798 C   0  0  0  0  0  0
    0.7045   54.7536   30.7677 C   0  0  0  0  0  0
    0.1451   53.5233   30.6309 C   0  0  0  0  0  0
    0.2039   52.8609   29.4016 C   0  0  0  0  0  0
   -0.2875   51.6962   29.0549 N   0  3  0  0  0  0
    0.0520   51.4094   27.6499 C   0  0  0  0  0  0
    0.8361   52.6442   27.2550 C   0  0  0  0  0  0
    0.8666   53.4546   28.3255 C   0  0  0  0  0  0
    1.4603   54.7859   28.5056 C   0  0  0  0  0  0
    1.4504   52.8103   25.8754 C   0  0  0  0  0  0
    0.4982   52.5504   24.6924 C   0  0  0  0  0  0
    1.2184   52.3122   23.4402 N   0  0  0  0  0  0
    1.9113   53.3889   22.7344 C   0  0  0  0  0  0
    2.4909   52.6922   21.5067 C   0  0  2  0  0  0
    1.8536   52.9007   20.6448 H   0  0  0  0  0  0
    2.4742   51.2061   21.8536 C   0  0  0  0  0  0
    1.5041   51.0566   23.0197 C   0  0  0  0  0  0
    1.1107   49.9891   23.4879 O   0  0  0  0  0  0
    3.9062   53.2283   21.1977 C   0  0  0  0  0  0
    4.7682   53.2195   22.0815 O   0  0  0  0  0  0
    4.1124   53.6522   19.9343 N   0  0  0  0  0  0
    5.2725   54.1965   19.3616 C   0  0  0  0  0  0
    6.2911   54.8214   20.0982 C   0  0  0  0  0  0
    7.4235   55.2977   19.4461 C   0  0  0  0  0  0
    7.5108   55.2072   18.0573 C   0  0  0  0  0  0
    6.4890   54.6119   17.3175 C   0  0  0  0  0  0
    5.3718   54.1089   17.9716 C   0  0  0  0  0  0
    8.9402   55.8814   17.2315 S   0  0  0  0  0  0
    8.6286   55.9856   15.8012 O   0  0  0  0  0  0
   10.0821   55.0792   17.6817 O   0  0  0  0  0  0
    9.1484   57.5060   17.9060 N   0  0  0  0  0  0
    8.2037   58.6429   17.7005 C   0  0  0  0  0  0
    8.9231   59.9017   18.2215 C   0  0  0  0  0  0
    6.9023   58.4290   18.5035 C   0  0  0  0  0  0
    7.8720   58.8444   16.2077 C   0  0  0  0  0  0
    2.9833   56.8875   29.6827 H   0  0  0  0  0  0
    1.5035   57.4977   29.0399 H   0  0  0  0  0  0
    1.6476   57.2995   30.7956 H   0  0  0  0  0  0
    0.6551   55.2387   31.7310 H   0  0  0  0  0  0
   -0.3379   53.0681   31.4883 H   0  0  0  0  0  0
   -0.8784   51.2637   27.1012 H   0  0  0  0  0  0
    0.6424   50.4968   27.6117 H   0  0  0  0  0  0
    1.9439   55.2896   27.6826 H   0  0  0  0  0  0
    2.2723   52.0976   25.8290 H   0  0  0  0  0  0
    1.9153   53.7906   25.7758 H   0  0  0  0  0  0
   -0.2172   53.3667   24.5838 H   0  0  0  0  0  0
   -0.1155   51.6743   24.9177 H   0  0  0  0  0  0
    2.6767   53.7505   23.4260 H   0  0  0  0  0  0
    1.2194   54.1916   22.4804 H   0  0  0  0  0  0
    2.0442   50.6312   21.0320 H   0  0  0  0  0  0
    3.4495   50.7711   22.0789 H   0  0  0  0  0  0
    3.3663   53.4812   19.2769 H   0  0  0  0  0  0
    6.2307   54.9273   21.1695 H   0  0  0  0  0  0
    8.2186   55.7553   20.0170 H   0  0  0  0  0  0
    6.5551   54.5406   16.2404 H   0  0  0  0  0  0
    4.5927   53.6347   17.3910 H   0  0  0  0  0  0
    9.6265   57.5131   18.8107 H   0  0  0  0  0  0
    8.3046   60.7903   18.0946 H   0  0  0  0  0  0
    9.8557   60.0768   17.6820 H   0  0  0  0  0  0
    9.1678   59.8122   19.2795 H   0  0  0  0  0  0
    6.3174   57.5954   18.1180 H   0  0  0  0  0  0
    7.0882   58.2447   19.5589 H   0  0  0  0  0  0
    6.2511   59.2963   18.4445 H   0  0  0  0  0  0
    7.2504   58.0417   15.8146 H   0  0  0  0  0  0
    7.3097   59.7681   16.0531 H   0  0  0  0  0  0
    8.7740   58.9020   15.5981 H   0  0  0  0  0  0
   -0.8148   51.0653   29.6560 H   0  0  0  0  0  0
  1  2  1  0  0  0
  1 37  1  0  0  0
  1 38  1  0  0  0
  1 39  1  0  0  0
  2 10  2  0  0  0
  2  3  1  0  0  0
  3  4  2  0  0  0
  3 40  1  0  0  0
  4  5  1  0  0  0
  4 41  1  0  0  0
  5  9  1  0  0  0
  5  6  2  0  0  0
  6  7  1  0  0  0
  6 68  1  0  0  0
  7  8  1  0  0  0
  7 42  1  0  0  0
  7 43  1  0  0  0
  8  9  2  0  0  0
  8 11  1  0  0  0
  9 10  1  0  0  0
 10 44  1  0  0  0
 11 12  1  0  0  0
 11 45  1  0  0  0
 11 46  1  0  0  0
 12 13  1  0  0  0
 12 47  1  0  0  0
 12 48  1  0  0  0
 13 18  1  0  0  0
 13 14  1  0  0  0
 14 15  1  0  0  0
 14 49  1  0  0  0
 14 50  1  0  0  0
 15 16  1  0  0  0
 15 17  1  0  0  0
 15 20  1  0  0  0
 17 18  1  0  0  0
 17 51  1  0  0  0
 17 52  1  0  0  0
 18 19  2  0  0  0
 20 21  2  0  0  0
 20 22  1  0  0  0
 22 23  1  0  0  0
 22 53  1  0  0  0
 23 28  2  0  0  0
 23 24  1  0  0  0
 24 25  2  0  0  0
 24 54  1  0  0  0
 25 26  1  0  0  0
 25 55  1  0  0  0
 26 27  2  0  0  0
 26 29  1  0  0  0
 27 28  1  0  0  0
 27 56  1  0  0  0
 28 57  1  0  0  0
 29 30  2  0  0  0
 29 31  2  0  0  0
 29 32  1  0  0  0
 32 33  1  0  0  0
 32 58  1  0  0  0
 33 34  1  0  0  0
 33 35  1  0  0  0
 33 36  1  0  0  0
 34 59  1  0  0  0
 34 60  1  0  0  0
 34 61  1  0  0  0
 35 62  1  0  0  0
 35 63  1  0  0  0
 35 64  1  0  0  0
 36 65  1  0  0  0
 36 66  1  0  0  0
 36 67  1  0  0  0
M  CHG  1   6   1
M  END
> <i_i_glide_confnum>
65

> <i_i_glide_lignum>
909

> <i_i_glide_posenum>
157

> <i_i_glide_rotatable_bonds>
9

> <i_m_Source_File_Index>
579

> <b_m_subgroup_collapsed>
0

> <r_i_docking_score>
-3.98387

> <r_i_glide_ecoul>
-1.66832

> <r_i_glide_eff_state_penalty>
0

> <r_i_glide_einternal>
3.13061

> <r_i_glide_emodel>
-55.8954

> <r_i_glide_energy>
-45.8808

> <r_i_glide_erotb>
0.659047

> <r_i_glide_esite>
-0.0510467

> <r_i_glide_evdw>
-44.2125

> <r_i_glide_gscore>
-3.98387

> <r_i_glide_hbond>
0

> <r_i_glide_ligand_efficiency>
-0.113825

> <r_i_glide_ligand_efficiency_ln>
-0.874548

> <r_i_glide_ligand_efficiency_sa>
-0.372329

> <r_i_glide_lipo>
-2.47197

> <r_i_glide_metal>
0

> <r_i_glide_rewards>
0.340972

> <s_i_glide_gridfile>
wee1_glide-grid

> <s_m_Source_File>
wee1_decoys_glide_SP.sdf

> <s_m_Source_Path>
/Users/zhangxujun/Desktop

> <s_m_entry_id>
854

> <s_m_entry_name>
wee1_decoys_glide_SP.579

> <s_m_subgroup_title>
wee1_decoys_glide_SP

> <s_m_subgroupid>
wee1_decoys_glide_SP


$$$$
