@<TRIPOS>MOLECULE
ZINC36240498_5162
53   57    1
SMALL
USER_CHARGES


@<TRIPOS>ATOM
      1 C1          1.1051   54.7159   29.1593 C.ar      1 UNK         0.0000 
      2 C2          0.7041   54.8648   30.4817 C.ar      1 UNK         0.0000 
      3 C3          0.7043   53.7599   31.3257 C.ar      1 UNK         0.0000 
      4 C4          1.1222   52.5155   30.8783 C.ar      1 UNK         0.0000 
      5 C5          1.5372   52.3556   29.5608 C.ar      1 UNK         0.0000 
      6 C6          1.5206   53.4593   28.6991 C.ar      1 UNK         0.0000 
      7 N7          1.9052   53.3080   27.3476 N.pl3     1 UNK         0.0000 
      8 C8          3.1707   53.8015   27.0295 C.ar      1 UNK         0.0000 
      9 O9          3.9731   54.2220   27.8731 O.2       1 UNK         0.0000 
     10 C10         3.3951   53.7818   25.5854 C.ar      1 UNK         0.0000 
     11 C11         4.5382   54.1914   24.8749 C.2       1 UNK         0.0000 
     12 C12         4.3703   54.0379   23.4870 C.2       1 UNK         0.0000 
     13 S13         2.7927   53.4300   23.0779 S.3       1 UNK         0.0000 
     14 C14         2.3901   53.3008   24.7535 C.ar      1 UNK         0.0000 
     15 N15         1.2118   52.7757   25.1737 N.2       1 UNK         0.0000 
     16 C16         0.9845   52.7575   26.4446 C.ar      1 UNK         0.0000 
     17 S17        -0.5808   52.0324   27.0237 S.3       1 UNK         0.0000 
     18 C18        -1.3224   51.3191   25.5150 C.3       1 UNK         0.0000 
     19 C19        -2.5500   50.4343   25.7816 C.2       1 UNK         0.0000 
     20 O20        -2.7858   49.5046   25.0063 O.2       1 UNK         0.0000 
     21 N21        -3.3193   50.7604   26.8514 N.am      1 UNK         0.0000 
     22 C22        -4.3035   50.0702   27.4729 C.2       1 UNK         0.0000 
     23 O23        -4.9506   50.6194   28.3618 O.2       1 UNK         0.0000 
     24 N24        -4.4955   48.7794   27.1270 N.am      1 UNK         0.0000 
     25 C25        -5.2546   47.7913   27.8856 C.3       1 UNK         0.0000 
     26 C26        -4.5496   46.5068   28.2601 C.3       1 UNK         0.0000 
     27 C27        -4.8959   47.5117   29.3333 C.3       1 UNK         0.0000 
     28 C28         5.4600   54.2681   22.4488 C.3       1 UNK         0.0000 
     29 C29         6.6226   55.0545   23.0962 C.3       1 UNK         0.0000 
     30 C30         7.0038   54.5018   24.4818 C.3       1 UNK         0.0000 
     31 C31         5.8551   54.6552   25.4944 C.3       1 UNK         0.0000 
     32 Cl32        0.3043   53.9529   32.9896 Cl        1 UNK         0.0000 
     33 H33         1.0990   55.5713   28.4998 H         1 UNK         0.0000 
     34 H34         0.4027   55.8332   30.8534 H         1 UNK         0.0000 
     35 H35         1.1335   51.6968   31.5752 H         1 UNK         0.0000 
     36 H36         1.8543   51.3842   29.2076 H         1 UNK         0.0000 
     37 H37        -0.5668   50.7237   25.0004 H         1 UNK         0.0000 
     38 H38        -1.5942   52.1225   24.8300 H         1 UNK         0.0000 
     39 H39        -3.0810   51.6245   27.3097 H         1 UNK         0.0000 
     40 H40        -4.1361   48.4887   26.2280 H         1 UNK         0.0000 
     41 H41        -6.3099   47.7495   27.6122 H         1 UNK         0.0000 
     42 H42        -3.4986   46.3799   27.9901 H         1 UNK         0.0000 
     43 H43        -5.1108   45.5784   28.1734 H         1 UNK         0.0000 
     44 H44        -5.7050   47.2969   30.0317 H         1 UNK         0.0000 
     45 H45        -4.0953   48.0950   29.7956 H         1 UNK         0.0000 
     46 H46         5.8296   53.3058   22.0954 H         1 UNK         0.0000 
     47 H47         5.0766   54.8006   21.5781 H         1 UNK         0.0000 
     48 H48         7.4925   55.0491   22.4371 H         1 UNK         0.0000 
     49 H49         6.3233   56.0963   23.2007 H         1 UNK         0.0000 
     50 H50         7.2826   53.4497   24.3886 H         1 UNK         0.0000 
     51 H51         7.8798   55.0109   24.8816 H         1 UNK         0.0000 
     52 H52         5.7623   55.6947   25.8084 H         1 UNK         0.0000 
     53 H53         6.0938   54.0872   26.3948 H         1 UNK         0.0000 
@<TRIPOS>BOND
     1    1    6 ar   
     2    1    2 ar   
     3    1   33 1    
     4    2    3 ar   
     5    2   34 1    
     6    3    4 ar   
     7    3   32 1    
     8    4    5 ar   
     9    4   35 1    
    10    5    6 ar   
    11    5   36 1    
    12    6    7 1    
    13    7   16 ar   
    14    7    8 ar   
    15    8    9 2    
    16    8   10 ar   
    17   10   14 ar   
    18   10   11 1    
    19   11   31 1    
    20   11   12 2    
    21   12   13 1    
    22   12   28 1    
    23   13   14 1    
    24   14   15 ar   
    25   15   16 ar   
    26   16   17 1    
    27   17   18 1    
    28   18   19 1    
    29   18   37 1    
    30   18   38 1    
    31   19   20 2    
    32   19   21 am   BACKBONE|DICT|INTERRES
    33   21   22 am   BACKBONE|DICT|INTERRES
    34   21   39 1    
    35   22   23 2    
    36   22   24 am   BACKBONE|DICT|INTERRES
    37   24   25 1    
    38   24   40 1    
    39   25   27 1    
    40   25   26 1    
    41   25   41 1    
    42   26   27 1    
    43   26   42 1    
    44   26   43 1    
    45   27   44 1    
    46   27   45 1    
    47   28   29 1    
    48   28   46 1    
    49   28   47 1    
    50   29   30 1    
    51   29   48 1    
    52   29   49 1    
    53   30   31 1    
    54   30   50 1    
    55   30   51 1    
    56   31   52 1    
    57   31   53 1    
@<TRIPOS>SUBSTRUCTURE
     1 UNK         1 GROUP             0       ****    0 ROOT    
