@<TRIPOS>MOLECULE
ZINC47827105_3782
28   29    1
SMALL
USER_CHARGES


@<TRIPOS>ATOM
      1 C1          1.3213   56.6151   30.8285 C.3       1 UNK         0.0000 
      2 C2          1.5067   55.3129   30.0816 C.ar      1 UNK         0.0000 
      3 C3          2.6200   55.1358   29.2645 C.ar      1 UNK         0.0000 
      4 C4          2.8228   53.9281   28.5914 C.ar      1 UNK         0.0000 
      5 C5          1.8808   52.8921   28.7349 C.ar      1 UNK         0.0000 
      6 C6          0.7594   53.0762   29.5514 C.ar      1 UNK         0.0000 
      7 C7          0.5808   54.2803   30.2287 C.ar      1 UNK         0.0000 
      8 Br8        -0.5455   51.6986   29.7533 Br        1 UNK         0.0000 
      9 O9          2.0190   51.6964   28.0815 O.3       1 UNK         0.0000 
     10 C10         4.0468   53.7877   27.7358 C.2       1 UNK         0.0000 
     11 O11         5.0731   53.2873   28.2012 O.2       1 UNK         0.0000 
     12 N12         3.8856   54.2795   26.4892 N.am      1 UNK         0.0000 
     13 C13         4.8137   54.3573   25.5064 C.2       1 UNK         0.0000 
     14 N14         6.0491   54.6267   25.6374 N.2       1 UNK         0.0000 
     15 C15         6.7583   54.6160   24.3836 C.3       1 UNK         0.0000 
     16 C16         5.8438   54.2557   23.2076 C.3       1 UNK         0.0000 
     17 S17         4.1783   54.0967   23.8630 S.3       1 UNK         0.0000 
     18 H18         1.9494   57.4104   30.4372 H         1 UNK         0.0000 
     19 H19         0.3029   56.9532   30.7130 H         1 UNK         0.0000 
     20 H20         1.5044   56.4973   31.8950 H         1 UNK         0.0000 
     21 H21         3.3376   55.9392   29.1722 H         1 UNK         0.0000 
     22 H22        -0.2786   54.4085   30.8703 H         1 UNK         0.0000 
     23 H23         1.2661   51.1176   28.2339 H         1 UNK         0.0000 
     24 H24         2.9451   54.5388   26.2398 H         1 UNK         0.0000 
     25 H25         7.5539   53.8773   24.4813 H         1 UNK         0.0000 
     26 H26         7.1899   55.6095   24.2503 H         1 UNK         0.0000 
     27 H27         5.8237   55.0291   22.4393 H         1 UNK         0.0000 
     28 H28         6.1014   53.2936   22.7637 H         1 UNK         0.0000 
@<TRIPOS>BOND
     1    1    2 1    
     2    1   18 1    
     3    1   19 1    
     4    1   20 1    
     5    2    7 ar   
     6    2    3 ar   
     7    3    4 ar   
     8    3   21 1    
     9    4    5 ar   
    10    4   10 1    
    11    5    6 ar   
    12    5    9 1    
    13    6    7 ar   
    14    6    8 1    
    15    7   22 1    
    16    9   23 1    
    17   10   11 2    
    18   10   12 am   BACKBONE|DICT|INTERRES
    19   12   13 am   BACKBONE|DICT|INTERRES
    20   12   24 1    
    21   13   17 1    
    22   13   14 2    
    23   14   15 1    
    24   15   16 1    
    25   15   25 1    
    26   15   26 1    
    27   16   17 1    
    28   16   27 1    
    29   16   28 1    
@<TRIPOS>SUBSTRUCTURE
     1 UNK         1 GROUP             0       ****    0 ROOT    
