@<TRIPOS>MOLECULE
ZINC34750191_362
69   72    1
SMALL
USER_CHARGES


@<TRIPOS>ATOM
      1 C1          1.7270   55.3142   28.4745 C.3       1 UNK         0.0000 
      2 C2          2.4295   54.0740   27.8915 C.3       1 UNK         0.0000 
      3 N3          3.8152   53.9082   28.3649 N.am      1 UNK         0.0000 
      4 C4          3.9248   53.4883   29.7702 C.3       1 UNK         0.0000 
      5 C5          4.2009   51.9854   29.9238 C.3       1 UNK         0.0000 
      6 C6          4.9283   54.1019   27.6017 C.2       1 UNK         0.0000 
      7 O7          6.0662   53.9786   28.0577 O.2       1 UNK         0.0000 
      8 C8          4.7494   54.4654   26.1177 C.3       1 UNK         0.0000 
      9 S9          6.2706   54.8963   25.1927 S.3       1 UNK         0.0000 
     10 C10         5.9178   54.6402   23.4766 C.ar      1 UNK         0.0000 
     11 N11         4.8578   53.8609   23.1699 N.ar      1 UNK         0.0000 
     12 C12         4.5290   53.7056   21.8585 C.ar      1 UNK         0.0000 
     13 C13         5.2570   54.3684   20.8389 C.ar      1 UNK         0.0000 
     14 C14         5.1180   54.4529   19.4138 C.2       1 UNK         0.0000 
     15 C15         6.0900   55.2713   18.8548 C.2       1 UNK         0.0000 
     16 S16         7.2017   55.9600   20.0103 S.3       1 UNK         0.0000 
     17 C17         6.3485   55.1631   21.3108 C.ar      1 UNK         0.0000 
     18 N18         6.7067   55.2971   22.5912 N.ar      1 UNK         0.0000 
     19 C19         6.1397   55.5804   17.3704 C.3       1 UNK         0.0000 
     20 O20         5.2722   54.7018   16.6467 O.3       1 UNK         0.0000 
     21 C21         3.9502   54.4919   17.1543 C.3       1 UNK         0.0000 
     22 C22         4.0628   53.7800   18.5378 C.3       1 UNK         0.0000 
     23 C23         3.1752   55.8229   17.2868 C.3       1 UNK         0.0000 
     24 C24         3.3004   53.5264   16.1489 C.3       1 UNK         0.0000 
     25 N25         3.5096   52.8096   21.5788 N.pl3     1 UNK         0.0000 
     26 C26         3.8958   51.5002   21.0105 C.3       1 UNK         0.0000 
     27 C27         2.7290   50.6174   20.5171 C.3       1 UNK         0.0000 
     28 N28         1.7009   50.4972   21.6624 N.4       1 UNK         0.0000 
     29 C29         1.1728   51.9175   21.9599 C.3       1 UNK         0.0000 
     30 C30         2.3525   52.7426   22.4904 C.3       1 UNK         0.0000 
     31 C31         0.5425   49.5317   21.2901 C.3       1 UNK         0.0000 
     32 C32        -0.3044   49.1806   22.5273 C.2       1 UNK         0.0000 
     33 O33        -1.5258   49.1657   22.4354 O.2       1 UNK         0.0000 
     34 N34         0.3032   48.8946   23.6814 N.am      1 UNK         0.0000 
     35 H35         0.7170   55.4101   28.0718 H         1 UNK         0.0000 
     36 H36         1.6167   55.2503   29.5568 H         1 UNK         0.0000 
     37 H37         2.2713   56.2287   28.2424 H         1 UNK         0.0000 
     38 H38         2.3655   54.1121   26.8031 H         1 UNK         0.0000 
     39 H39         1.8679   53.1824   28.1726 H         1 UNK         0.0000 
     40 H40         4.7034   54.0751   30.2564 H         1 UNK         0.0000 
     41 H41         3.0010   53.7151   30.3014 H         1 UNK         0.0000 
     42 H42         4.3333   51.7221   30.9737 H         1 UNK         0.0000 
     43 H43         3.3752   51.3917   29.5312 H         1 UNK         0.0000 
     44 H44         5.1041   51.6977   29.3925 H         1 UNK         0.0000 
     45 H45         4.0764   55.3175   26.0348 H         1 UNK         0.0000 
     46 H46         4.2709   53.6123   25.6411 H         1 UNK         0.0000 
     47 H47         5.8703   56.6212   17.1829 H         1 UNK         0.0000 
     48 H48         7.1514   55.4524   16.9867 H         1 UNK         0.0000 
     49 H49         4.3506   52.7387   18.3859 H         1 UNK         0.0000 
     50 H50         3.0842   53.7486   19.0175 H         1 UNK         0.0000 
     51 H51         2.1413   55.6462   17.5803 H         1 UNK         0.0000 
     52 H52         3.6126   56.4865   18.0323 H         1 UNK         0.0000 
     53 H53         3.1613   56.3611   16.3389 H         1 UNK         0.0000 
     54 H54         2.2893   53.2531   16.4507 H         1 UNK         0.0000 
     55 H55         3.2405   53.9780   15.1567 H         1 UNK         0.0000 
     56 H56         3.8777   52.6063   16.0446 H         1 UNK         0.0000 
     57 H57         4.3544   50.9602   21.8374 H         1 UNK         0.0000 
     58 H58         4.6479   51.6011   20.2271 H         1 UNK         0.0000 
     59 H59         3.0880   49.6067   20.3157 H         1 UNK         0.0000 
     60 H60         2.2297   51.0169   19.6310 H         1 UNK         0.0000 
     61 H61         0.7258   52.3311   21.0526 H         1 UNK         0.0000 
     62 H62         0.4147   51.8293   22.7386 H         1 UNK         0.0000 
     63 H63         2.0096   53.7491   22.7316 H         1 UNK         0.0000 
     64 H64         2.7007   52.2596   23.4050 H         1 UNK         0.0000 
     65 H65         1.0002   48.6329   20.8752 H         1 UNK         0.0000 
     66 H66        -0.0443   50.0183   20.5079 H         1 UNK         0.0000 
     67 H67         1.2975   48.7294   23.7556 H         1 UNK         0.0000 
     68 H68        -0.2788   48.6881   24.4807 H         1 UNK         0.0000 
     69 H69         2.1586   50.1329   22.4871 H         1 UNK         0.0000 
@<TRIPOS>BOND
     1    1    2 1    
     2    1   35 1    
     3    1   36 1    
     4    1   37 1    
     5    2    3 1    
     6    2   38 1    
     7    2   39 1    
     8    3    4 1    
     9    3    6 am   BACKBONE|DICT|INTERRES
    10    4    5 1    
    11    4   40 1    
    12    4   41 1    
    13    5   42 1    
    14    5   43 1    
    15    5   44 1    
    16    6    7 2    
    17    6    8 1    
    18    8    9 1    
    19    8   45 1    
    20    8   46 1    
    21    9   10 1    
    22   10   18 ar   
    23   10   11 ar   
    24   11   12 ar   
    25   12   13 ar   
    26   12   25 1    
    27   13   17 ar   
    28   13   14 1    
    29   14   22 1    
    30   14   15 2    
    31   15   16 1    
    32   15   19 1    
    33   16   17 1    
    34   17   18 ar   
    35   19   20 1    
    36   19   47 1    
    37   19   48 1    
    38   20   21 1    
    39   21   22 1    
    40   21   23 1    
    41   21   24 1    
    42   22   49 1    
    43   22   50 1    
    44   23   51 1    
    45   23   52 1    
    46   23   53 1    
    47   24   54 1    
    48   24   55 1    
    49   24   56 1    
    50   25   30 1    
    51   25   26 1    
    52   26   27 1    
    53   26   57 1    
    54   26   58 1    
    55   27   28 1    
    56   27   59 1    
    57   27   60 1    
    58   28   29 1    
    59   28   31 1    
    60   28   69 1    
    61   29   30 1    
    62   29   61 1    
    63   29   62 1    
    64   30   63 1    
    65   30   64 1    
    66   31   32 1    
    67   31   65 1    
    68   31   66 1    
    69   32   33 2    
    70   32   34 am   BACKBONE|DICT|INTERRES
    71   34   67 1    
    72   34   68 1    
@<TRIPOS>SUBSTRUCTURE
     1 UNK         1 GROUP             0       ****    0 ROOT    
