@<TRIPOS>MOLECULE
ZINC02788867_2665
44   47    1
SMALL
USER_CHARGES


@<TRIPOS>ATOM
      1 C1          4.2649   54.6656   25.5391 C.3       1 UNK         0.0000 
      2 N2          3.0114   53.9336   25.5345 N.pl3     1 UNK         0.0000 
      3 C3          2.0761   53.8564   24.5418 C.ar      1 UNK         0.0000 
      4 C4          1.1039   53.0116   25.0447 C.ar      1 UNK         0.0000 
      5 C5          1.5431   52.6011   26.3181 C.ar      1 UNK         0.0000 
      6 N6          2.6906   53.1952   26.6022 N.2       1 UNK         0.0000 
      7 C7          0.9293   51.5673   27.2795 C.3       1 UNK         0.0000 
      8 H8          1.5046   50.6476   27.2176 H         1 UNK         0.0000 
      9 C9         -0.5297   51.1782   26.9806 C.ar      1 UNK         0.0000 
     10 C10        -1.2405   50.5800   25.9094 C.ar      1 UNK         0.0000 
     11 N11        -2.5404   50.5215   26.1699 N.2       1 UNK         0.0000 
     12 N12        -2.7081   50.9443   27.4319 N.pl3     1 UNK         0.0000 
     13 C13        -1.5033   51.3364   27.9423 C.ar      1 UNK         0.0000 
     14 O14        -1.3581   51.8048   29.2234 O.3       1 UNK         0.0000 
     15 C15        -0.0802   52.0971   29.5646 C.2       1 UNK         0.0000 
     16 C16         1.0143   51.9899   28.7697 C.2       1 UNK         0.0000 
     17 C17         2.3006   52.1970   29.3581 C.1       1 UNK         0.0000 
     18 N18         3.3194   52.3259   29.8944 N.1       1 UNK         0.0000 
     19 N19        -0.0951   52.4624   30.8822 N.pl3     1 UNK         0.0000 
     20 C20        -3.9755   50.9379   28.0549 C.ar      1 UNK         0.0000 
     21 C21        -5.1051   51.3835   27.3577 C.ar      1 UNK         0.0000 
     22 C22        -6.3470   51.3931   27.9888 C.ar      1 UNK         0.0000 
     23 C23        -6.4565   50.9529   29.3076 C.ar      1 UNK         0.0000 
     24 C24        -5.3372   50.4947   30.0000 C.ar      1 UNK         0.0000 
     25 C25        -4.0951   50.4881   29.3734 C.ar      1 UNK         0.0000 
     26 C26        -0.7271   50.0310   24.5773 C.3       1 UNK         0.0000 
     27 C27        -1.2172   48.5855   24.2883 C.3       1 UNK         0.0000 
     28 F28        -0.9323   47.7448   25.2801 F         1 UNK         0.0000 
     29 F29        -2.5347   48.5243   24.0821 F         1 UNK         0.0000 
     30 F30        -0.6397   48.0994   23.1891 F         1 UNK         0.0000 
     31 F31        -1.1028   50.8343   23.5772 F         1 UNK         0.0000 
     32 F32         0.6080   50.0292   24.5720 F         1 UNK         0.0000 
     33 H33         4.3388   55.2964   24.6519 H         1 UNK         0.0000 
     34 H34         5.0950   53.9556   25.5431 H         1 UNK         0.0000 
     35 H35         4.3228   55.2940   26.4292 H         1 UNK         0.0000 
     36 H36         2.1865   54.3892   23.6066 H         1 UNK         0.0000 
     37 H37         0.2026   52.7060   24.5377 H         1 UNK         0.0000 
     38 H38         0.7371   52.8231   31.3211 H         1 UNK         0.0000 
     39 H39        -0.8100   52.0982   31.5106 H         1 UNK         0.0000 
     40 H40        -5.0254   51.7300   26.3378 H         1 UNK         0.0000 
     41 H41        -7.2211   51.7359   27.4571 H         1 UNK         0.0000 
     42 H42        -7.4224   50.9523   29.7923 H         1 UNK         0.0000 
     43 H43        -5.4292   50.1366   31.0161 H         1 UNK         0.0000 
     44 H44        -3.2355   50.1141   29.9143 H         1 UNK         0.0000 
@<TRIPOS>BOND
     1    1    2 1    
     2    1   33 1    
     3    1   34 1    
     4    1   35 1    
     5    2    6 ar   
     6    2    3 ar   
     7    3    4 ar   
     8    3   36 1    
     9    4    5 ar   
    10    4   37 1    
    11    5    6 ar   
    12    5    7 1    
    13    7    8 1    
    14    7   16 1    
    15    7    9 1    
    16    9   13 ar   
    17    9   10 ar   
    18   10   11 ar   
    19   10   26 1    
    20   11   12 ar   
    21   12   13 ar   
    22   12   20 1    
    23   13   14 1    
    24   14   15 1    
    25   15   16 2    
    26   15   19 1    
    27   16   17 1    
    28   17   18 3    
    29   19   38 1    
    30   19   39 1    
    31   20   25 ar   
    32   20   21 ar   
    33   21   22 ar   
    34   21   40 1    
    35   22   23 ar   
    36   22   41 1    
    37   23   24 ar   
    38   23   42 1    
    39   24   25 ar   
    40   24   43 1    
    41   25   44 1    
    42   26   27 1    
    43   26   31 1    
    44   26   32 1    
    45   27   28 1    
    46   27   29 1    
    47   27   30 1    
@<TRIPOS>SUBSTRUCTURE
     1 UNK         1 GROUP             0       ****    0 ROOT    
