@<TRIPOS>MOLECULE
ZINC08979930_666
56   59    1
SMALL
USER_CHARGES


@<TRIPOS>ATOM
      1 C1          5.3344   54.7952   17.5486 C.3       1 UNK         0.0000 
      2 C2          6.0596   55.0277   18.8606 C.ar      1 UNK         0.0000 
      3 C3          7.3433   55.5784   18.8728 C.ar      1 UNK         0.0000 
      4 C4          7.9993   55.7979   20.0827 C.ar      1 UNK         0.0000 
      5 C5          7.3749   55.4733   21.2865 C.ar      1 UNK         0.0000 
      6 C6          6.0939   54.8963   21.2847 C.ar      1 UNK         0.0000 
      7 C7          5.4388   54.6947   20.0665 C.ar      1 UNK         0.0000 
      8 N8          5.4047   54.4967   22.4446 N.am      1 UNK         0.0000 
      9 C9          5.9028   54.2760   23.6766 C.2       1 UNK         0.0000 
     10 O10         7.0979   54.1329   23.9316 O.2       1 UNK         0.0000 
     11 N11         4.9087   54.2709   24.5866 N.am      1 UNK         0.0000 
     12 C12         5.0290   54.2792   25.9710 C.2       1 UNK         0.0000 
     13 N13         3.9731   54.1405   26.7320 N.2       1 UNK         0.0000 
     14 C14         4.2721   54.0666   28.0217 C.2       1 UNK         0.0000 
     15 C15         5.6106   54.3491   28.3128 C.2       1 UNK         0.0000 
     16 S16         6.5216   54.4976   26.8466 S.3       1 UNK         0.0000 
     17 C17         3.2334   53.8725   29.0238 C.2       1 UNK         0.0000 
     18 O18         3.3341   54.4959   30.0816 O.2       1 UNK         0.0000 
     19 N19         2.1973   53.0089   28.7939 N.am      1 UNK         0.0000 
     20 C20         2.1457   52.0128   27.7177 C.3       1 UNK         0.0000 
     21 C21         0.7873   52.0975   27.0051 C.3       1 UNK         0.0000 
     22 N22        -0.3820   52.0165   27.8905 N.pl3     1 UNK         0.0000 
     23 C23        -0.2460   52.8699   29.0858 C.3       1 UNK         0.0000 
     24 C24         1.1285   52.8550   29.7934 C.3       1 UNK         0.0000 
     25 C25        -1.6467   51.7140   27.3853 C.ar      1 UNK         0.0000 
     26 C26        -2.6730   51.2964   28.2422 C.ar      1 UNK         0.0000 
     27 C27        -3.9440   50.9969   27.7534 C.ar      1 UNK         0.0000 
     28 C28        -4.2168   51.1269   26.3943 C.ar      1 UNK         0.0000 
     29 C29        -3.2147   51.5477   25.5132 C.ar      1 UNK         0.0000 
     30 C30        -1.9402   51.8298   26.0171 C.ar      1 UNK         0.0000 
     31 C31        -3.4797   51.7105   24.0197 C.3       1 UNK         0.0000 
     32 F32        -3.2968   52.9874   23.6816 F         1 UNK         0.0000 
     33 F33        -4.7213   51.3562   23.6831 F         1 UNK         0.0000 
     34 F34        -2.6286   50.9587   23.3209 F         1 UNK         0.0000 
     35 H35         5.7827   55.3607   16.7312 H         1 UNK         0.0000 
     36 H36         5.3372   53.7349   17.2945 H         1 UNK         0.0000 
     37 H37         4.2961   55.1175   17.6300 H         1 UNK         0.0000 
     38 H38         7.8364   55.8356   17.9464 H         1 UNK         0.0000 
     39 H39         8.9946   56.2199   20.0888 H         1 UNK         0.0000 
     40 H40         7.9050   55.6638   22.2074 H         1 UNK         0.0000 
     41 H41         4.4487   54.2610   20.0466 H         1 UNK         0.0000 
     42 H42         4.4127   54.3719   22.3191 H         1 UNK         0.0000 
     43 H43         3.9641   54.3063   24.2372 H         1 UNK         0.0000 
     44 H44         6.0966   54.4455   29.2722 H         1 UNK         0.0000 
     45 H45         2.2452   51.0192   28.1554 H         1 UNK         0.0000 
     46 H46         2.9480   52.0967   26.9974 H         1 UNK         0.0000 
     47 H47         0.7403   51.3135   26.2487 H         1 UNK         0.0000 
     48 H48         0.7328   53.0678   26.5099 H         1 UNK         0.0000 
     49 H49        -0.3958   53.8879   28.7226 H         1 UNK         0.0000 
     50 H50        -1.0160   52.6509   29.8240 H         1 UNK         0.0000 
     51 H51         1.1438   53.6215   30.5692 H         1 UNK         0.0000 
     52 H52         1.2484   51.8911   30.2895 H         1 UNK         0.0000 
     53 H53        -2.4809   51.1491   29.2947 H         1 UNK         0.0000 
     54 H54        -4.7108   50.6503   28.4308 H         1 UNK         0.0000 
     55 H55        -5.2081   50.8912   26.0331 H         1 UNK         0.0000 
     56 H56        -1.1793   52.1603   25.3261 H         1 UNK         0.0000 
@<TRIPOS>BOND
     1    1    2 1    
     2    1   35 1    
     3    1   36 1    
     4    1   37 1    
     5    2    7 ar   
     6    2    3 ar   
     7    3    4 ar   
     8    3   38 1    
     9    4    5 ar   
    10    4   39 1    
    11    5    6 ar   
    12    5   40 1    
    13    6    7 ar   
    14    6    8 1    
    15    7   41 1    
    16    8    9 am   BACKBONE|DICT|INTERRES
    17    8   42 1    
    18    9   10 2    
    19    9   11 am   BACKBONE|DICT|INTERRES
    20   11   12 am   BACKBONE|DICT|INTERRES
    21   11   43 1    
    22   12   16 1    
    23   12   13 2    
    24   13   14 1    
    25   14   15 2    
    26   14   17 1    
    27   15   16 1    
    28   15   44 1    
    29   17   18 2    
    30   17   19 am   BACKBONE|DICT|INTERRES
    31   19   24 1    
    32   19   20 1    
    33   20   21 1    
    34   20   45 1    
    35   20   46 1    
    36   21   22 1    
    37   21   47 1    
    38   21   48 1    
    39   22   23 1    
    40   22   25 1    
    41   23   24 1    
    42   23   49 1    
    43   23   50 1    
    44   24   51 1    
    45   24   52 1    
    46   25   30 ar   
    47   25   26 ar   
    48   26   27 ar   
    49   26   53 1    
    50   27   28 ar   
    51   27   54 1    
    52   28   29 ar   
    53   28   55 1    
    54   29   30 ar   
    55   29   31 1    
    56   30   56 1    
    57   31   32 1    
    58   31   33 1    
    59   31   34 1    
@<TRIPOS>SUBSTRUCTURE
     1 UNK         1 GROUP             0       ****    0 ROOT    
