ZINC13977395_3712
                    3D
 Schrodinger Suite 2024-2.
 49 50  0  0  1  0            999 V2000
   -1.1916   51.1822   24.8214 C   0  0  0  0  0  0
   -0.0523   51.3602   23.8282 C   0  0  0  0  0  0
    0.2450   52.6348   23.3447 C   0  0  0  0  0  0
    1.2886   52.8229   22.4379 C   0  0  0  0  0  0
    2.0700   51.7385   22.0132 C   0  0  0  0  0  0
    1.7702   50.4599   22.5075 C   0  0  0  0  0  0
    0.7079   50.2658   23.3963 C   0  0  0  0  0  0
    0.3043   48.4997   24.0004 Br  0  0  0  0  0  0
    3.2527   51.9468   21.0984 C   0  0  0  0  0  0
    4.2850   51.2967   21.2730 O   0  0  0  0  0  0
    3.1045   52.8901   20.1348 N   0  0  0  0  0  0
    4.1957   53.2787   19.3213 N   0  0  0  0  0  0
    5.2739   54.0020   19.7582 C   0  0  0  0  0  0
    6.3547   54.5187   18.5990 S   0  0  0  0  0  0
    5.3718   54.1647   21.1197 N   0  0  0  0  0  0
    6.1700   54.8993   21.9314 C   0  0  0  0  0  0
    7.0332   55.6965   21.5707 O   0  0  0  0  0  0
    5.9047   54.6678   23.3338 C   0  0  0  0  0  0
    4.6551   54.4942   23.8352 C   0  0  0  0  0  0
    4.2799   54.2069   25.2330 C   0  0  0  0  0  0
    2.9350   54.0025   25.5406 C   0  0  0  0  0  0
    2.5339   53.6987   26.8383 C   0  0  0  0  0  0
    3.4775   53.5952   27.8711 C   0  0  0  0  0  0
    4.8355   53.7913   27.5745 C   0  0  0  0  0  0
    5.2221   54.0969   26.2587 C   0  0  0  0  0  0
    5.7325   53.6633   28.6147 O   0  0  0  0  0  0
    7.1267   53.7324   28.3455 C   0  0  0  0  0  0
    3.1441   53.3032   29.1846 O   0  0  0  0  0  0
    1.7857   53.0339   29.5186 C   0  0  0  0  0  0
   -1.6507   52.1281   25.1090 H   0  0  0  0  0  0
   -1.9634   50.5365   24.4001 H   0  0  0  0  0  0
   -0.8250   50.6981   25.7288 H   0  0  0  0  0  0
   -0.3280   53.4866   23.6813 H   0  0  0  0  0  0
    1.4990   53.8259   22.0914 H   0  0  0  0  0  0
    2.3612   49.6046   22.2073 H   0  0  0  0  0  0
    2.4204   53.6327   20.2013 H   0  0  0  0  0  0
    4.2889   52.6772   18.5114 H   0  0  0  0  0  0
    4.7882   53.5256   21.6312 H   0  0  0  0  0  0
    6.7868   54.6479   23.9560 H   0  0  0  0  0  0
    3.8148   54.5605   23.1576 H   0  0  0  0  0  0
    2.1805   54.0809   24.7721 H   0  0  0  0  0  0
    1.4809   53.5473   27.0195 H   0  0  0  0  0  0
    6.2635   54.2348   26.0201 H   0  0  0  0  0  0
    7.6825   53.6966   29.2813 H   0  0  0  0  0  0
    7.4531   52.8942   27.7271 H   0  0  0  0  0  0
    7.4030   54.6643   27.8505 H   0  0  0  0  0  0
    1.7134   52.8037   30.5819 H   0  0  0  0  0  0
    1.4046   52.1720   28.9685 H   0  0  0  0  0  0
    1.1475   53.8963   29.3231 H   0  0  0  0  0  0
  1  2  1  0  0  0
  1 30  1  0  0  0
  1 31  1  0  0  0
  1 32  1  0  0  0
  2  7  2  0  0  0
  2  3  1  0  0  0
  3  4  2  0  0  0
  3 33  1  0  0  0
  4  5  1  0  0  0
  4 34  1  0  0  0
  5  6  2  0  0  0
  5  9  1  0  0  0
  6  7  1  0  0  0
  6 35  1  0  0  0
  7  8  1  0  0  0
  9 10  2  0  0  0
  9 11  1  0  0  0
 11 12  1  0  0  0
 11 36  1  0  0  0
 12 13  1  0  0  0
 12 37  1  0  0  0
 13 14  2  0  0  0
 13 15  1  0  0  0
 15 16  1  0  0  0
 15 38  1  0  0  0
 16 17  2  0  0  0
 16 18  1  0  0  0
 18 19  2  0  0  0
 18 39  1  0  0  0
 19 20  1  0  0  0
 19 40  1  0  0  0
 20 25  2  0  0  0
 20 21  1  0  0  0
 21 22  2  0  0  0
 21 41  1  0  0  0
 22 23  1  0  0  0
 22 42  1  0  0  0
 23 24  2  0  0  0
 23 28  1  0  0  0
 24 25  1  0  0  0
 24 26  1  0  0  0
 25 43  1  0  0  0
 26 27  1  0  0  0
 27 44  1  0  0  0
 27 45  1  0  0  0
 27 46  1  0  0  0
 28 29  1  0  0  0
 29 47  1  0  0  0
 29 48  1  0  0  0
 29 49  1  0  0  0
M  END
> <i_i_glide_confnum>
135

> <i_i_glide_lignum>
3713

> <i_i_glide_posenum>
143

> <i_i_glide_rotatable_bonds>
10

> <i_m_Source_File_Index>
3242

> <b_m_subgroup_collapsed>
0

> <r_i_docking_score>
-5.73809

> <r_i_glide_ecoul>
-5.19499

> <r_i_glide_eff_state_penalty>
0

> <r_i_glide_einternal>
5.17038

> <r_i_glide_emodel>
-65.2168

> <r_i_glide_energy>
-49.5724

> <r_i_glide_erotb>
0.708438

> <r_i_glide_esite>
-0.0631776

> <r_i_glide_evdw>
-44.3774

> <r_i_glide_gscore>
-5.73809

> <r_i_glide_hbond>
-0.32

> <r_i_glide_ligand_efficiency>
-0.197865

> <r_i_glide_ligand_efficiency_ln>
-1.31388

> <r_i_glide_ligand_efficiency_sa>
-0.607904

> <r_i_glide_lipo>
-2.49836

> <r_i_glide_metal>
0

> <r_i_glide_rewards>
-0.566866

> <s_i_glide_gridfile>
wee1_glide-grid

> <s_m_Source_File>
wee1_decoys_glide_SP.sdf

> <s_m_Source_Path>
/Users/zhangxujun/Desktop

> <s_m_entry_id>
3517

> <s_m_entry_name>
wee1_decoys_glide_SP.3242

> <s_m_subgroup_title>
wee1_decoys_glide_SP

> <s_m_subgroupid>
wee1_decoys_glide_SP


$$$$
