@<TRIPOS>MOLECULE
ZINC50892606_4747
40   42    1
SMALL
USER_CHARGES


@<TRIPOS>ATOM
      1 C1          4.8322   54.5295   26.7241 C.ar      1 UNK         0.0000 
      2 C2          5.9975   54.9716   26.0950 C.ar      1 UNK         0.0000 
      3 C3          6.0419   54.9554   24.7061 C.ar      1 UNK         0.0000 
      4 C4          4.9977   54.4953   23.9385 C.ar      1 UNK         0.0000 
      5 C5          3.8283   54.0792   24.5610 C.ar      1 UNK         0.0000 
      6 C6          3.7262   54.0987   25.9647 C.ar      1 UNK         0.0000 
      7 C7          2.4494   53.6169   26.6058 C.2       1 UNK         0.0000 
      8 O8          1.5030   53.2983   25.8881 O.2       1 UNK         0.0000 
      9 N9          2.4318   53.4957   27.9526 N.am      1 UNK         0.0000 
     10 C10         1.4562   52.7511   28.7918 C.3       1 UNK         0.0000 
     11 C11         0.0046   53.3054   28.5653 C.3       1 UNK         0.0000 
     12 C12        -0.8954   52.0961   28.2906 C.3       1 UNK         0.0000 
     13 C13         0.0120   51.1242   27.5603 C.3       1 UNK         0.0000 
     14 C14         1.3469   51.2963   28.2822 C.3       1 UNK         0.0000 
     15 C15         1.9643   52.7364   30.2940 C.2       1 UNK         0.0000 
     16 N16         3.1710   52.5231   30.6771 N.2       1 UNK         0.0000 
     17 O17         4.1033   52.1697   29.6843 O.3       1 UNK         0.0000 
     18 N18         0.9681   52.8964   31.2323 N.pl3     1 UNK         0.0000 
     19 C19         5.4237   54.4952   22.5073 C.3       1 UNK         0.0000 
     20 C20         6.7789   55.2091   22.5801 C.3       1 UNK         0.0000 
     21 O21         7.1017   55.3774   23.9621 O.3       1 UNK         0.0000 
     22 H22         4.8048   54.5487   27.8028 H         1 UNK         0.0000 
     23 H23         6.8280   55.3215   26.6880 H         1 UNK         0.0000 
     24 H24         3.0102   53.7181   23.9551 H         1 UNK         0.0000 
     25 H25         3.2747   53.7464   28.4458 H         1 UNK         0.0000 
     26 H26        -0.0439   53.9398   27.6823 H         1 UNK         0.0000 
     27 H27        -0.3798   53.9336   29.3683 H         1 UNK         0.0000 
     28 H28        -1.7634   52.3486   27.6820 H         1 UNK         0.0000 
     29 H29        -1.2520   51.6524   29.2229 H         1 UNK         0.0000 
     30 H30         0.0905   51.3795   26.5053 H         1 UNK         0.0000 
     31 H31        -0.3515   50.0974   27.6030 H         1 UNK         0.0000 
     32 H32         1.3455   50.6011   29.1199 H         1 UNK         0.0000 
     33 H33         2.1960   50.9802   27.6815 H         1 UNK         0.0000 
     34 H34         4.9213   52.0966   30.1835 H         1 UNK         0.0000 
     35 H35         1.2017   52.8199   32.2118 H         1 UNK         0.0000 
     36 H36         0.0053   52.7284   30.9776 H         1 UNK         0.0000 
     37 H37         5.5565   53.4816   22.1282 H         1 UNK         0.0000 
     38 H38         4.7381   55.0136   21.8368 H         1 UNK         0.0000 
     39 H39         6.7013   56.1892   22.1105 H         1 UNK         0.0000 
     40 H40         7.5623   54.6446   22.0744 H         1 UNK         0.0000 
@<TRIPOS>BOND
     1    1    6 ar   
     2    1    2 ar   
     3    1   22 1    
     4    2    3 ar   
     5    2   23 1    
     6    3   21 1    
     7    3    4 ar   
     8    4    5 ar   
     9    4   19 1    
    10    5    6 ar   
    11    5   24 1    
    12    6    7 1    
    13    7    8 2    
    14    7    9 am   BACKBONE|DICT|INTERRES
    15    9   10 1    
    16    9   25 1    
    17   10   14 1    
    18   10   11 1    
    19   10   15 1    
    20   11   12 1    
    21   11   26 1    
    22   11   27 1    
    23   12   13 1    
    24   12   28 1    
    25   12   29 1    
    26   13   14 1    
    27   13   30 1    
    28   13   31 1    
    29   14   32 1    
    30   14   33 1    
    31   15   16 2    
    32   15   18 1    
    33   16   17 1    
    34   17   34 1    
    35   18   35 1    
    36   18   36 1    
    37   19   20 1    
    38   19   37 1    
    39   19   38 1    
    40   20   21 1    
    41   20   39 1    
    42   20   40 1    
@<TRIPOS>SUBSTRUCTURE
     1 UNK         1 GROUP             0       ****    0 ROOT    
