@<TRIPOS>MOLECULE
ZINC09692227_5380
65   68    1
SMALL
USER_CHARGES


@<TRIPOS>ATOM
      1 C1          8.2784   55.8499   19.8409 C.3       1 UNK         0.0000 
      2 C2          8.1863   56.6250   18.5113 C.3       1 UNK         0.0000 
      3 C3          7.0619   57.6728   18.4820 C.2       1 UNK         0.0000 
      4 O4          7.1045   58.6092   19.2817 O.2       1 UNK         0.0000 
      5 N5          6.0808   57.5694   17.5560 N.am      1 UNK         0.0000 
      6 C6          5.3994   58.8014   17.1417 C.3       1 UNK         0.0000 
      7 C7          4.1045   58.3631   16.4751 C.3       1 UNK         0.0000 
      8 C8          3.9958   56.9182   16.8756 C.ar      1 UNK         0.0000 
      9 C9          5.1956   56.4845   17.4421 C.ar      1 UNK         0.0000 
     10 C10         5.3972   55.1211   17.6917 C.ar      1 UNK         0.0000 
     11 C11         4.3572   54.2195   17.4833 C.ar      1 UNK         0.0000 
     12 C12         3.1234   54.6691   17.0060 C.ar      1 UNK         0.0000 
     13 C13         2.9557   56.0142   16.6626 C.ar      1 UNK         0.0000 
     14 S14         1.7633   53.5233   16.8783 S.o2      1 UNK         0.0000 
     15 O15         2.1738   52.4430   15.9757 O.2       1 UNK         0.0000 
     16 O16         0.5530   54.3102   16.6182 O.2       1 UNK         0.0000 
     17 N17         1.6139   52.8783   18.5030 N.pl3     1 UNK         0.0000 
     18 C18         2.4114   51.6824   18.9367 C.3       1 UNK         0.0000 
     19 H19         3.1641   51.4940   18.1707 H         1 UNK         0.0000 
     20 C20         1.5258   50.4040   18.9926 C.3       1 UNK         0.0000 
     21 C21         0.4867   50.2332   20.1384 C.3       1 UNK         0.0000 
     22 C22         1.1027   49.8301   21.4961 C.3       1 UNK         0.0000 
     23 C23        -0.5257   51.3896   20.2594 C.3       1 UNK         0.0000 
     24 C24         3.1930   51.9702   20.2519 C.2       1 UNK         0.0000 
     25 O25         4.2075   51.3077   20.4818 O.2       1 UNK         0.0000 
     26 N26         2.7069   52.8978   21.1040 N.am      1 UNK         0.0000 
     27 C27         3.3578   53.3502   22.2344 C.2       1 UNK         0.0000 
     28 N28         2.7055   53.5822   23.3353 N.2       1 UNK         0.0000 
     29 C29         3.5567   53.9356   24.3348 C.ar      1 UNK         0.0000 
     30 C30         3.1819   54.1002   25.6735 C.ar      1 UNK         0.0000 
     31 C31         4.1726   54.4226   26.6025 C.ar      1 UNK         0.0000 
     32 C32         5.5083   54.5875   26.2231 C.ar      1 UNK         0.0000 
     33 C33         5.9000   54.4452   24.8897 C.ar      1 UNK         0.0000 
     34 C34         4.9179   54.0962   23.9545 C.ar      1 UNK         0.0000 
     35 S35         5.0827   53.7050   22.2517 S.3       1 UNK         0.0000 
     36 C36         6.5547   54.8784   27.2814 C.3       1 UNK         0.0000 
     37 H37         9.0286   55.0625   19.7634 H         1 UNK         0.0000 
     38 H38         8.6060   56.4950   20.6552 H         1 UNK         0.0000 
     39 H39         7.3376   55.3726   20.1169 H         1 UNK         0.0000 
     40 H40         8.1057   55.9408   17.6667 H         1 UNK         0.0000 
     41 H41         9.1250   57.1560   18.3465 H         1 UNK         0.0000 
     42 H42         5.1044   59.2881   18.0732 H         1 UNK         0.0000 
     43 H43         5.9942   59.5595   16.6306 H         1 UNK         0.0000 
     44 H44         4.2129   58.4500   15.3938 H         1 UNK         0.0000 
     45 H45         3.2726   59.0100   16.7600 H         1 UNK         0.0000 
     46 H46         6.3270   54.7310   18.0706 H         1 UNK         0.0000 
     47 H47         4.5189   53.1758   17.7078 H         1 UNK         0.0000 
     48 H48         2.0212   56.3521   16.2411 H         1 UNK         0.0000 
     49 H49         1.4546   53.6065   19.2065 H         1 UNK         0.0000 
     50 H50         0.9953   50.3394   18.0405 H         1 UNK         0.0000 
     51 H51         2.1845   49.5340   18.9818 H         1 UNK         0.0000 
     52 H52        -0.1021   49.3680   19.8310 H         1 UNK         0.0000 
     53 H53         1.0437   50.6339   22.2306 H         1 UNK         0.0000 
     54 H54         0.5804   48.9709   21.9180 H         1 UNK         0.0000 
     55 H55         2.1525   49.5482   21.4057 H         1 UNK         0.0000 
     56 H56        -0.2023   52.1446   20.9781 H         1 UNK         0.0000 
     57 H57        -0.6860   51.8872   19.3043 H         1 UNK         0.0000 
     58 H58        -1.4955   51.0163   20.5870 H         1 UNK         0.0000 
     59 H59         1.8046   53.3100   20.9238 H         1 UNK         0.0000 
     60 H60         2.1561   53.9652   25.9823 H         1 UNK         0.0000 
     61 H61         3.8941   54.5373   27.6406 H         1 UNK         0.0000 
     62 H62         6.9345   54.5504   24.5936 H         1 UNK         0.0000 
     63 H63         7.5050   54.4106   27.0277 H         1 UNK         0.0000 
     64 H64         6.7043   55.9502   27.3857 H         1 UNK         0.0000 
     65 H65         6.2641   54.4734   28.2527 H         1 UNK         0.0000 
@<TRIPOS>BOND
     1    1    2 1    
     2    1   37 1    
     3    1   38 1    
     4    1   39 1    
     5    2    3 1    
     6    2   40 1    
     7    2   41 1    
     8    3    4 2    
     9    3    5 am   BACKBONE|DICT|INTERRES
    10    5    9 1    
    11    5    6 1    
    12    6    7 1    
    13    6   42 1    
    14    6   43 1    
    15    7    8 1    
    16    7   44 1    
    17    7   45 1    
    18    8   13 ar   
    19    8    9 ar   
    20    9   10 ar   
    21   10   11 ar   
    22   10   46 1    
    23   11   12 ar   
    24   11   47 1    
    25   12   13 ar   
    26   12   14 1    
    27   13   48 1    
    28   14   15 2    
    29   14   16 2    
    30   14   17 1    
    31   17   18 1    
    32   17   49 1    
    33   18   19 1    
    34   18   20 1    
    35   18   24 1    
    36   20   21 1    
    37   20   50 1    
    38   20   51 1    
    39   21   22 1    
    40   21   23 1    
    41   21   52 1    
    42   22   53 1    
    43   22   54 1    
    44   22   55 1    
    45   23   56 1    
    46   23   57 1    
    47   23   58 1    
    48   24   25 2    
    49   24   26 am   BACKBONE|DICT|INTERRES
    50   26   27 am   BACKBONE|DICT|INTERRES
    51   26   59 1    
    52   27   35 1    
    53   27   28 2    
    54   28   29 1    
    55   29   34 ar   
    56   29   30 ar   
    57   30   31 ar   
    58   30   60 1    
    59   31   32 ar   
    60   31   61 1    
    61   32   33 ar   
    62   32   36 1    
    63   33   34 ar   
    64   33   62 1    
    65   34   35 1    
    66   36   63 1    
    67   36   64 1    
    68   36   65 1    
@<TRIPOS>SUBSTRUCTURE
     1 UNK         1 GROUP             0       ****    0 ROOT    
