ZINC31045561_730
                    3D
 Schrodinger Suite 2024-2.
 50 53  0  0  1  0            999 V2000
    2.3492   53.6638   28.6386 C   0  0  0  0  0  0
    1.7690   53.1214   29.7829 C   0  0  0  0  0  0
    2.5473   52.3707   30.6592 C   0  0  0  0  0  0
    3.8953   52.1501   30.3955 C   0  0  0  0  0  0
    4.4644   52.6819   29.2437 C   0  0  0  0  0  0
    3.7085   53.4529   28.3565 C   0  0  0  0  0  0
    4.3494   54.0477   27.1301 C   0  0  0  0  0  0
    5.5851   53.7708   26.7308 N   0  0  0  0  0  0
    5.6932   54.4891   25.6428 C   0  0  0  0  0  0
    4.5993   55.2418   25.3873 O   0  0  0  0  0  0
    3.6890   54.8963   26.3743 N   0  0  0  0  0  0
    6.8315   54.5517   24.6338 C   0  0  0  0  0  0
    6.2184   54.8103   23.2312 N   0  3  1  0  0  0
    7.2599   55.2848   22.1936 C   0  0  0  0  0  0
    6.5144   55.6707   20.8971 C   0  0  0  0  0  0
    5.6237   54.5405   20.3298 C   0  0  0  0  0  0
    4.6864   53.9700   21.4249 C   0  0  2  0  0  0
    3.9100   54.7012   21.6619 H   0  0  0  0  0  0
    5.4369   53.5755   22.7230 C   0  0  0  0  0  0
    3.9675   52.7234   20.8692 C   0  0  0  0  0  0
    4.5503   51.6358   20.8814 O   0  0  0  0  0  0
    2.7047   52.8926   20.4226 N   0  0  0  0  0  0
    1.8809   51.8616   19.9403 C   0  0  0  0  0  0
    2.3127   51.0007   18.9228 C   0  0  0  0  0  0
    1.4967   49.9606   18.4823 C   0  0  0  0  0  0
    0.2364   49.7782   19.0502 C   0  0  0  0  0  0
   -0.2078   50.6408   20.0531 C   0  0  0  0  0  0
    0.6100   51.6803   20.4998 C   0  0  0  0  0  0
    0.1674   52.4925   21.4870 F   0  0  0  0  0  0
   -0.8748   48.3503   18.4608 Br  0  0  0  0  0  0
    1.8408   51.6978   32.0815 Cl  0  0  0  0  0  0
    1.7289   54.2471   27.9732 H   0  0  0  0  0  0
    0.7205   53.2823   29.9890 H   0  0  0  0  0  0
    4.5019   51.5786   31.0827 H   0  0  0  0  0  0
    5.5051   52.4980   29.0416 H   0  0  0  0  0  0
    7.4173   53.6351   24.5458 H   0  0  0  0  0  0
    7.5024   55.3898   24.8241 H   0  0  0  0  0  0
    7.9965   54.4967   22.0623 H   0  0  0  0  0  0
    7.7620   56.1527   22.6171 H   0  0  0  0  0  0
    7.2429   55.9685   20.1406 H   0  0  0  0  0  0
    5.9052   56.5567   21.0816 H   0  0  0  0  0  0
    6.3044   53.7724   19.9600 H   0  0  0  0  0  0
    5.0506   54.9642   19.5013 H   0  0  0  0  0  0
    4.7238   53.3008   23.5032 H   0  0  0  0  0  0
    6.1794   52.7858   22.5874 H   0  0  0  0  0  0
    2.2736   53.8118   20.4807 H   0  0  0  0  0  0
    3.2896   51.1258   18.4770 H   0  0  0  0  0  0
    1.8555   49.2987   17.7053 H   0  0  0  0  0  0
   -1.1828   50.4986   20.4943 H   0  0  0  0  0  0
    5.5510   55.5588   23.3670 H   0  0  0  0  0  0
  1  6  2  0  0  0
  1  2  1  0  0  0
  1 32  1  0  0  0
  2  3  2  0  0  0
  2 33  1  0  0  0
  3  4  1  0  0  0
  3 31  1  0  0  0
  4  5  2  0  0  0
  4 34  1  0  0  0
  5  6  1  0  0  0
  5 35  1  0  0  0
  6  7  1  0  0  0
  7 11  2  0  0  0
  7  8  1  0  0  0
  8  9  2  0  0  0
  9 10  1  0  0  0
  9 12  1  0  0  0
 10 11  1  0  0  0
 12 13  1  0  0  0
 12 36  1  0  0  0
 12 37  1  0  0  0
 13 19  1  0  0  0
 13 14  1  0  0  0
 13 50  1  0  0  0
 14 15  1  0  0  0
 14 38  1  0  0  0
 14 39  1  0  0  0
 15 16  1  0  0  0
 15 40  1  0  0  0
 15 41  1  0  0  0
 16 17  1  0  0  0
 16 42  1  0  0  0
 16 43  1  0  0  0
 17 18  1  0  0  0
 17 19  1  0  0  0
 17 20  1  0  0  0
 19 44  1  0  0  0
 19 45  1  0  0  0
 20 21  2  0  0  0
 20 22  1  0  0  0
 22 23  1  0  0  0
 22 46  1  0  0  0
 23 28  2  0  0  0
 23 24  1  0  0  0
 24 25  2  0  0  0
 24 47  1  0  0  0
 25 26  1  0  0  0
 25 48  1  0  0  0
 26 27  2  0  0  0
 26 30  1  0  0  0
 27 28  1  0  0  0
 27 49  1  0  0  0
 28 29  1  0  0  0
M  CHG  1  13   1
M  END
> <i_i_glide_confnum>
17

> <i_i_glide_lignum>
731

> <i_i_glide_posenum>
139

> <i_i_glide_rotatable_bonds>
6

> <i_m_Source_File_Index>
2574

> <b_m_subgroup_collapsed>
0

> <r_i_docking_score>
-5.01538

> <r_i_glide_ecoul>
-3.59815

> <r_i_glide_eff_state_penalty>
0

> <r_i_glide_einternal>
8.01949

> <r_i_glide_emodel>
-54.1045

> <r_i_glide_energy>
-42.7987

> <r_i_glide_erotb>
0.499545

> <r_i_glide_esite>
-0.0338081

> <r_i_glide_evdw>
-39.2006

> <r_i_glide_gscore>
-5.01538

> <r_i_glide_hbond>
-0.32

> <r_i_glide_ligand_efficiency>
-0.167179

> <r_i_glide_ligand_efficiency_ln>
-1.13955

> <r_i_glide_ligand_efficiency_sa>
-0.519465

> <r_i_glide_lipo>
-2.15286

> <r_i_glide_metal>
0

> <r_i_glide_rewards>
-0.508499

> <s_i_glide_gridfile>
wee1_glide-grid

> <s_m_Source_File>
wee1_decoys_glide_SP.sdf

> <s_m_Source_Path>
/Users/zhangxujun/Desktop

> <s_m_entry_id>
2849

> <s_m_entry_name>
wee1_decoys_glide_SP.2574

> <s_m_subgroup_title>
wee1_decoys_glide_SP

> <s_m_subgroupid>
wee1_decoys_glide_SP


$$$$
