ZINC02292353_4464
                    3D
 Schrodinger Suite 2024-2.
 55 60  0  0  1  0            999 V2000
   -0.9999   51.5875   27.4837 C   0  0  0  0  0  0
    0.2537   51.9496   27.0114 C   0  0  0  0  0  0
    0.4847   52.0708   25.6443 C   0  0  0  0  0  0
   -0.5550   51.8296   24.6946 C   0  0  0  0  0  0
   -1.8433   51.4582   25.1992 C   0  0  0  0  0  0
   -2.0422   51.3418   26.5976 C   0  0  0  0  0  0
   -2.8971   51.2015   24.2931 C   0  0  0  0  0  0
   -2.6926   51.3092   22.9253 C   0  0  0  0  0  0
   -1.4512   51.6754   22.4220 C   0  0  0  0  0  0
   -0.3656   51.9300   23.2724 C   0  0  0  0  0  0
    0.9015   52.3310   22.7992 N   0  0  0  0  0  0
    1.4101   52.3783   21.5490 C   0  0  0  0  0  0
    0.8399   51.9729   20.5351 O   0  0  0  0  0  0
    2.7354   52.9778   21.5001 C   0  0  0  0  0  0
    3.5350   53.5342   22.5544 C   0  0  0  0  0  0
    4.7677   53.9748   22.0222 C   0  0  0  0  0  0
    5.7537   54.4506   22.7962 N   0  0  0  0  0  0
    5.5473   54.4962   24.1440 C   0  0  0  0  0  0
    6.5685   54.9226   25.0193 C   0  0  0  0  0  0
    6.3586   54.9034   26.3995 C   0  0  0  0  0  0
    5.1358   54.4972   26.9279 C   0  0  0  0  0  0
    4.0937   54.1121   26.0894 C   0  0  0  0  0  0
    4.2942   54.0965   24.6899 C   0  0  0  0  0  0
    3.3087   53.6597   23.8671 N   0  0  0  0  0  0
    4.7237   53.8113   20.6406 N   0  0  0  0  0  0
    3.5045   53.1868   20.3405 C   0  0  0  0  0  0
    3.1622   52.8966   19.0430 N   0  0  0  0  0  0
    5.7196   54.2534   19.7182 C   0  0  0  0  0  0
    6.3829   55.4717   19.9341 C   0  0  0  0  0  0
    7.3966   55.8877   19.0736 C   0  0  0  0  0  0
    7.7557   55.0969   17.9828 C   0  0  0  0  0  0
    7.1079   53.8768   17.7451 C   0  0  0  0  0  0
    6.1034   53.4587   18.6273 C   0  0  0  0  0  0
    7.4901   53.0033   16.5482 C   0  0  0  0  0  0
    6.3941   52.5376   15.9441 F   0  0  0  0  0  0
    8.2000   53.6807   15.6432 F   0  0  0  0  0  0
    8.2229   51.9714   16.9650 F   0  0  0  0  0  0
   -1.1629   51.4769   28.5467 H   0  0  0  0  0  0
    1.0575   52.1235   27.7126 H   0  0  0  0  0  0
    1.4762   52.3336   25.3138 H   0  0  0  0  0  0
   -3.0085   51.0453   26.9789 H   0  0  0  0  0  0
   -3.8662   50.9119   24.6733 H   0  0  0  0  0  0
   -3.5059   51.1027   22.2456 H   0  0  0  0  0  0
   -1.3592   51.7530   21.3512 H   0  0  0  0  0  0
    1.5083   52.7044   23.5111 H   0  0  0  0  0  0
    7.5058   55.2458   24.5997 H   0  0  0  0  0  0
    7.1405   55.2116   27.0770 H   0  0  0  0  0  0
    4.9925   54.4943   27.9995 H   0  0  0  0  0  0
    3.1454   53.8019   26.5035 H   0  0  0  0  0  0
    2.2747   52.4515   18.8456 H   0  0  0  0  0  0
    3.7799   53.0602   18.2606 H   0  0  0  0  0  0
    6.1118   56.1063   20.7645 H   0  0  0  0  0  0
    7.9061   56.8234   19.2485 H   0  0  0  0  0  0
    8.5443   55.4365   17.3262 H   0  0  0  0  0  0
    5.6386   52.4966   18.4636 H   0  0  0  0  0  0
  1  6  2  0  0  0
  1  2  1  0  0  0
  1 38  1  0  0  0
  2  3  2  0  0  0
  2 39  1  0  0  0
  3  4  1  0  0  0
  3 40  1  0  0  0
  4 10  2  0  0  0
  4  5  1  0  0  0
  5  6  1  0  0  0
  5  7  2  0  0  0
  6 41  1  0  0  0
  7  8  1  0  0  0
  7 42  1  0  0  0
  8  9  2  0  0  0
  8 43  1  0  0  0
  9 10  1  0  0  0
  9 44  1  0  0  0
 10 11  1  0  0  0
 11 12  1  0  0  0
 11 45  1  0  0  0
 12 13  2  0  0  0
 12 14  1  0  0  0
 14 26  2  0  0  0
 14 15  1  0  0  0
 15 24  2  0  0  0
 15 16  1  0  0  0
 16 17  2  0  0  0
 16 25  1  0  0  0
 17 18  1  0  0  0
 18 23  2  0  0  0
 18 19  1  0  0  0
 19 20  2  0  0  0
 19 46  1  0  0  0
 20 21  1  0  0  0
 20 47  1  0  0  0
 21 22  2  0  0  0
 21 48  1  0  0  0
 22 23  1  0  0  0
 22 49  1  0  0  0
 23 24  1  0  0  0
 25 26  1  0  0  0
 25 28  1  0  0  0
 26 27  1  0  0  0
 27 50  1  0  0  0
 27 51  1  0  0  0
 28 33  2  0  0  0
 28 29  1  0  0  0
 29 30  2  0  0  0
 29 52  1  0  0  0
 30 31  1  0  0  0
 30 53  1  0  0  0
 31 32  2  0  0  0
 31 54  1  0  0  0
 32 33  1  0  0  0
 32 34  1  0  0  0
 33 55  1  0  0  0
 34 35  1  0  0  0
 34 36  1  0  0  0
 34 37  1  0  0  0
M  END
> <i_i_glide_confnum>
9

> <i_i_glide_lignum>
4465

> <i_i_glide_posenum>
355

> <i_i_glide_rotatable_bonds>
5

> <i_m_Source_File_Index>
2405

> <b_m_subgroup_collapsed>
0

> <r_i_docking_score>
-4.70874

> <r_i_glide_ecoul>
0.715379

> <r_i_glide_eff_state_penalty>
0

> <r_i_glide_einternal>
0.706801

> <r_i_glide_emodel>
-58.3449

> <r_i_glide_energy>
-44.7956

> <r_i_glide_erotb>
0.329718

> <r_i_glide_esite>
-0.065613

> <r_i_glide_evdw>
-45.511

> <r_i_glide_gscore>
-4.70874

> <r_i_glide_hbond>
0

> <r_i_glide_ligand_efficiency>
-0.127263

> <r_i_glide_ligand_efficiency_ln>
-1.02122

> <r_i_glide_ligand_efficiency_sa>
-0.42407

> <r_i_glide_lipo>
-2.22033

> <r_i_glide_metal>
0

> <r_i_glide_rewards>
-0.584278

> <s_i_glide_gridfile>
wee1_glide-grid

> <s_m_Source_File>
wee1_decoys_glide_SP.sdf

> <s_m_Source_Path>
/Users/zhangxujun/Desktop

> <s_m_entry_id>
2680

> <s_m_entry_name>
wee1_decoys_glide_SP.2405

> <s_m_subgroup_title>
wee1_decoys_glide_SP

> <s_m_subgroupid>
wee1_decoys_glide_SP


$$$$
