@<TRIPOS>MOLECULE
ZINC38547709_5104
62   65    1
SMALL
USER_CHARGES


@<TRIPOS>ATOM
      1 C1          4.6362   51.5581   20.7472 C.3       1 UNK         0.0000 
      2 C2          3.2462   51.7644   20.1846 C.ar      1 UNK         0.0000 
      3 C3          3.0697   52.1479   18.8515 C.ar      1 UNK         0.0000 
      4 C4          1.7862   52.4240   18.3822 C.ar      1 UNK         0.0000 
      5 N5          0.7436   52.3335   19.2328 N.pl3     1 UNK         0.0000 
      6 C6          0.8581   51.9562   20.5235 C.ar      1 UNK         0.0000 
      7 C7          2.1282   51.6185   21.0103 C.ar      1 UNK         0.0000 
      8 N8         -0.3242   51.9549   21.3168 N.pl3     1 UNK         0.0000 
      9 C9         -0.4638   51.4654   22.7047 C.3       1 UNK         0.0000 
     10 H10         0.1034   50.5344   22.6569 H         1 UNK         0.0000 
     11 C11         0.2997   52.1958   23.8468 C.ar      1 UNK         0.0000 
     12 C12         1.2334   53.2052   23.5600 C.ar      1 UNK         0.0000 
     13 C13         2.1078   53.6930   24.5280 C.ar      1 UNK         0.0000 
     14 C14         1.9347   53.2966   25.8572 C.ar      1 UNK         0.0000 
     15 C15         0.9560   52.3663   26.1863 C.ar      1 UNK         0.0000 
     16 C16         0.1593   51.7775   25.1898 C.ar      1 UNK         0.0000 
     17 O17        -0.7494   50.7761   25.4737 O.3       1 UNK         0.0000 
     18 C18        -1.1170   50.5177   26.8240 C.3       1 UNK         0.0000 
     19 O19         3.1356   54.5025   24.0938 O.3       1 UNK         0.0000 
     20 C20         4.3125   54.5769   24.8957 C.3       1 UNK         0.0000 
     21 C21        -1.9218   51.0667   22.9760 C.2       1 UNK         0.0000 
     22 C22        -2.8960   51.8458   23.6596 C.2       1 UNK         0.0000 
     23 C23        -4.1206   51.1813   23.8214 C.2       1 UNK         0.0000 
     24 S24        -4.0947   49.6264   23.0611 S.3       1 UNK         0.0000 
     25 C25        -2.4543   49.8502   22.5368 C.2       1 UNK         0.0000 
     26 N26        -1.7676   48.9319   21.7433 N.am      1 UNK         0.0000 
     27 C27        -2.1363   47.6883   21.3674 C.2       1 UNK         0.0000 
     28 O28        -3.1405   47.0831   21.7470 O.2       1 UNK         0.0000 
     29 C29        -1.2086   47.0856   20.4421 C.2       1 UNK         0.0000 
     30 C30        -0.1633   47.6138   19.6789 C.2       1 UNK         0.0000 
     31 C31         0.3321   46.5762   18.8896 C.2       1 UNK         0.0000 
     32 C32        -0.4509   45.4706   19.1681 C.2       1 UNK         0.0000 
     33 O33        -1.3845   45.7785   20.1048 O.3       1 UNK         0.0000 
     34 C34        -5.3751   51.6322   24.5385 C.3       1 UNK         0.0000 
     35 C35        -2.6783   53.2723   24.1261 C.3       1 UNK         0.0000 
     36 H36         5.4029   51.9592   20.0837 H         1 UNK         0.0000 
     37 H37         4.7376   52.0579   21.7107 H         1 UNK         0.0000 
     38 H38         4.8133   50.4985   20.8893 H         1 UNK         0.0000 
     39 H39         3.9204   52.2231   18.1862 H         1 UNK         0.0000 
     40 H40         1.5622   52.7316   17.3697 H         1 UNK         0.0000 
     41 H41         2.2653   51.3005   22.0324 H         1 UNK         0.0000 
     42 H42        -1.1852   52.2401   20.8755 H         1 UNK         0.0000 
     43 H43         1.3667   53.5721   22.5548 H         1 UNK         0.0000 
     44 H44         2.5704   53.6816   26.6394 H         1 UNK         0.0000 
     45 H45         0.8715   52.0680   27.2201 H         1 UNK         0.0000 
     46 H46        -1.9356   49.7984   26.8455 H         1 UNK         0.0000 
     47 H47        -0.2811   50.1005   27.3832 H         1 UNK         0.0000 
     48 H48        -1.4685   51.4201   27.3272 H         1 UNK         0.0000 
     49 H49         5.1419   54.9322   24.2859 H         1 UNK         0.0000 
     50 H50         4.1793   55.2639   25.7319 H         1 UNK         0.0000 
     51 H51         4.6166   53.6033   25.2863 H         1 UNK         0.0000 
     52 H52        -0.8605   49.2331   21.4242 H         1 UNK         0.0000 
     53 H53         0.2012   48.6310   19.6857 H         1 UNK         0.0000 
     54 H54         1.1473   46.6362   18.1811 H         1 UNK         0.0000 
     55 H55        -0.4676   44.4596   18.7917 H         1 UNK         0.0000 
     56 H56        -6.2365   51.6919   23.8729 H         1 UNK         0.0000 
     57 H57        -5.6308   50.9350   25.3369 H         1 UNK         0.0000 
     58 H58        -5.2636   52.6059   25.0156 H         1 UNK         0.0000 
     59 H59        -2.3821   53.2982   25.1770 H         1 UNK         0.0000 
     60 H60        -1.9176   53.7931   23.5457 H         1 UNK         0.0000 
     61 H61        -3.5792   53.8810   24.0290 H         1 UNK         0.0000 
     62 H62        -0.1718   52.5723   18.8835 H         1 UNK         0.0000 
@<TRIPOS>BOND
     1    1    2 1    
     2    1   36 1    
     3    1   37 1    
     4    1   38 1    
     5    2    7 ar   
     6    2    3 ar   
     7    3    4 ar   
     8    3   39 1    
     9    4    5 ar   
    10    4   40 1    
    11    5    6 ar   
    12    5   62 1    
    13    6    7 ar   
    14    6    8 1    
    15    7   41 1    
    16    8    9 1    
    17    8   42 1    
    18    9   10 1    
    19    9   11 1    
    20    9   21 1    
    21   11   16 ar   
    22   11   12 ar   
    23   12   13 ar   
    24   12   43 1    
    25   13   14 ar   
    26   13   19 1    
    27   14   15 ar   
    28   14   44 1    
    29   15   16 ar   
    30   15   45 1    
    31   16   17 1    
    32   17   18 1    
    33   18   46 1    
    34   18   47 1    
    35   18   48 1    
    36   19   20 1    
    37   20   49 1    
    38   20   50 1    
    39   20   51 1    
    40   21   25 2    
    41   21   22 1    
    42   22   23 2    
    43   22   35 1    
    44   23   24 1    
    45   23   34 1    
    46   24   25 1    
    47   25   26 am   BACKBONE|DICT|INTERRES
    48   26   27 am   BACKBONE|DICT|INTERRES
    49   26   52 1    
    50   27   28 2    
    51   27   29 1    
    52   29   33 1    
    53   29   30 2    
    54   30   31 1    
    55   30   53 1    
    56   31   32 2    
    57   31   54 1    
    58   32   33 1    
    59   32   55 1    
    60   34   56 1    
    61   34   57 1    
    62   34   58 1    
    63   35   59 1    
    64   35   60 1    
    65   35   61 1    
@<TRIPOS>SUBSTRUCTURE
     1 UNK         1 GROUP             0       ****    0 ROOT    
