ZINC16503460_5740
                    3D
 Schrodinger Suite 2024-2.
 73 76  0  0  1  0            999 V2000
    1.5828   47.9505   18.0610 C   0  0  0  0  0  0
    0.8739   48.5547   19.2847 C   0  0  0  0  0  0
    1.0063   50.0965   19.4097 C   0  0  2  0  0  0
    0.7273   50.4709   18.4247 H   0  0  0  0  0  0
    2.4591   50.5626   19.6423 C   0  0  0  0  0  0
    0.0846   50.6492   20.4326 N   0  0  0  0  0  0
    0.2257   50.0985   21.8065 C   0  0  0  0  0  0
    0.1672   51.1914   22.9013 C   0  0  0  0  0  0
    0.5053   52.3418   22.6090 O   0  0  0  0  0  0
   -0.2812   50.8567   24.1384 N   0  0  0  0  0  0
   -0.5793   49.4683   24.5457 C   0  0  0  0  0  0
   -2.1106   49.2491   24.4575 C   0  0  0  0  0  0
   -2.8045   50.3841   25.1951 C   0  0  0  0  0  0
   -2.1941   51.6151   25.4650 C   0  0  0  0  0  0
   -3.0759   52.5006   26.0997 C   0  0  0  0  0  0
   -4.3371   51.9618   26.3091 C   0  0  0  0  0  0
   -4.4587   50.3398   25.7151 S   0  0  0  0  0  0
   -0.7306   51.9012   25.0895 C   0  0  1  0  0  0
   -0.7477   52.8607   24.5680 H   0  0  0  0  0  0
    0.2305   52.1678   26.2487 C   0  0  0  0  0  0
    1.4042   52.8839   26.0044 C   0  0  0  0  0  0
    2.2912   53.1452   27.0428 C   0  0  0  0  0  0
    2.0273   52.6967   28.3449 C   0  0  0  0  0  0
    0.8374   51.9887   28.5788 C   0  0  0  0  0  0
   -0.0463   51.7183   27.5419 C   0  0  0  0  0  0
    3.0537   52.9619   29.4733 C   0  0  0  0  0  0
    3.5711   54.4230   29.4492 C   0  0  0  0  0  0
    4.2450   52.0026   29.2861 C   0  0  0  0  0  0
    2.4713   52.7156   30.8840 C   0  0  0  0  0  0
   -1.0833   51.2687   20.0661 C   0  0  0  0  0  0
   -2.1028   51.2161   20.7642 O   0  0  0  0  0  0
   -1.1488   52.0944   18.7981 C   0  0  0  0  0  0
   -2.3491   52.1629   18.0807 C   0  0  0  0  0  0
   -2.4623   52.9925   16.9697 C   0  0  0  0  0  0
   -1.3811   53.7823   16.5566 C   0  0  0  0  0  0
   -0.1811   53.7145   17.2769 C   0  0  0  0  0  0
   -0.0678   52.8830   18.3859 C   0  0  0  0  0  0
   -1.5084   54.6829   15.3839 N   0  3  0  0  0  0
   -2.5765   54.7083   14.7782 O   0  0  0  0  0  0
   -0.5450   55.3760   15.0699 O   0  5  0  0  0  0
    1.3735   46.8839   17.9771 H   0  0  0  0  0  0
    1.2552   48.4254   17.1360 H   0  0  0  0  0  0
    2.6644   48.0617   18.1240 H   0  0  0  0  0  0
    1.2461   48.0665   20.1865 H   0  0  0  0  0  0
   -0.1844   48.2948   19.2191 H   0  0  0  0  0  0
    3.1041   50.2272   18.8303 H   0  0  0  0  0  0
    2.5461   51.6477   19.6909 H   0  0  0  0  0  0
    2.8811   50.1430   20.5558 H   0  0  0  0  0  0
    1.1737   49.5732   21.9213 H   0  0  0  0  0  0
   -0.5614   49.3599   21.9609 H   0  0  0  0  0  0
    0.0303   48.7284   24.0241 H   0  0  0  0  0  0
   -0.2475   49.3551   25.5800 H   0  0  0  0  0  0
   -2.4263   49.2155   23.4142 H   0  0  0  0  0  0
   -2.3692   48.2832   24.8913 H   0  0  0  0  0  0
   -2.7970   53.4988   26.4018 H   0  0  0  0  0  0
   -5.1903   52.4314   26.7764 H   0  0  0  0  0  0
    1.6337   53.2294   25.0064 H   0  0  0  0  0  0
    3.2030   53.6737   26.8118 H   0  0  0  0  0  0
    0.5760   51.6104   29.5540 H   0  0  0  0  0  0
   -0.9378   51.1437   27.7533 H   0  0  0  0  0  0
    4.2928   54.5927   30.2479 H   0  0  0  0  0  0
    2.7588   55.1400   29.5760 H   0  0  0  0  0  0
    4.0902   54.6741   28.5253 H   0  0  0  0  0  0
    3.9019   50.9674   29.2831 H   0  0  0  0  0  0
    4.7672   52.1826   28.3459 H   0  0  0  0  0  0
    4.9815   52.0966   30.0830 H   0  0  0  0  0  0
    2.1437   51.6902   31.0314 H   0  0  0  0  0  0
    3.2243   52.8922   31.6527 H   0  0  0  0  0  0
    1.6142   53.3595   31.0899 H   0  0  0  0  0  0
   -3.2054   51.5775   18.3862 H   0  0  0  0  0  0
   -3.4028   53.0224   16.4370 H   0  0  0  0  0  0
    0.6682   54.3219   16.9954 H   0  0  0  0  0  0
    0.8552   52.9013   18.9465 H   0  0  0  0  0  0
  1  2  1  0  0  0
  1 41  1  0  0  0
  1 42  1  0  0  0
  1 43  1  0  0  0
  2  3  1  0  0  0
  2 44  1  0  0  0
  2 45  1  0  0  0
  3  4  1  0  0  0
  3  5  1  0  0  0
  3  6  1  0  0  0
  5 46  1  0  0  0
  5 47  1  0  0  0
  5 48  1  0  0  0
  6  7  1  0  0  0
  6 30  1  0  0  0
  7  8  1  0  0  0
  7 49  1  0  0  0
  7 50  1  0  0  0
  8  9  2  0  0  0
  8 10  1  0  0  0
 10 18  1  0  0  0
 10 11  1  0  0  0
 11 12  1  0  0  0
 11 51  1  0  0  0
 11 52  1  0  0  0
 12 13  1  0  0  0
 12 53  1  0  0  0
 12 54  1  0  0  0
 13 17  1  0  0  0
 13 14  2  0  0  0
 14 15  1  0  0  0
 14 18  1  0  0  0
 15 16  2  0  0  0
 15 55  1  0  0  0
 16 17  1  0  0  0
 16 56  1  0  0  0
 18 19  1  0  0  0
 18 20  1  0  0  0
 20 25  2  0  0  0
 20 21  1  0  0  0
 21 22  2  0  0  0
 21 57  1  0  0  0
 22 23  1  0  0  0
 22 58  1  0  0  0
 23 24  2  0  0  0
 23 26  1  0  0  0
 24 25  1  0  0  0
 24 59  1  0  0  0
 25 60  1  0  0  0
 26 27  1  0  0  0
 26 28  1  0  0  0
 26 29  1  0  0  0
 27 61  1  0  0  0
 27 62  1  0  0  0
 27 63  1  0  0  0
 28 64  1  0  0  0
 28 65  1  0  0  0
 28 66  1  0  0  0
 29 67  1  0  0  0
 29 68  1  0  0  0
 29 69  1  0  0  0
 30 31  2  0  0  0
 30 32  1  0  0  0
 32 37  2  0  0  0
 32 33  1  0  0  0
 33 34  2  0  0  0
 33 70  1  0  0  0
 34 35  1  0  0  0
 34 71  1  0  0  0
 35 36  2  0  0  0
 35 38  1  0  0  0
 36 37  1  0  0  0
 36 72  1  0  0  0
 37 73  1  0  0  0
 38 39  2  0  0  0
 38 40  1  0  0  0
M  CHG  2  38   1  40  -1
M  END
> <i_i_glide_confnum>
64

> <i_i_glide_lignum>
5741

> <i_i_glide_posenum>
368

> <i_i_glide_rotatable_bonds>
10

> <i_m_Source_File_Index>
51

> <b_m_subgroup_collapsed>
0

> <r_i_docking_score>
-2.5412

> <r_i_glide_ecoul>
-2.14404

> <r_i_glide_eff_state_penalty>
0

> <r_i_glide_einternal>
5.80883

> <r_i_glide_emodel>
-39.6597

> <r_i_glide_energy>
-37.3486

> <r_i_glide_erotb>
0.507118

> <r_i_glide_esite>
-0.0117532

> <r_i_glide_evdw>
-35.2045

> <r_i_glide_gscore>
-2.5412

> <r_i_glide_hbond>
0

> <r_i_glide_ligand_efficiency>
-0.0668738

> <r_i_glide_ligand_efficiency_ln>
-0.547958

> <r_i_glide_ligand_efficiency_sa>
-0.224828

> <r_i_glide_lipo>
-1.15038

> <r_i_glide_metal>
0

> <r_i_glide_rewards>
0.195648

> <s_i_glide_gridfile>
wee1_glide-grid

> <s_m_Source_File>
wee1_decoys_glide_SP.sdf

> <s_m_Source_Path>
/Users/zhangxujun/Desktop

> <s_m_entry_id>
326

> <s_m_entry_name>
wee1_decoys_glide_SP.51

> <s_m_subgroup_title>
wee1_decoys_glide_SP

> <s_m_subgroupid>
wee1_decoys_glide_SP


$$$$
