@<TRIPOS>MOLECULE
ZINC66856545_1457
56   59    1
SMALL
USER_CHARGES


@<TRIPOS>ATOM
      1 C1          7.0235   53.7450   28.1741 C.3       1 UNK         0.0000 
      2 C2          5.8145   54.3754   27.4648 C.3       1 UNK         0.0000 
      3 H3          5.6305   55.3427   27.9323 H         1 UNK         0.0000 
      4 C4          6.0996   54.6958   25.9784 C.2       1 UNK         0.0000 
      5 O5          7.1036   55.3545   25.7135 O.2       1 UNK         0.0000 
      6 N6          5.2020   54.2661   25.0677 N.am      1 UNK         0.0000 
      7 C7          5.2150   54.3789   23.6709 C.ar      1 UNK         0.0000 
      8 C8          6.3070   54.8207   22.9052 C.ar      1 UNK         0.0000 
      9 C9          6.1959   54.8968   21.5176 C.ar      1 UNK         0.0000 
     10 C10         5.0168   54.5010   20.8695 C.ar      1 UNK         0.0000 
     11 C11         3.9354   54.0735   21.6451 C.ar      1 UNK         0.0000 
     12 C12         4.0355   54.0071   23.0277 C.ar      1 UNK         0.0000 
     13 C13         4.9270   54.6149   19.3728 C.ar      1 UNK         0.0000 
     14 N14         5.6257   55.4854   18.6838 N.2       1 UNK         0.0000 
     15 N15         5.2990   55.3390   17.3432 N.2       1 UNK         0.0000 
     16 C16         4.4016   54.3893   17.2696 C.ar      1 UNK         0.0000 
     17 N17         4.1451   53.8529   18.5173 N.pl3     1 UNK         0.0000 
     18 C18         3.1670   52.7923   18.8013 C.3       1 UNK         0.0000 
     19 C19         2.7438   52.0770   17.4928 C.3       1 UNK         0.0000 
     20 C20         2.5241   53.0512   16.3209 C.3       1 UNK         0.0000 
     21 C21         3.8123   53.8264   15.9854 C.3       1 UNK         0.0000 
     22 N22         4.6280   53.5338   27.6753 N.am      1 UNK         0.0000 
     23 C23         3.7142   53.7055   28.6416 C.2       1 UNK         0.0000 
     24 O24         3.8751   54.4946   29.5758 O.2       1 UNK         0.0000 
     25 C25         2.4257   52.8462   28.5209 C.3       1 UNK         0.0000 
     26 C26         2.4238   51.7730   29.6343 C.3       1 UNK         0.0000 
     27 C27         2.0431   52.2825   31.0376 C.3       1 UNK         0.0000 
     28 O28         0.8287   53.0271   30.9919 O.3       1 UNK         0.0000 
     29 C29         0.8453   54.1658   30.1358 C.3       1 UNK         0.0000 
     30 C30         1.1723   53.7500   28.6858 C.3       1 UNK         0.0000 
     31 H31         7.9040   54.3766   28.0573 H         1 UNK         0.0000 
     32 H32         6.8494   53.6688   29.2461 H         1 UNK         0.0000 
     33 H33         7.2566   52.7525   27.7838 H         1 UNK         0.0000 
     34 H34         4.3817   53.8111   25.4378 H         1 UNK         0.0000 
     35 H35         7.2445   55.1105   23.3557 H         1 UNK         0.0000 
     36 H36         7.0448   55.2488   20.9451 H         1 UNK         0.0000 
     37 H37         2.9944   53.8057   21.1963 H         1 UNK         0.0000 
     38 H38         3.1776   53.6742   23.5955 H         1 UNK         0.0000 
     39 H39         3.5866   52.0903   19.5249 H         1 UNK         0.0000 
     40 H40         2.2904   53.2628   19.2462 H         1 UNK         0.0000 
     41 H41         3.4961   51.3334   17.2173 H         1 UNK         0.0000 
     42 H42         1.8337   51.5033   17.6755 H         1 UNK         0.0000 
     43 H43         2.1830   52.5030   15.4420 H         1 UNK         0.0000 
     44 H44         1.7250   53.7501   16.5729 H         1 UNK         0.0000 
     45 H45         3.6128   54.6135   15.2585 H         1 UNK         0.0000 
     46 H46         4.5313   53.1495   15.5236 H         1 UNK         0.0000 
     47 H47         4.4985   52.7857   27.0074 H         1 UNK         0.0000 
     48 H48         2.4697   52.3987   27.5271 H         1 UNK         0.0000 
     49 H49         3.3710   51.2324   29.6313 H         1 UNK         0.0000 
     50 H50         1.7459   50.9824   29.3083 H         1 UNK         0.0000 
     51 H51         2.8560   52.8955   31.4192 H         1 UNK         0.0000 
     52 H52         1.9201   51.4602   31.7401 H         1 UNK         0.0000 
     53 H53         1.5760   54.8895   30.4956 H         1 UNK         0.0000 
     54 H54        -0.1259   54.6549   30.1827 H         1 UNK         0.0000 
     55 H55         0.3267   53.2144   28.2529 H         1 UNK         0.0000 
     56 H56         1.2138   54.6031   28.0074 H         1 UNK         0.0000 
@<TRIPOS>BOND
     1    1    2 1    
     2    1   31 1    
     3    1   32 1    
     4    1   33 1    
     5    2    3 1    
     6    2    4 1    
     7    2   22 1    
     8    4    5 2    
     9    4    6 am   BACKBONE|DICT|INTERRES
    10    6    7 1    
    11    6   34 1    
    12    7   12 ar   
    13    7    8 ar   
    14    8    9 ar   
    15    8   35 1    
    16    9   10 ar   
    17    9   36 1    
    18   10   11 ar   
    19   10   13 1    
    20   11   12 ar   
    21   11   37 1    
    22   12   38 1    
    23   13   17 ar   
    24   13   14 ar   
    25   14   15 ar   
    26   15   16 ar   
    27   16   21 1    
    28   16   17 ar   
    29   17   18 1    
    30   18   19 1    
    31   18   39 1    
    32   18   40 1    
    33   19   20 1    
    34   19   41 1    
    35   19   42 1    
    36   20   21 1    
    37   20   43 1    
    38   20   44 1    
    39   21   45 1    
    40   21   46 1    
    41   22   23 am   BACKBONE|DICT|INTERRES
    42   22   47 1    
    43   23   24 2    
    44   23   25 1    
    45   25   30 1    
    46   25   26 1    
    47   25   48 1    
    48   26   27 1    
    49   26   49 1    
    50   26   50 1    
    51   27   28 1    
    52   27   51 1    
    53   27   52 1    
    54   28   29 1    
    55   29   30 1    
    56   29   53 1    
    57   29   54 1    
    58   30   55 1    
    59   30   56 1    
@<TRIPOS>SUBSTRUCTURE
     1 UNK         1 GROUP             0       ****    0 ROOT    
