@<TRIPOS>MOLECULE
ZINC30961647_5392
47   48    1
SMALL
USER_CHARGES


@<TRIPOS>ATOM
      1 C1          2.8407   52.1486   21.8438 C.3       1 UNK         0.0000 
      2 C2          4.2228   52.7754   21.5622 C.3       1 UNK         0.0000 
      3 C3          4.4461   52.7473   20.0376 C.3       1 UNK         0.0000 
      4 C4          4.4068   54.1802   22.2448 C.3       1 UNK         0.0000 
      5 H5          3.6482   54.8777   21.8791 H         1 UNK         0.0000 
      6 C6          5.8136   54.7467   21.9168 C.2       1 UNK         0.0000 
      7 O7          6.7568   54.5011   22.6769 O.2       1 UNK         0.0000 
      8 N8          5.9046   55.4768   20.7876 N.am      1 UNK         0.0000 
      9 N9          7.0730   55.9626   20.3202 N.2       1 UNK         0.0000 
     10 C10         7.0434   56.6188   19.2227 C.2       1 UNK         0.0000 
     11 C11         5.9237   56.9060   18.2972 C.ar      1 UNK         0.0000 
     12 C12         5.9161   58.1299   17.6181 C.ar      1 UNK         0.0000 
     13 C13         4.8898   58.4563   16.7361 C.ar      1 UNK         0.0000 
     14 C14         3.8365   57.5734   16.5168 C.ar      1 UNK         0.0000 
     15 C15         3.8130   56.3306   17.1798 C.ar      1 UNK         0.0000 
     16 C16         4.8785   56.0055   18.0352 C.ar      1 UNK         0.0000 
     17 N17         2.7279   55.3458   16.9701 N.pl3     1 UNK         0.0000 
     18 O18         3.0315   54.1586   16.9311 O.co2     1 UNK         0.0000 
     19 O19         1.5721   55.7469   16.8814 O.co2     1 UNK         0.0000 
     20 Br20        2.4819   58.1081   15.2818 Br        1 UNK         0.0000 
     21 N21         4.2912   54.0721   23.7002 N.am      1 UNK         0.0000 
     22 C22         3.1960   54.2317   24.4560 C.2       1 UNK         0.0000 
     23 O23         2.0873   54.4961   23.9907 O.2       1 UNK         0.0000 
     24 C24         3.3949   53.9910   25.9354 C.ar      1 UNK         0.0000 
     25 C25         2.2939   53.6943   26.7491 C.ar      1 UNK         0.0000 
     26 C26         2.4667   53.4158   28.1036 C.ar      1 UNK         0.0000 
     27 C27         3.7429   53.4157   28.6675 C.ar      1 UNK         0.0000 
     28 C28         4.8528   53.7177   27.8678 C.ar      1 UNK         0.0000 
     29 C29         4.6714   54.0247   26.5208 C.ar      1 UNK         0.0000 
     30 Cl30        6.4683   53.6986   28.4829 Cl        1 UNK         0.0000 
     31 Cl31        3.9037   53.0309   30.3458 Cl        1 UNK         0.0000 
     32 H32         2.0356   52.8141   21.5245 H         1 UNK         0.0000 
     33 H33         2.7131   51.2013   21.3159 H         1 UNK         0.0000 
     34 H34         2.6996   51.9361   22.9014 H         1 UNK         0.0000 
     35 H35         4.9597   52.0924   21.9921 H         1 UNK         0.0000 
     36 H36         3.7481   53.4159   19.5336 H         1 UNK         0.0000 
     37 H37         5.4639   53.0215   19.7547 H         1 UNK         0.0000 
     38 H38         4.2775   51.7457   19.6425 H         1 UNK         0.0000 
     39 H39         5.0925   55.6680   20.2187 H         1 UNK         0.0000 
     40 H40         7.9771   57.0568   18.8810 H         1 UNK         0.0000 
     41 H41         6.7018   58.8586   17.7716 H         1 UNK         0.0000 
     42 H42         4.9095   59.4094   16.2217 H         1 UNK         0.0000 
     43 H43         4.8852   55.0280   18.4948 H         1 UNK         0.0000 
     44 H44         5.1694   53.8653   24.1553 H         1 UNK         0.0000 
     45 H45         1.2960   53.6636   26.3336 H         1 UNK         0.0000 
     46 H46         1.6050   53.1806   28.7156 H         1 UNK         0.0000 
     47 H47         5.5510   54.2545   25.9354 H         1 UNK         0.0000 
@<TRIPOS>BOND
     1    1    2 1    
     2    1   32 1    
     3    1   33 1    
     4    1   34 1    
     5    2    3 1    
     6    2    4 1    
     7    2   35 1    
     8    3   36 1    
     9    3   37 1    
    10    3   38 1    
    11    4    5 1    
    12    4    6 1    
    13    4   21 1    
    14    6    7 2    
    15    6    8 am   BACKBONE|DICT|INTERRES
    16    8    9 1    
    17    8   39 1    
    18    9   10 2    
    19   10   11 1    
    20   10   40 1    
    21   11   16 ar   
    22   11   12 ar   
    23   12   13 ar   
    24   12   41 1    
    25   13   14 ar   
    26   13   42 1    
    27   14   15 ar   
    28   14   20 1    
    29   15   16 ar   
    30   15   17 1    
    31   16   43 1    
    32   17   18 2    
    33   17   19 1    
    34   21   22 am   BACKBONE|DICT|INTERRES
    35   21   44 1    
    36   22   23 2    
    37   22   24 1    
    38   24   29 ar   
    39   24   25 ar   
    40   25   26 ar   
    41   25   45 1    
    42   26   27 ar   
    43   26   46 1    
    44   27   28 ar   
    45   27   31 1    
    46   28   29 ar   
    47   28   30 1    
    48   29   47 1    
@<TRIPOS>SUBSTRUCTURE
     1 UNK         1 GROUP             0       ****    0 ROOT    
