@<TRIPOS>MOLECULE
ZINC02699225_4515
51   54    1
SMALL
USER_CHARGES


@<TRIPOS>ATOM
      1 C1          3.7592   53.4531   20.7931 C.3       1 UNK         0.0000 
      2 C2          4.5525   53.9773   21.9869 C.ar      1 UNK         0.0000 
      3 C3          5.8265   54.4968   21.7349 C.ar      1 UNK         0.0000 
      4 C4          6.6327   54.9390   22.7778 C.ar      1 UNK         0.0000 
      5 C5          6.1621   54.8809   24.0845 C.ar      1 UNK         0.0000 
      6 C6          4.8811   54.3926   24.3435 C.ar      1 UNK         0.0000 
      7 C7          4.0457   53.9421   23.3048 C.ar      1 UNK         0.0000 
      8 N8          2.7411   53.4264   23.4981 N.pl3     1 UNK         0.0000 
      9 C9          1.9349   53.1674   24.5912 C.2       1 UNK         0.0000 
     10 C10         0.7178   52.4739   24.5592 C.2       1 UNK         0.0000 
     11 C11         0.1705   52.3045   25.8418 C.2       1 UNK         0.0000 
     12 C12         0.9551   52.8125   26.8770 C.2       1 UNK         0.0000 
     13 S13         2.3027   53.6860   26.2127 S.3       1 UNK         0.0000 
     14 C14         0.6821   52.7790   28.3202 C.2       1 UNK         0.0000 
     15 O15        -0.4935   52.8974   28.6739 O.2       1 UNK         0.0000 
     16 C16         1.7553   52.5250   29.3464 C.ar      1 UNK         0.0000 
     17 C17         3.1126   52.3369   29.0365 C.ar      1 UNK         0.0000 
     18 C18         4.0473   52.1025   30.0386 C.ar      1 UNK         0.0000 
     19 C19         3.6270   51.9973   31.3577 C.ar      1 UNK         0.0000 
     20 C20         2.2765   52.0967   31.6753 C.ar      1 UNK         0.0000 
     21 C21         1.3549   52.4070   30.6862 C.ar      1 UNK         0.0000 
     22 N22        -1.0199   51.6706   26.0676 N.pl3     1 UNK         0.0000 
     23 S23        -0.0854   51.8443   23.0495 S.o2      1 UNK         0.0000 
     24 O24        -1.3192   52.6197   22.8813 O.2       1 UNK         0.0000 
     25 O25         0.9309   51.7781   21.9936 O.2       1 UNK         0.0000 
     26 C26        -0.5873   50.1735   23.4366 C.ar      1 UNK         0.0000 
     27 C27         0.3312   49.2951   24.0081 C.ar      1 UNK         0.0000 
     28 C28        -0.0960   48.0408   24.4279 C.ar      1 UNK         0.0000 
     29 C29        -1.4234   47.6579   24.2520 C.ar      1 UNK         0.0000 
     30 C30        -2.3350   48.5242   23.6537 C.ar      1 UNK         0.0000 
     31 C31        -1.9174   49.7870   23.2457 C.ar      1 UNK         0.0000 
     32 Cl32       -1.9417   46.0970   24.7719 Cl        1 UNK         0.0000 
     33 H33         4.0918   53.9003   19.8553 H         1 UNK         0.0000 
     34 H34         3.8502   52.3686   20.7191 H         1 UNK         0.0000 
     35 H35         2.7040   53.6967   20.8820 H         1 UNK         0.0000 
     36 H36         6.2081   54.5356   20.7243 H         1 UNK         0.0000 
     37 H37         7.6189   55.3266   22.5691 H         1 UNK         0.0000 
     38 H38         6.7883   55.2190   24.8960 H         1 UNK         0.0000 
     39 H39         4.5868   54.3757   25.3734 H         1 UNK         0.0000 
     40 H40         2.3724   53.1086   22.6088 H         1 UNK         0.0000 
     41 H41         3.4908   52.3416   28.0299 H         1 UNK         0.0000 
     42 H42         5.0942   51.9824   29.7891 H         1 UNK         0.0000 
     43 H43         4.3493   51.7861   32.1306 H         1 UNK         0.0000 
     44 H44         1.9219   51.9436   32.6798 H         1 UNK         0.0000 
     45 H45         0.3164   52.4988   30.9790 H         1 UNK         0.0000 
     46 H46        -1.5725   51.2676   25.3257 H         1 UNK         0.0000 
     47 H47        -1.3536   51.5267   27.0124 H         1 UNK         0.0000 
     48 H48         1.3609   49.5876   24.1591 H         1 UNK         0.0000 
     49 H49         0.6116   47.3646   24.8818 H         1 UNK         0.0000 
     50 H50        -3.3645   48.2259   23.5209 H         1 UNK         0.0000 
     51 H51        -2.6339   50.4661   22.8069 H         1 UNK         0.0000 
@<TRIPOS>BOND
     1    1    2 1    
     2    1   33 1    
     3    1   34 1    
     4    1   35 1    
     5    2    7 ar   
     6    2    3 ar   
     7    3    4 ar   
     8    3   36 1    
     9    4    5 ar   
    10    4   37 1    
    11    5    6 ar   
    12    5   38 1    
    13    6    7 ar   
    14    6   39 1    
    15    7    8 1    
    16    8    9 1    
    17    8   40 1    
    18    9   13 1    
    19    9   10 2    
    20   10   11 1    
    21   10   23 1    
    22   11   12 2    
    23   11   22 1    
    24   12   13 1    
    25   12   14 1    
    26   14   15 2    
    27   14   16 1    
    28   16   21 ar   
    29   16   17 ar   
    30   17   18 ar   
    31   17   41 1    
    32   18   19 ar   
    33   18   42 1    
    34   19   20 ar   
    35   19   43 1    
    36   20   21 ar   
    37   20   44 1    
    38   21   45 1    
    39   22   46 1    
    40   22   47 1    
    41   23   24 2    
    42   23   25 2    
    43   23   26 1    
    44   26   31 ar   
    45   26   27 ar   
    46   27   28 ar   
    47   27   48 1    
    48   28   29 ar   
    49   28   49 1    
    50   29   30 ar   
    51   29   32 1    
    52   30   31 ar   
    53   30   50 1    
    54   31   51 1    
@<TRIPOS>SUBSTRUCTURE
     1 UNK         1 GROUP             0       ****    0 ROOT    
