ZINC09881944_5326
                    3D
 Schrodinger Suite 2024-2.
 58 61  0  0  1  0            999 V2000
    4.8542   53.9776   27.5197 C   0  0  0  0  0  0
    5.3175   54.1161   26.2164 C   0  0  0  0  0  0
    4.4202   54.0598   25.1365 C   0  0  0  0  0  0
    3.0650   53.8371   25.3805 C   0  0  0  0  0  0
    2.6016   53.6962   26.6866 C   0  0  0  0  0  0
    3.4945   53.7599   27.7625 C   0  0  0  0  0  0
    2.9796   53.5980   29.1890 C   0  0  0  0  0  0
    2.8071   52.3009   29.4524 F   0  0  0  0  0  0
    1.8128   54.2270   29.3489 F   0  0  0  0  0  0
    3.8381   54.0966   30.0820 F   0  0  0  0  0  0
    4.8197   54.1260   23.7887 N   0  0  0  0  0  0
    5.9202   54.7279   23.2920 C   0  0  0  0  0  0
    6.7074   55.3706   23.9830 O   0  0  0  0  0  0
    6.0751   54.6937   21.7624 C   0  0  0  0  0  0
    7.6985   55.2977   21.1642 S   0  0  0  0  0  0
    7.1612   56.2406   19.7860 C   0  0  0  0  0  0
    6.7038   57.4548   19.9041 N   0  0  0  0  0  0
    6.3410   57.8964   18.6443 N   0  0  0  0  0  0
    6.6225   56.9358   17.7969 C   0  0  0  0  0  0
    7.1717   55.8549   18.4615 N   0  0  0  0  0  0
    7.6839   54.6658   17.9101 C   0  0  0  0  0  0
    6.8210   53.6661   17.4546 C   0  0  0  0  0  0
    7.3555   52.4997   16.9059 C   0  0  0  0  0  0
    8.7376   52.3421   16.8221 C   0  0  0  0  0  0
    9.5958   53.3395   17.2811 C   0  0  0  0  0  0
    9.0697   54.5051   17.8320 C   0  0  0  0  0  0
    9.2517   51.2091   16.2964 F   0  0  0  0  0  0
    6.3726   57.0031   16.2956 C   0  0  0  0  0  0
    3.9017   57.6766   16.3819 C   0  0  0  0  0  0
    2.9155   58.8163   16.0668 C   0  0  0  0  0  0
    2.9782   59.2486   14.5909 C   0  0  0  0  0  0
    4.4138   59.5972   14.1619 C   0  0  0  0  0  0
    5.3933   58.4455   14.4448 C   0  0  0  0  0  0
    5.5658   54.0180   28.3339 H   0  0  0  0  0  0
    6.3789   54.2362   26.0647 H   0  0  0  0  0  0
    2.3611   53.7726   24.5633 H   0  0  0  0  0  0
    1.5499   53.5200   26.8588 H   0  0  0  0  0  0
    4.1469   53.7780   23.1240 H   0  0  0  0  0  0
    5.9044   53.6851   21.3885 H   0  0  0  0  0  0
    5.2833   55.3149   21.3448 H   0  0  0  0  0  0
    5.7477   53.7754   17.5291 H   0  0  0  0  0  0
    6.7022   51.7114   16.5652 H   0  0  0  0  0  0
   10.6650   53.2008   17.2211 H   0  0  0  0  0  0
    9.7405   55.2727   18.1966 H   0  0  0  0  0  0
    7.2875   57.2551   15.7583 H   0  0  0  0  0  0
    5.9701   56.0818   15.8736 H   0  0  0  0  0  0
    3.6556   56.7523   15.8560 H   0  0  0  0  0  0
    3.9195   57.4927   17.4563 H   0  0  0  0  0  0
    1.9011   58.4980   16.3128 H   0  0  0  0  0  0
    3.1075   59.6753   16.7154 H   0  0  0  0  0  0
    2.3247   60.1092   14.4307 H   0  0  0  0  0  0
    2.5907   58.4492   13.9569 H   0  0  0  0  0  0
    4.7470   60.4953   14.6892 H   0  0  0  0  0  0
    4.4347   59.8522   13.1013 H   0  0  0  0  0  0
    6.4128   58.7694   14.2306 H   0  0  0  0  0  0
    5.1605   57.5408   13.8820 H   0  0  0  0  0  0
    5.3302   58.1070   15.9535 N   0  3  0  0  0  0
    5.5760   58.9486   16.4643 H   0  0  0  0  0  0
  1  6  2  0  0  0
  1  2  1  0  0  0
  1 34  1  0  0  0
  2  3  2  0  0  0
  2 35  1  0  0  0
  3  4  1  0  0  0
  3 11  1  0  0  0
  4  5  2  0  0  0
  4 36  1  0  0  0
  5  6  1  0  0  0
  5 37  1  0  0  0
  6  7  1  0  0  0
  7  8  1  0  0  0
  7  9  1  0  0  0
  7 10  1  0  0  0
 11 12  1  0  0  0
 11 38  1  0  0  0
 12 13  2  0  0  0
 12 14  1  0  0  0
 14 15  1  0  0  0
 14 39  1  0  0  0
 14 40  1  0  0  0
 15 16  1  0  0  0
 16 20  1  0  0  0
 16 17  2  0  0  0
 17 18  1  0  0  0
 18 19  2  0  0  0
 19 20  1  0  0  0
 19 28  1  0  0  0
 20 21  1  0  0  0
 21 26  2  0  0  0
 21 22  1  0  0  0
 22 23  2  0  0  0
 22 41  1  0  0  0
 23 24  1  0  0  0
 23 42  1  0  0  0
 24 25  2  0  0  0
 24 27  1  0  0  0
 25 26  1  0  0  0
 25 43  1  0  0  0
 26 44  1  0  0  0
 28 45  1  0  0  0
 28 46  1  0  0  0
 28 57  1  0  0  0
 29 30  1  0  0  0
 29 47  1  0  0  0
 29 48  1  0  0  0
 29 57  1  0  0  0
 30 31  1  0  0  0
 30 49  1  0  0  0
 30 50  1  0  0  0
 31 32  1  0  0  0
 31 51  1  0  0  0
 31 52  1  0  0  0
 32 33  1  0  0  0
 32 53  1  0  0  0
 32 54  1  0  0  0
 33 55  1  0  0  0
 33 56  1  0  0  0
 33 57  1  0  0  0
 57 58  1  0  0  0
M  CHG  1  57   1
M  END
> <i_i_glide_confnum>
71

> <i_i_glide_lignum>
5327

> <i_i_glide_posenum>
263

> <i_i_glide_rotatable_bonds>
9

> <i_m_Source_File_Index>
417

> <b_m_subgroup_collapsed>
0

> <r_i_docking_score>
-5.40123

> <r_i_glide_ecoul>
-6.02812

> <r_i_glide_eff_state_penalty>
0

> <r_i_glide_einternal>
6.29101

> <r_i_glide_emodel>
-54.213

> <r_i_glide_energy>
-41.432

> <r_i_glide_erotb>
0.666639

> <r_i_glide_esite>
-0.182553

> <r_i_glide_evdw>
-35.4039

> <r_i_glide_gscore>
-5.40123

> <r_i_glide_hbond>
0

> <r_i_glide_ligand_efficiency>
-0.15886

> <r_i_glide_ligand_efficiency_ln>
-1.19328

> <r_i_glide_ligand_efficiency_sa>
-0.514643

> <r_i_glide_lipo>
-2.22497

> <r_i_glide_metal>
0

> <r_i_glide_rewards>
-0.985925

> <s_i_glide_gridfile>
wee1_glide-grid

> <s_m_Source_File>
wee1_decoys_glide_SP.sdf

> <s_m_Source_Path>
/Users/zhangxujun/Desktop

> <s_m_entry_id>
692

> <s_m_entry_name>
wee1_decoys_glide_SP.417

> <s_m_subgroup_title>
wee1_decoys_glide_SP

> <s_m_subgroupid>
wee1_decoys_glide_SP


$$$$
