@<TRIPOS>MOLECULE
ZINC16805233_4199
65   70    1
SMALL
USER_CHARGES


@<TRIPOS>ATOM
      1 C1          6.4136   55.0349   25.7568 C.ar      1 UNK         0.0000 
      2 C2          5.2267   54.7875   25.0783 C.ar      1 UNK         0.0000 
      3 C3          4.0964   54.3873   25.7838 C.ar      1 UNK         0.0000 
      4 C4          4.1370   54.2129   27.1789 C.ar      1 UNK         0.0000 
      5 C5          5.3401   54.4969   27.8443 C.ar      1 UNK         0.0000 
      6 C6          6.4724   54.8946   27.1397 C.ar      1 UNK         0.0000 
      7 C7          2.9123   53.6827   27.9766 C.3       1 UNK         0.0000 
      8 C8          3.3690   52.5848   28.9974 C.3       1 UNK         0.0000 
      9 C9          2.1787   52.0171   29.7960 C.3       1 UNK         0.0000 
     10 H10         2.5482   51.3026   30.5188 H         1 UNK         0.0000 
     11 C11         1.4840   53.1406   30.5804 C.3       1 UNK         0.0000 
     12 C12         1.0031   54.2404   29.6133 C.3       1 UNK         0.0000 
     13 H13         0.5350   55.0440   30.1835 H         1 UNK         0.0000 
     14 C14         2.2016   54.8111   28.7892 C.3       1 UNK         0.0000 
     15 C15        -0.0410   53.5837   28.6846 C.3       1 UNK         0.0000 
     16 C16         0.6346   52.4502   27.8396 C.3       1 UNK         0.0000 
     17 C17         1.1817   51.3691   28.8191 C.3       1 UNK         0.0000 
     18 C18         1.8276   53.0506   27.0399 C.3       1 UNK         0.0000 
     19 C19        -0.3618   51.7447   26.8867 C.2       1 UNK         0.0000 
     20 O20        -1.5674   52.0059   26.8692 O.2       1 UNK         0.0000 
     21 O21         0.2519   50.7972   26.1264 O.3       1 UNK         0.0000 
     22 C22        -0.4373   49.6469   25.6412 C.3       1 UNK         0.0000 
     23 C23        -1.0198   49.8495   24.2272 C.2       1 UNK         0.0000 
     24 O24        -0.5671   50.7516   23.5148 O.2       1 UNK         0.0000 
     25 N25        -2.0137   49.0216   23.7982 N.am      1 UNK         0.0000 
     26 C26        -2.9606   49.5645   22.8149 C.3       1 UNK         0.0000 
     27 C27        -4.1159   48.5763   22.7421 C.3       1 UNK         0.0000 
     28 C28        -3.9073   47.7289   23.9648 C.ar      1 UNK         0.0000 
     29 C29        -2.6360   47.9620   24.4943 C.ar      1 UNK         0.0000 
     30 C30        -2.1183   47.0777   25.4507 C.ar      1 UNK         0.0000 
     31 C31        -2.9337   46.1007   26.0124 C.ar      1 UNK         0.0000 
     32 C32        -4.2462   45.9476   25.5604 C.ar      1 UNK         0.0000 
     33 C33        -4.7204   46.7293   24.5022 C.ar      1 UNK         0.0000 
     34 S34        -5.3134   44.7663   26.3569 S.o2      1 UNK         0.0000 
     35 O35        -4.8956   43.4405   25.8937 O.2       1 UNK         0.0000 
     36 O36        -6.6890   45.2442   26.1958 O.2       1 UNK         0.0000 
     37 N37        -4.8956   44.8972   28.0383 N.pl3     1 UNK         0.0000 
     38 H38         7.2868   55.3398   25.1998 H         1 UNK         0.0000 
     39 H39         5.1829   54.8951   24.0047 H         1 UNK         0.0000 
     40 H40         3.2057   54.1958   25.2081 H         1 UNK         0.0000 
     41 H41         5.4228   54.4155   28.9164 H         1 UNK         0.0000 
     42 H42         7.3872   55.0908   27.6808 H         1 UNK         0.0000 
     43 H43         3.8850   51.7760   28.4822 H         1 UNK         0.0000 
     44 H44         4.0892   52.9764   29.7146 H         1 UNK         0.0000 
     45 H45         0.6541   52.7463   31.1715 H         1 UNK         0.0000 
     46 H46         2.1922   53.5355   31.2817 H         1 UNK         0.0000 
     47 H47         2.9126   55.2967   29.4596 H         1 UNK         0.0000 
     48 H48         1.8500   55.5948   28.1158 H         1 UNK         0.0000 
     49 H49        -0.4965   54.3590   28.0815 H         1 UNK         0.0000 
     50 H50        -0.8530   53.1679   29.2864 H         1 UNK         0.0000 
     51 H51         0.3604   50.8996   29.3628 H         1 UNK         0.0000 
     52 H52         1.6892   50.5656   28.2801 H         1 UNK         0.0000 
     53 H53         2.2985   52.2883   26.4189 H         1 UNK         0.0000 
     54 H54         1.4386   53.8036   26.3531 H         1 UNK         0.0000 
     55 H55        -1.2492   49.4085   26.3305 H         1 UNK         0.0000 
     56 H56         0.2636   48.8134   25.6438 H         1 UNK         0.0000 
     57 H57        -3.3821   50.4472   23.3014 H         1 UNK         0.0000 
     58 H58        -2.5589   49.9428   21.8739 H         1 UNK         0.0000 
     59 H59        -4.0128   47.9696   21.8415 H         1 UNK         0.0000 
     60 H60        -5.0818   49.0793   22.6669 H         1 UNK         0.0000 
     61 H61        -1.1112   47.1548   25.8231 H         1 UNK         0.0000 
     62 H62        -2.5422   45.4890   26.8139 H         1 UNK         0.0000 
     63 H63        -5.7132   46.5603   24.1096 H         1 UNK         0.0000 
     64 H64        -3.9790   44.4383   28.1981 H         1 UNK         0.0000 
     65 H65        -4.8670   45.8746   28.3413 H         1 UNK         0.0000 
@<TRIPOS>BOND
     1    1    6 ar   
     2    1    2 ar   
     3    1   38 1    
     4    2    3 ar   
     5    2   39 1    
     6    3    4 ar   
     7    3   40 1    
     8    4    5 ar   
     9    4    7 1    
    10    5    6 ar   
    11    5   41 1    
    12    6   42 1    
    13    7   14 1    
    14    7   18 1    
    15    7    8 1    
    16    8    9 1    
    17    8   43 1    
    18    8   44 1    
    19    9   10 1    
    20    9   17 1    
    21    9   11 1    
    22   11   12 1    
    23   11   45 1    
    24   11   46 1    
    25   12   13 1    
    26   12   14 1    
    27   12   15 1    
    28   14   47 1    
    29   14   48 1    
    30   15   16 1    
    31   15   49 1    
    32   15   50 1    
    33   16   17 1    
    34   16   18 1    
    35   16   19 1    
    36   17   51 1    
    37   17   52 1    
    38   18   53 1    
    39   18   54 1    
    40   19   20 2    
    41   19   21 1    
    42   21   22 1    
    43   22   23 1    
    44   22   55 1    
    45   22   56 1    
    46   23   24 2    
    47   23   25 am   BACKBONE|DICT|INTERRES
    48   25   29 1    
    49   25   26 1    
    50   26   27 1    
    51   26   57 1    
    52   26   58 1    
    53   27   28 1    
    54   27   59 1    
    55   27   60 1    
    56   28   33 ar   
    57   28   29 ar   
    58   29   30 ar   
    59   30   31 ar   
    60   30   61 1    
    61   31   32 ar   
    62   31   62 1    
    63   32   33 ar   
    64   32   34 1    
    65   33   63 1    
    66   34   35 2    
    67   34   36 2    
    68   34   37 1    
    69   37   64 1    
    70   37   65 1    
@<TRIPOS>SUBSTRUCTURE
     1 UNK         1 GROUP             0       ****    0 ROOT    
