@<TRIPOS>MOLECULE
ZINC02339597_2632
49   52    1
SMALL
USER_CHARGES


@<TRIPOS>ATOM
      1 C1          1.0539   53.5697   30.0773 C.ar      1 UNK         0.0000 
      2 C2          1.3627   54.9197   29.9149 C.ar      1 UNK         0.0000 
      3 C3          2.4230   55.2896   29.0914 C.ar      1 UNK         0.0000 
      4 C4          3.1633   54.3115   28.4254 C.ar      1 UNK         0.0000 
      5 C5          2.8567   52.9581   28.5999 C.ar      1 UNK         0.0000 
      6 C6          1.7958   52.5868   29.4236 C.ar      1 UNK         0.0000 
      7 O7          4.2146   54.7028   27.6272 O.3       1 UNK         0.0000 
      8 C8          4.2392   54.4201   26.2744 C.ar      1 UNK         0.0000 
      9 C9          3.0980   54.0937   25.5317 C.ar      1 UNK         0.0000 
     10 C10         3.1988   53.8365   24.1672 C.ar      1 UNK         0.0000 
     11 C11         4.4235   53.9240   23.5019 C.ar      1 UNK         0.0000 
     12 C12         5.5633   54.2437   24.2590 C.ar      1 UNK         0.0000 
     13 C13         5.4699   54.5003   25.6255 C.ar      1 UNK         0.0000 
     14 N14         4.4656   53.5149   22.1588 N.2       1 UNK         0.0000 
     15 C15         5.1288   54.0982   21.2464 C.2       1 UNK         0.0000 
     16 N16         5.8144   55.1821   21.2819 N.2       1 UNK         0.0000 
     17 C17         6.4917   55.7791   20.3196 C.2       1 UNK         0.0000 
     18 O18         7.0621   56.8618   20.4387 O.2       1 UNK         0.0000 
     19 C19         6.5972   55.0677   18.9456 C.3       1 UNK         0.0000 
     20 C20         5.4617   54.0158   18.7327 C.3       1 UNK         0.0000 
     21 H21         5.7874   53.2337   18.0442 H         1 UNK         0.0000 
     22 N22         5.1154   53.4263   20.0300 N.pl3     1 UNK         0.0000 
     23 C23         4.1643   54.5999   18.1101 C.2       1 UNK         0.0000 
     24 O24         4.0209   55.8184   17.9981 O.2       1 UNK         0.0000 
     25 N25         3.2433   53.6816   17.7409 N.am      1 UNK         0.0000 
     26 C26         1.9369   53.8600   17.2482 C.ar      1 UNK         0.0000 
     27 C27         1.3798   55.0970   16.8815 C.ar      1 UNK         0.0000 
     28 C28         0.0571   55.1652   16.4513 C.ar      1 UNK         0.0000 
     29 C29        -0.7069   54.0052   16.3753 C.ar      1 UNK         0.0000 
     30 C30        -0.1583   52.7724   16.7180 C.ar      1 UNK         0.0000 
     31 C31         1.1628   52.7002   17.1515 C.ar      1 UNK         0.0000 
     32 F32        -1.9922   54.0755   15.9662 F         1 UNK         0.0000 
     33 H33         0.2314   53.2802   30.7164 H         1 UNK         0.0000 
     34 H34         0.7849   55.6746   30.4280 H         1 UNK         0.0000 
     35 H35         2.6705   56.3326   28.9652 H         1 UNK         0.0000 
     36 H36         3.4366   52.2060   28.0861 H         1 UNK         0.0000 
     37 H37         1.5447   51.5446   29.5518 H         1 UNK         0.0000 
     38 H38         2.1290   54.0320   26.0050 H         1 UNK         0.0000 
     39 H39         2.3155   53.5581   23.6116 H         1 UNK         0.0000 
     40 H40         6.5319   54.2772   23.7818 H         1 UNK         0.0000 
     41 H41         6.3573   54.7485   26.1877 H         1 UNK         0.0000 
     42 H42         6.6400   55.8115   18.1485 H         1 UNK         0.0000 
     43 H43         7.5616   54.5603   18.9489 H         1 UNK         0.0000 
     44 H44         4.5993   52.5628   19.9919 H         1 UNK         0.0000 
     45 H45         3.5089   52.7186   17.8892 H         1 UNK         0.0000 
     46 H46         1.9404   56.0164   16.9313 H         1 UNK         0.0000 
     47 H47        -0.3751   56.1162   16.1798 H         1 UNK         0.0000 
     48 H48        -0.7564   51.8767   16.6501 H         1 UNK         0.0000 
     49 H49         1.5759   51.7382   17.4217 H         1 UNK         0.0000 
@<TRIPOS>BOND
     1    1    6 ar   
     2    1    2 ar   
     3    1   33 1    
     4    2    3 ar   
     5    2   34 1    
     6    3    4 ar   
     7    3   35 1    
     8    4    5 ar   
     9    4    7 1    
    10    5    6 ar   
    11    5   36 1    
    12    6   37 1    
    13    7    8 1    
    14    8   13 ar   
    15    8    9 ar   
    16    9   10 ar   
    17    9   38 1    
    18   10   11 ar   
    19   10   39 1    
    20   11   12 ar   
    21   11   14 1    
    22   12   13 ar   
    23   12   40 1    
    24   13   41 1    
    25   14   15 2    
    26   15   22 1    
    27   15   16 1    
    28   16   17 1    
    29   17   18 2    
    30   17   19 1    
    31   19   20 1    
    32   19   42 1    
    33   19   43 1    
    34   20   21 1    
    35   20   22 1    
    36   20   23 1    
    37   22   44 1    
    38   23   24 2    
    39   23   25 am   BACKBONE|DICT|INTERRES
    40   25   26 1    
    41   25   45 1    
    42   26   31 ar   
    43   26   27 ar   
    44   27   28 ar   
    45   27   46 1    
    46   28   29 ar   
    47   28   47 1    
    48   29   30 ar   
    49   29   32 1    
    50   30   31 ar   
    51   30   48 1    
    52   31   49 1    
@<TRIPOS>SUBSTRUCTURE
     1 UNK         1 GROUP             0       ****    0 ROOT    
