ZINC22131233_78
                    3D
 Schrodinger Suite 2024-2.
 54 57  0  0  1  0            999 V2000
    2.4063   53.4471   29.6431 C   0  0  0  0  0  0
    3.4325   53.4384   28.4967 C   0  0  2  0  0  0
    3.8057   52.4142   28.4189 H   0  0  0  0  0  0
    4.5945   54.4139   28.7912 C   0  0  0  0  0  0
    5.7685   54.2375   27.8000 C   0  0  0  0  0  0
    5.2023   54.2323   26.3857 C   0  0  0  0  0  0
    3.8414   54.0234   26.1162 C   0  0  0  0  0  0
    3.5833   54.0963   24.4044 S   0  0  0  0  0  0
    5.3036   54.3524   24.2072 C   0  0  0  0  0  0
    5.9782   54.4081   25.3279 N   0  0  0  0  0  0
    5.9445   54.5467   22.9879 N   0  0  0  0  0  0
    5.3963   54.4985   21.7501 C   0  0  0  0  0  0
    4.2446   54.1317   21.5158 O   0  0  0  0  0  0
    6.3031   54.8982   20.6035 C   0  0  0  0  0  0
    7.5070   55.5971   20.8129 C   0  0  0  0  0  0
    8.3521   55.8734   19.7400 C   0  0  0  0  0  0
    7.9959   55.4753   18.4519 C   0  0  0  0  0  0
    6.7784   54.8351   18.2237 C   0  0  0  0  0  0
    5.9419   54.5440   19.2951 C   0  0  0  0  0  0
    9.1217   55.7808   17.0937 S   0  0  0  0  0  0
    8.3994   55.5878   15.8325 O   0  0  0  0  0  0
    9.8029   57.0488   17.3840 O   0  0  0  0  0  0
   10.3610   54.5151   17.2159 N   0  0  0  0  0  0
   10.2536   53.2028   16.7199 C   0  0  0  0  0  0
    9.0169   52.6422   16.3663 C   0  0  0  0  0  0
    8.9386   51.3489   15.8575 C   0  0  0  0  0  0
   10.0939   50.5916   15.6933 C   0  0  0  0  0  0
   11.3299   51.1365   16.0321 C   0  0  0  0  0  0
   11.4298   52.4484   16.5399 C   0  0  0  0  0  0
   12.6349   53.0395   16.8905 O   0  0  0  0  0  0
   13.8399   52.2916   16.7621 C   0  0  0  0  0  0
    2.7508   53.8276   27.1611 C   0  0  0  0  0  0
    1.9994   54.4447   29.8154 H   0  0  0  0  0  0
    1.5694   52.7805   29.4338 H   0  0  0  0  0  0
    2.8586   53.1083   30.5753 H   0  0  0  0  0  0
    4.9710   54.2493   29.7977 H   0  0  0  0  0  0
    4.2134   55.4327   28.8159 H   0  0  0  0  0  0
    6.5063   55.0275   27.9416 H   0  0  0  0  0  0
    6.2729   53.2916   27.9987 H   0  0  0  0  0  0
    6.9355   54.7257   23.0432 H   0  0  0  0  0  0
    7.8232   55.9042   21.8012 H   0  0  0  0  0  0
    9.2898   56.3857   19.9156 H   0  0  0  0  0  0
    6.4824   54.5476   17.2263 H   0  0  0  0  0  0
    5.0177   54.0208   19.0940 H   0  0  0  0  0  0
   11.1880   54.7339   17.7506 H   0  0  0  0  0  0
    8.0984   53.1940   16.4779 H   0  0  0  0  0  0
    7.9785   50.9351   15.5883 H   0  0  0  0  0  0
   10.0315   49.5865   15.3018 H   0  0  0  0  0  0
   12.2065   50.5231   15.8881 H   0  0  0  0  0  0
   14.6795   52.9087   17.0799 H   0  0  0  0  0  0
   13.8266   51.4002   17.3924 H   0  0  0  0  0  0
   14.0202   51.9971   15.7264 H   0  0  0  0  0  0
    2.0394   53.0623   26.8512 H   0  0  0  0  0  0
    2.1953   54.7572   27.2820 H   0  0  0  0  0  0
  1  2  1  0  0  0
  1 33  1  0  0  0
  1 34  1  0  0  0
  1 35  1  0  0  0
  2  3  1  0  0  0
  2 32  1  0  0  0
  2  4  1  0  0  0
  4  5  1  0  0  0
  4 36  1  0  0  0
  4 37  1  0  0  0
  5  6  1  0  0  0
  5 38  1  0  0  0
  5 39  1  0  0  0
  6 10  1  0  0  0
  6  7  2  0  0  0
  7  8  1  0  0  0
  7 32  1  0  0  0
  8  9  1  0  0  0
  9 10  2  0  0  0
  9 11  1  0  0  0
 11 12  1  0  0  0
 11 40  1  0  0  0
 12 13  2  0  0  0
 12 14  1  0  0  0
 14 19  2  0  0  0
 14 15  1  0  0  0
 15 16  2  0  0  0
 15 41  1  0  0  0
 16 17  1  0  0  0
 16 42  1  0  0  0
 17 18  2  0  0  0
 17 20  1  0  0  0
 18 19  1  0  0  0
 18 43  1  0  0  0
 19 44  1  0  0  0
 20 21  2  0  0  0
 20 22  2  0  0  0
 20 23  1  0  0  0
 23 24  1  0  0  0
 23 45  1  0  0  0
 24 29  2  0  0  0
 24 25  1  0  0  0
 25 26  2  0  0  0
 25 46  1  0  0  0
 26 27  1  0  0  0
 26 47  1  0  0  0
 27 28  2  0  0  0
 27 48  1  0  0  0
 28 29  1  0  0  0
 28 49  1  0  0  0
 29 30  1  0  0  0
 30 31  1  0  0  0
 31 50  1  0  0  0
 31 51  1  0  0  0
 31 52  1  0  0  0
 32 53  1  0  0  0
 32 54  1  0  0  0
M  END
> <i_i_glide_confnum>
31

> <i_i_glide_lignum>
79

> <i_i_glide_posenum>
175

> <i_i_glide_rotatable_bonds>
7

> <i_m_Source_File_Index>
2567

> <b_m_subgroup_collapsed>
0

> <r_i_docking_score>
-5.07407

> <r_i_glide_ecoul>
-0.148051

> <r_i_glide_eff_state_penalty>
0

> <r_i_glide_einternal>
0.695879

> <r_i_glide_emodel>
-53.0865

> <r_i_glide_energy>
-41.3478

> <r_i_glide_erotb>
0.576188

> <r_i_glide_esite>
-0.00331884

> <r_i_glide_evdw>
-41.1997

> <r_i_glide_gscore>
-5.07407

> <r_i_glide_hbond>
0

> <r_i_glide_ligand_efficiency>
-0.16368

> <r_i_glide_ligand_efficiency_ln>
-1.14436

> <r_i_glide_ligand_efficiency_sa>
-0.51418

> <r_i_glide_lipo>
-3.04151

> <r_i_glide_metal>
0

> <r_i_glide_rewards>
-0.523234

> <s_i_glide_gridfile>
wee1_glide-grid

> <s_m_Source_File>
wee1_decoys_glide_SP.sdf

> <s_m_Source_Path>
/Users/zhangxujun/Desktop

> <s_m_entry_id>
2842

> <s_m_entry_name>
wee1_decoys_glide_SP.2567

> <s_m_subgroup_title>
wee1_decoys_glide_SP

> <s_m_subgroupid>
wee1_decoys_glide_SP


$$$$
