@<TRIPOS>MOLECULE
ZINC23153778_4433
49   52    1
SMALL
USER_CHARGES


@<TRIPOS>ATOM
      1 C1          5.5393   53.7558   28.0582 C.ar      1 UNK         0.0000 
      2 C2          4.1468   53.8254   28.0114 C.ar      1 UNK         0.0000 
      3 C3          3.5076   54.0614   26.7964 C.ar      1 UNK         0.0000 
      4 C4          4.2635   54.2348   25.6337 C.ar      1 UNK         0.0000 
      5 C5          5.6584   54.1346   25.6839 C.ar      1 UNK         0.0000 
      6 C6          6.2971   53.9071   26.8989 C.ar      1 UNK         0.0000 
      7 C7          3.5791   54.4968   24.2980 C.3       1 UNK         0.0000 
      8 N8          3.1900   53.2967   23.5607 N.3       1 UNK         0.0000 
      9 C9          3.1138   53.5707   22.1225 C.3       1 UNK         0.0000 
     10 C10         3.0047   52.2611   21.3014 C.3       1 UNK         0.0000 
     11 C11         1.9703   51.3017   21.9063 C.2       1 UNK         0.0000 
     12 C12         1.4936   51.5632   23.1951 C.2       1 UNK         0.0000 
     13 S13         0.2982   50.4379   23.7046 S.3       1 UNK         0.0000 
     14 C14         0.3508   49.6254   22.1605 C.2       1 UNK         0.0000 
     15 C15         1.3494   50.1583   21.3063 C.2       1 UNK         0.0000 
     16 C16         1.6333   49.6060   19.9741 C.2       1 UNK         0.0000 
     17 O17         0.9381   48.7246   19.4710 O.2       1 UNK         0.0000 
     18 N18         2.7041   50.0672   19.3257 N.am      1 UNK         0.0000 
     19 N19        -0.4955   48.5539   21.8556 N.am      1 UNK         0.0000 
     20 C20        -1.4836   47.9905   22.5891 C.2       1 UNK         0.0000 
     21 O21        -1.8560   48.4004   23.6886 O.2       1 UNK         0.0000 
     22 C22        -2.1644   46.7819   21.9711 C.ar      1 UNK         0.0000 
     23 C23        -1.6306   46.1190   20.8494 C.ar      1 UNK         0.0000 
     24 C24        -2.2567   44.9877   20.3297 C.ar      1 UNK         0.0000 
     25 C25        -3.4225   44.5067   20.9213 C.ar      1 UNK         0.0000 
     26 C26        -3.9726   45.1555   22.0233 C.ar      1 UNK         0.0000 
     27 C27        -3.3448   46.2838   22.5456 C.ar      1 UNK         0.0000 
     28 Br28       -4.2649   42.9513   20.2188 Br        1 UNK         0.0000 
     29 C29         1.9018   52.7686   24.0304 C.3       1 UNK         0.0000 
     30 H30         6.0399   53.5738   28.9948 H         1 UNK         0.0000 
     31 H31         3.5669   53.6951   28.9128 H         1 UNK         0.0000 
     32 H32         2.4279   54.1158   26.7615 H         1 UNK         0.0000 
     33 H33         6.2476   54.2393   24.7829 H         1 UNK         0.0000 
     34 H34         7.3745   53.8342   26.9461 H         1 UNK         0.0000 
     35 H35         4.3042   55.0455   23.6977 H         1 UNK         0.0000 
     36 H36         2.7216   55.1591   24.4374 H         1 UNK         0.0000 
     37 H37         2.3052   54.2695   21.9111 H         1 UNK         0.0000 
     38 H38         4.0216   54.0746   21.7811 H         1 UNK         0.0000 
     39 H39         3.9863   51.7884   21.2624 H         1 UNK         0.0000 
     40 H40         2.7894   52.5321   20.2675 H         1 UNK         0.0000 
     41 H41         2.9624   49.6962   18.4161 H         1 UNK         0.0000 
     42 H42         3.3001   50.7693   19.7321 H         1 UNK         0.0000 
     43 H43        -0.3472   48.1876   20.9247 H         1 UNK         0.0000 
     44 H44        -0.7213   46.4539   20.3688 H         1 UNK         0.0000 
     45 H45        -1.8363   44.4876   19.4689 H         1 UNK         0.0000 
     46 H46        -4.8835   44.7850   22.4723 H         1 UNK         0.0000 
     47 H47        -3.7864   46.7704   23.4059 H         1 UNK         0.0000 
     48 H48         1.1207   53.5274   23.9477 H         1 UNK         0.0000 
     49 H49         1.9893   52.4853   25.0789 H         1 UNK         0.0000 
@<TRIPOS>BOND
     1    1    6 ar   
     2    1    2 ar   
     3    1   30 1    
     4    2    3 ar   
     5    2   31 1    
     6    3    4 ar   
     7    3   32 1    
     8    4    5 ar   
     9    4    7 1    
    10    5    6 ar   
    11    5   33 1    
    12    6   34 1    
    13    7    8 1    
    14    7   35 1    
    15    7   36 1    
    16    8   29 1    
    17    8    9 1    
    18    9   10 1    
    19    9   37 1    
    20    9   38 1    
    21   10   11 1    
    22   10   39 1    
    23   10   40 1    
    24   11   15 1    
    25   11   12 2    
    26   12   13 1    
    27   12   29 1    
    28   13   14 1    
    29   14   15 2    
    30   14   19 am   BACKBONE|DICT|INTERRES
    31   15   16 1    
    32   16   17 2    
    33   16   18 am   BACKBONE|DICT|INTERRES
    34   18   41 1    
    35   18   42 1    
    36   19   20 am   BACKBONE|DICT|INTERRES
    37   19   43 1    
    38   20   21 2    
    39   20   22 1    
    40   22   27 ar   
    41   22   23 ar   
    42   23   24 ar   
    43   23   44 1    
    44   24   25 ar   
    45   24   45 1    
    46   25   26 ar   
    47   25   28 1    
    48   26   27 ar   
    49   26   46 1    
    50   27   47 1    
    51   29   48 1    
    52   29   49 1    
@<TRIPOS>SUBSTRUCTURE
     1 UNK         1 GROUP             0       ****    0 ROOT    
