ZINC09367469_10
                    3D
 Schrodinger Suite 2024-2.
 48 51  0  0  1  0            999 V2000
    2.0870   52.4913   30.2642 C   0  0  0  0  0  0
    1.9848   53.4671   29.0749 C   0  0  1  0  0  0
    1.5818   54.4100   29.4486 H   0  0  0  0  0  0
    3.2746   53.7995   28.3902 C   0  0  0  0  0  0
    4.5239   54.1607   28.8897 C   0  0  0  0  0  0
    5.5495   54.4831   28.0027 C   0  0  0  0  0  0
    5.3251   54.4634   26.6239 C   0  0  0  0  0  0
    4.0665   54.1079   26.0951 C   0  0  0  0  0  0
    3.0627   53.7755   27.0223 C   0  0  0  0  0  0
    1.7688   53.4336   26.7040 O   0  0  0  0  0  0
    1.0945   53.0129   27.8927 C   0  0  1  0  0  0
    0.1012   53.4605   27.9546 H   0  0  0  0  0  0
    0.9394   51.4903   27.7110 C   0  0  0  0  0  0
    3.8094   54.0979   24.6008 C   0  0  0  0  0  0
    2.6575   54.0678   24.1631 O   0  0  0  0  0  0
    4.9039   54.1420   23.8056 N   0  0  0  0  0  0
    4.9299   54.1227   22.4017 C   0  0  0  0  0  0
    4.0364   53.3491   21.6504 C   0  0  0  0  0  0
    4.1049   53.3610   20.2634 C   0  0  0  0  0  0
    5.0582   54.1530   19.6241 C   0  0  0  0  0  0
    5.9620   54.9148   20.3663 C   0  0  0  0  0  0
    5.9034   54.8956   21.7585 C   0  0  0  0  0  0
    5.1307   54.1616   17.8400 S   0  0  0  0  0  0
    3.8317   53.6974   17.3425 O   0  0  0  0  0  0
    5.6853   55.4535   17.4191 O   0  0  0  0  0  0
    6.3014   52.8968   17.4487 N   0  0  0  0  0  0
    7.6491   53.0829   17.2743 C   0  0  0  0  0  0
    8.3344   54.1559   17.5932 N   0  0  0  0  0  0
    9.6119   54.0303   17.2903 C   0  0  0  0  0  0
    9.9917   52.8167   16.7258 C   0  0  0  0  0  0
    8.5919   51.7982   16.5859 S   0  0  0  0  0  0
    2.6934   52.8970   31.0725 H   0  0  0  0  0  0
    2.5516   51.5544   29.9591 H   0  0  0  0  0  0
    1.1036   52.2620   30.6765 H   0  0  0  0  0  0
    4.7050   54.2055   29.9525 H   0  0  0  0  0  0
    6.5196   54.7627   28.3865 H   0  0  0  0  0  0
    6.1490   54.7431   25.9852 H   0  0  0  0  0  0
    0.3580   51.0498   28.5216 H   0  0  0  0  0  0
    0.4189   51.2578   26.7819 H   0  0  0  0  0  0
    1.9047   50.9868   27.6820 H   0  0  0  0  0  0
    5.7902   54.2938   24.2568 H   0  0  0  0  0  0
    3.2921   52.7297   22.1292 H   0  0  0  0  0  0
    3.4117   52.7602   19.6905 H   0  0  0  0  0  0
    6.7084   55.5150   19.8665 H   0  0  0  0  0  0
    6.6079   55.4830   22.3290 H   0  0  0  0  0  0
    5.9044   51.9579   17.5216 H   0  0  0  0  0  0
   10.2822   54.8506   17.5043 H   0  0  0  0  0  0
   10.9702   52.4801   16.4152 H   0  0  0  0  0  0
  1  2  1  0  0  0
  1 32  1  0  0  0
  1 33  1  0  0  0
  1 34  1  0  0  0
  2  3  1  0  0  0
  2 11  1  0  0  0
  2  4  1  0  0  0
  4  9  2  0  0  0
  4  5  1  0  0  0
  5  6  2  0  0  0
  5 35  1  0  0  0
  6  7  1  0  0  0
  6 36  1  0  0  0
  7  8  2  0  0  0
  7 37  1  0  0  0
  8  9  1  0  0  0
  8 14  1  0  0  0
  9 10  1  0  0  0
 10 11  1  0  0  0
 11 12  1  0  0  0
 11 13  1  0  0  0
 13 38  1  0  0  0
 13 39  1  0  0  0
 13 40  1  0  0  0
 14 15  2  0  0  0
 14 16  1  0  0  0
 16 17  1  0  0  0
 16 41  1  0  0  0
 17 22  2  0  0  0
 17 18  1  0  0  0
 18 19  2  0  0  0
 18 42  1  0  0  0
 19 20  1  0  0  0
 19 43  1  0  0  0
 20 21  2  0  0  0
 20 23  1  0  0  0
 21 22  1  0  0  0
 21 44  1  0  0  0
 22 45  1  0  0  0
 23 24  2  0  0  0
 23 25  2  0  0  0
 23 26  1  0  0  0
 26 27  1  0  0  0
 26 46  1  0  0  0
 27 31  1  0  0  0
 27 28  2  0  0  0
 28 29  1  0  0  0
 29 30  2  0  0  0
 29 47  1  0  0  0
 30 31  1  0  0  0
 30 48  1  0  0  0
M  END
> <i_i_glide_confnum>
70

> <i_i_glide_lignum>
11

> <i_i_glide_posenum>
335

> <i_i_glide_rotatable_bonds>
6

> <i_m_Source_File_Index>
5849

> <b_m_subgroup_collapsed>
0

> <r_i_docking_score>
-5.61367

> <r_i_glide_ecoul>
-1.48895

> <r_i_glide_eff_state_penalty>
0

> <r_i_glide_einternal>
2.00694

> <r_i_glide_emodel>
-60.941

> <r_i_glide_energy>
-45.4522

> <r_i_glide_erotb>
0.646341

> <r_i_glide_esite>
-0.121288

> <r_i_glide_evdw>
-43.9633

> <r_i_glide_gscore>
-5.61367

> <r_i_glide_hbond>
-0.16

> <r_i_glide_ligand_efficiency>
-0.193575

> <r_i_glide_ligand_efficiency_ln>
-1.28539

> <r_i_glide_ligand_efficiency_sa>
-0.594723

> <r_i_glide_lipo>
-2.76654

> <r_i_glide_metal>
0

> <r_i_glide_rewards>
-0.790674

> <s_i_glide_gridfile>
wee1_glide-grid

> <s_m_Source_File>
wee1_decoys_glide_SP.sdf

> <s_m_Source_Path>
/Users/zhangxujun/Desktop

> <s_m_entry_id>
6124

> <s_m_entry_name>
wee1_decoys_glide_SP.5849

> <s_m_subgroup_title>
wee1_decoys_glide_SP

> <s_m_subgroupid>
wee1_decoys_glide_SP


$$$$
