@<TRIPOS>MOLECULE
ZINC39326702_700
70   73    1
SMALL
USER_CHARGES


@<TRIPOS>ATOM
      1 C1          4.2537   53.4052   21.3510 C.3       1 UNK         0.0000 
      2 C2          5.2438   53.9183   22.4054 C.3       1 UNK         0.0000 
      3 C3          6.2806   54.8953   21.7961 C.3       1 UNK         0.0000 
      4 O4          4.4549   54.4967   23.4490 O.3       1 UNK         0.0000 
      5 C5          4.9901   54.5140   24.7184 C.ar      1 UNK         0.0000 
      6 C6          6.1199   55.2847   24.9985 C.ar      1 UNK         0.0000 
      7 C7          6.6652   55.2871   26.2745 C.ar      1 UNK         0.0000 
      8 C8          6.1210   54.4987   27.2809 C.ar      1 UNK         0.0000 
      9 C9          4.9702   53.7628   27.0223 C.ar      1 UNK         0.0000 
     10 C10         4.3585   53.8195   25.7621 C.ar      1 UNK         0.0000 
     11 C11         3.0916   53.1090   25.5238 C.2       1 UNK         0.0000 
     12 C12         1.9842   53.1044   26.3030 C.2       1 UNK         0.0000 
     13 C13         1.8407   54.0237   27.5217 C.3       1 UNK         0.0000 
     14 N14         1.1283   53.3084   28.5957 N.am      1 UNK         0.0000 
     15 C15        -0.1289   52.5903   28.2895 C.3       1 UNK         0.0000 
     16 C16        -0.1541   52.0124   26.8713 C.2       1 UNK         0.0000 
     17 C17         0.8686   52.2138   26.0061 C.2       1 UNK         0.0000 
     18 O18         0.9413   51.5610   24.8095 O.3       1 UNK         0.0000 
     19 C19         0.1862   50.4567   24.6000 C.2       1 UNK         0.0000 
     20 C20        -0.8762   50.1397   25.3654 C.2       1 UNK         0.0000 
     21 C21        -1.3366   51.0992   26.4748 C.3       1 UNK         0.0000 
     22 H22        -1.5696   50.4937   27.3492 H         1 UNK         0.0000 
     23 C23        -2.5924   51.8899   26.0746 C.ar      1 UNK         0.0000 
     24 C24        -2.5913   52.5994   24.8645 C.ar      1 UNK         0.0000 
     25 C25        -3.7021   53.3414   24.4668 C.ar      1 UNK         0.0000 
     26 C26        -4.8308   53.3979   25.2771 C.ar      1 UNK         0.0000 
     27 C27        -4.8470   52.7007   26.4816 C.ar      1 UNK         0.0000 
     28 C28        -3.7466   51.9353   26.8794 C.ar      1 UNK         0.0000 
     29 O29        -3.8283   51.2848   28.0866 O.3       1 UNK         0.0000 
     30 C30        -4.2529   49.9142   28.0734 C.3       1 UNK         0.0000 
     31 C31        -4.5603   49.5449   29.5305 C.3       1 UNK         0.0000 
     32 C32        -5.4665   49.6123   27.1672 C.3       1 UNK         0.0000 
     33 C33        -1.6019   48.9314   25.1302 C.1       1 UNK         0.0000 
     34 N34        -2.1799   47.9574   24.8832 N.1       1 UNK         0.0000 
     35 N35         0.7313   49.7335   23.5759 N.pl3     1 UNK         0.0000 
     36 C36         1.6809   53.2566   29.8363 C.2       1 UNK         0.0000 
     37 O37         2.8046   53.7002   30.0822 O.2       1 UNK         0.0000 
     38 C38         0.8444   52.7566   31.0189 C.3       1 UNK         0.0000 
     39 H39         4.7671   52.9173   20.5221 H         1 UNK         0.0000 
     40 H40         3.5639   52.6787   21.7831 H         1 UNK         0.0000 
     41 H41         3.6547   54.2223   20.9448 H         1 UNK         0.0000 
     42 H42         5.7795   53.0466   22.7914 H         1 UNK         0.0000 
     43 H43         5.8908   55.9019   21.6761 H         1 UNK         0.0000 
     44 H44         7.1814   54.9554   22.4059 H         1 UNK         0.0000 
     45 H45         6.6041   54.5577   20.8113 H         1 UNK         0.0000 
     46 H46         6.5636   55.9089   24.2397 H         1 UNK         0.0000 
     47 H47         7.5036   55.9164   26.4816 H         1 UNK         0.0000 
     48 H48         6.5641   54.4904   28.2672 H         1 UNK         0.0000 
     49 H49         4.5410   53.1671   27.8159 H         1 UNK         0.0000 
     50 H50         3.1044   52.4970   24.6371 H         1 UNK         0.0000 
     51 H51         2.7846   54.4547   27.8482 H         1 UNK         0.0000 
     52 H52         1.2239   54.8880   27.2811 H         1 UNK         0.0000 
     53 H53        -0.4283   51.8426   29.0235 H         1 UNK         0.0000 
     54 H54        -0.8956   53.3492   28.3322 H         1 UNK         0.0000 
     55 H55        -1.7184   52.5857   24.2288 H         1 UNK         0.0000 
     56 H56        -3.6786   53.8846   23.5342 H         1 UNK         0.0000 
     57 H57        -5.6918   53.9739   24.9711 H         1 UNK         0.0000 
     58 H58        -5.7216   52.7409   27.1136 H         1 UNK         0.0000 
     59 H59        -3.4238   49.2976   27.7271 H         1 UNK         0.0000 
     60 H60        -5.3843   50.1373   29.9276 H         1 UNK         0.0000 
     61 H61        -4.8269   48.4922   29.6246 H         1 UNK         0.0000 
     62 H62        -3.6941   49.7133   30.1692 H         1 UNK         0.0000 
     63 H63        -5.2308   49.7810   26.1168 H         1 UNK         0.0000 
     64 H64        -5.7738   48.5696   27.2598 H         1 UNK         0.0000 
     65 H65        -6.3217   50.2379   27.4272 H         1 UNK         0.0000 
     66 H66         1.7136   49.8267   23.3626 H         1 UNK         0.0000 
     67 H67         0.2725   48.8979   23.2445 H         1 UNK         0.0000 
     68 H68         0.6228   51.6969   30.9247 H         1 UNK         0.0000 
     69 H69         1.3753   52.8960   31.9607 H         1 UNK         0.0000 
     70 H70        -0.0982   53.3020   31.0844 H         1 UNK         0.0000 
@<TRIPOS>BOND
     1    1    2 1    
     2    1   39 1    
     3    1   40 1    
     4    1   41 1    
     5    2    3 1    
     6    2    4 1    
     7    2   42 1    
     8    3   43 1    
     9    3   44 1    
    10    3   45 1    
    11    4    5 1    
    12    5   10 ar   
    13    5    6 ar   
    14    6    7 ar   
    15    6   46 1    
    16    7    8 ar   
    17    7   47 1    
    18    8    9 ar   
    19    8   48 1    
    20    9   10 ar   
    21    9   49 1    
    22   10   11 1    
    23   11   12 2    
    24   11   50 1    
    25   12   17 1    
    26   12   13 1    
    27   13   14 1    
    28   13   51 1    
    29   13   52 1    
    30   14   15 1    
    31   14   36 am   BACKBONE|DICT|INTERRES
    32   15   16 1    
    33   15   53 1    
    34   15   54 1    
    35   16   21 1    
    36   16   17 2    
    37   17   18 1    
    38   18   19 1    
    39   19   20 2    
    40   19   35 1    
    41   20   21 1    
    42   20   33 1    
    43   21   22 1    
    44   21   23 1    
    45   23   28 ar   
    46   23   24 ar   
    47   24   25 ar   
    48   24   55 1    
    49   25   26 ar   
    50   25   56 1    
    51   26   27 ar   
    52   26   57 1    
    53   27   28 ar   
    54   27   58 1    
    55   28   29 1    
    56   29   30 1    
    57   30   31 1    
    58   30   32 1    
    59   30   59 1    
    60   31   60 1    
    61   31   61 1    
    62   31   62 1    
    63   32   63 1    
    64   32   64 1    
    65   32   65 1    
    66   33   34 3    
    67   35   66 1    
    68   35   67 1    
    69   36   37 2    
    70   36   38 1    
    71   38   68 1    
    72   38   69 1    
    73   38   70 1    
@<TRIPOS>SUBSTRUCTURE
     1 UNK         1 GROUP             0       ****    0 ROOT    
