@<TRIPOS>MOLECULE
ZINC12376102_6092
54   58    1
SMALL
USER_CHARGES


@<TRIPOS>ATOM
      1 C1          4.3823   58.4967   16.4489 C.ar      1 UNK         0.0000 
      2 C2          5.6749   58.1288   16.8085 C.ar      1 UNK         0.0000 
      3 C3          5.9010   56.8888   17.3991 C.ar      1 UNK         0.0000 
      4 C4          4.8330   56.0133   17.6321 C.ar      1 UNK         0.0000 
      5 C5          3.5320   56.4044   17.2823 C.ar      1 UNK         0.0000 
      6 C6          3.3086   57.6434   16.6876 C.ar      1 UNK         0.0000 
      7 C7          5.1012   54.6312   18.2597 C.3       1 UNK         0.0000 
      8 H8          6.0461   54.3537   17.7883 H         1 UNK         0.0000 
      9 C9          5.3419   54.6540   19.7706 C.2       1 UNK         0.0000 
     10 C10         4.6728   53.8447   20.6204 C.2       1 UNK         0.0000 
     11 N11         3.7160   52.9194   20.1655 N.pl3     1 UNK         0.0000 
     12 C12         3.5051   52.7058   18.7878 C.2       1 UNK         0.0000 
     13 C13         4.1328   53.4888   17.8549 C.2       1 UNK         0.0000 
     14 C14         3.9660   53.2559   16.3934 C.2       1 UNK         0.0000 
     15 O15         4.7322   53.7435   15.5628 O.2       1 UNK         0.0000 
     16 C16         2.9329   52.2198   15.9470 C.3       1 UNK         0.0000 
     17 C17         1.8390   52.0050   16.9984 C.3       1 UNK         0.0000 
     18 C18         2.4657   51.6464   18.3549 C.3       1 UNK         0.0000 
     19 C19         2.9981   52.1593   21.0850 C.2       1 UNK         0.0000 
     20 N20         3.1401   50.8750   21.3066 N.2       1 UNK         0.0000 
     21 N21         2.3097   50.4112   22.3215 N.2       1 UNK         0.0000 
     22 C22         1.5905   51.3555   22.8778 C.2       1 UNK         0.0000 
     23 S23         1.7880   52.8953   22.0913 S.3       1 UNK         0.0000 
     24 S24         0.5036   51.0628   24.2372 S.3       1 UNK         0.0000 
     25 C25         0.3758   52.6978   25.0472 C.3       1 UNK         0.0000 
     26 C26         1.2785   52.8019   26.2752 C.ar      1 UNK         0.0000 
     27 C27         0.9020   52.1190   27.4389 C.ar      1 UNK         0.0000 
     28 C28         1.6814   52.1927   28.5924 C.ar      1 UNK         0.0000 
     29 C29         2.8478   52.9535   28.5968 C.ar      1 UNK         0.0000 
     30 C30         3.2337   53.6405   27.4467 C.ar      1 UNK         0.0000 
     31 C31         2.4616   53.5690   26.2845 C.ar      1 UNK         0.0000 
     32 Cl32        3.0084   54.4542   24.8994 Cl        1 UNK         0.0000 
     33 N33         4.9318   53.8626   21.9787 N.pl3     1 UNK         0.0000 
     34 C34         6.3151   55.5746   20.2732 C.1       1 UNK         0.0000 
     35 N35         7.1032   56.3047   20.7062 N.1       1 UNK         0.0000 
     36 H36         4.2066   59.4579   15.9890 H         1 UNK         0.0000 
     37 H37         6.4948   58.8106   16.6326 H         1 UNK         0.0000 
     38 H38         6.9104   56.6078   17.6686 H         1 UNK         0.0000 
     39 H39         2.6923   55.7520   17.4744 H         1 UNK         0.0000 
     40 H40         2.3062   57.9489   16.4235 H         1 UNK         0.0000 
     41 H41         3.4941   51.2949   15.8360 H         1 UNK         0.0000 
     42 H42         2.5409   52.4812   14.9651 H         1 UNK         0.0000 
     43 H43         1.1663   51.2074   16.6789 H         1 UNK         0.0000 
     44 H44         1.2278   52.9050   17.0894 H         1 UNK         0.0000 
     45 H45         2.8766   50.6364   18.4000 H         1 UNK         0.0000 
     46 H46         1.6054   51.6586   19.0230 H         1 UNK         0.0000 
     47 H47         0.5167   53.5344   24.3687 H         1 UNK         0.0000 
     48 H48        -0.6588   52.8114   25.3724 H         1 UNK         0.0000 
     49 H49         0.0023   51.5183   27.4512 H         1 UNK         0.0000 
     50 H50         1.3776   51.6550   29.4812 H         1 UNK         0.0000 
     51 H51         3.4530   53.0135   29.4899 H         1 UNK         0.0000 
     52 H52         4.1412   54.2249   27.4551 H         1 UNK         0.0000 
     53 H53         5.6079   54.5021   22.3687 H         1 UNK         0.0000 
     54 H54         4.4444   53.2473   22.6132 H         1 UNK         0.0000 
@<TRIPOS>BOND
     1    1    6 ar   
     2    1    2 ar   
     3    1   36 1    
     4    2    3 ar   
     5    2   37 1    
     6    3    4 ar   
     7    3   38 1    
     8    4    5 ar   
     9    4    7 1    
    10    5    6 ar   
    11    5   39 1    
    12    6   40 1    
    13    7    8 1    
    14    7   13 1    
    15    7    9 1    
    16    9   10 2    
    17    9   34 1    
    18   10   11 1    
    19   10   33 1    
    20   11   12 1    
    21   11   19 1    
    22   12   18 1    
    23   12   13 2    
    24   13   14 1    
    25   14   15 2    
    26   14   16 1    
    27   16   17 1    
    28   16   41 1    
    29   16   42 1    
    30   17   18 1    
    31   17   43 1    
    32   17   44 1    
    33   18   45 1    
    34   18   46 1    
    35   19   23 1    
    36   19   20 2    
    37   20   21 1    
    38   21   22 2    
    39   22   23 1    
    40   22   24 1    
    41   24   25 1    
    42   25   26 1    
    43   25   47 1    
    44   25   48 1    
    45   26   31 ar   
    46   26   27 ar   
    47   27   28 ar   
    48   27   49 1    
    49   28   29 ar   
    50   28   50 1    
    51   29   30 ar   
    52   29   51 1    
    53   30   31 ar   
    54   30   52 1    
    55   31   32 1    
    56   33   53 1    
    57   33   54 1    
    58   34   35 3    
@<TRIPOS>SUBSTRUCTURE
     1 UNK         1 GROUP             0       ****    0 ROOT    
