@<TRIPOS>MOLECULE
ZINC09239324_55
52   55    1
SMALL
USER_CHARGES


@<TRIPOS>ATOM
      1 C1         -3.7612   46.6210   27.0707 C.3       1 UNK         0.0000 
      2 C2         -2.4284   46.1951   26.4392 C.3       1 UNK         0.0000 
      3 C3         -2.2295   46.7789   25.0477 C.ar      1 UNK         0.0000 
      4 N4         -2.3339   46.1004   23.9299 N.2       1 UNK         0.0000 
      5 N5         -2.1477   47.0052   22.8835 N.2       1 UNK         0.0000 
      6 C6         -1.9582   48.1915   23.4109 C.ar      1 UNK         0.0000 
      7 N7         -1.9664   48.1035   24.7787 N.pl3     1 UNK         0.0000 
      8 N8         -1.8113   49.1410   25.6829 N.3       1 UNK         0.0000 
      9 C9         -0.8102   50.1298   25.2758 C.3       1 UNK         0.0000 
     10 H10         0.0944   49.5752   25.0121 H         1 UNK         0.0000 
     11 C11        -1.3526   50.8402   23.9834 C.3       1 UNK         0.0000 
     12 H12        -2.2635   51.3970   24.2080 H         1 UNK         0.0000 
     13 S13        -1.7276   49.7184   22.5519 S.3       1 UNK         0.0000 
     14 C14        -0.3384   51.8845   23.4615 C.2       1 UNK         0.0000 
     15 O15        -0.5471   53.0781   23.6818 O.2       1 UNK         0.0000 
     16 N16         0.7467   51.4061   22.8151 N.am      1 UNK         0.0000 
     17 C17         1.8412   52.0907   22.2593 C.ar      1 UNK         0.0000 
     18 C18         2.3053   53.3102   22.7798 C.ar      1 UNK         0.0000 
     19 C19         3.4159   53.9413   22.2204 C.ar      1 UNK         0.0000 
     20 C20         4.0754   53.3567   21.1415 C.ar      1 UNK         0.0000 
     21 C21         3.6231   52.1458   20.6154 C.ar      1 UNK         0.0000 
     22 C22         2.5045   51.4993   21.1619 C.ar      1 UNK         0.0000 
     23 C23         2.0061   50.1797   20.5485 C.3       1 UNK         0.0000 
     24 F24         2.0756   49.2094   21.4612 F         1 UNK         0.0000 
     25 F25         0.7357   50.3098   20.1669 F         1 UNK         0.0000 
     26 F26         2.7053   49.7967   19.4835 F         1 UNK         0.0000 
     27 C27        -0.3715   51.0784   26.4234 C.ar      1 UNK         0.0000 
     28 C28        -1.1550   51.2968   27.5650 C.ar      1 UNK         0.0000 
     29 C29        -0.6838   52.0900   28.6129 C.ar      1 UNK         0.0000 
     30 C30         0.5737   52.7017   28.5312 C.ar      1 UNK         0.0000 
     31 C31         1.3384   52.5155   27.3852 C.ar      1 UNK         0.0000 
     32 C32         0.8711   51.7156   26.3494 C.ar      1 UNK         0.0000 
     33 O33         1.1353   53.4821   29.5238 O.3       1 UNK         0.0000 
     34 C34         0.3923   53.7347   30.7089 C.3       1 UNK         0.0000 
     35 H35        -3.8729   46.1822   28.0631 H         1 UNK         0.0000 
     36 H36        -3.8203   47.7043   27.1873 H         1 UNK         0.0000 
     37 H37        -4.6089   46.3016   26.4635 H         1 UNK         0.0000 
     38 H38        -2.3888   45.1076   26.4353 H         1 UNK         0.0000 
     39 H39        -1.6150   46.4951   27.0967 H         1 UNK         0.0000 
     40 H40        -1.5510   48.7367   26.5859 H         1 UNK         0.0000 
     41 H41         0.7287   50.4172   22.6114 H         1 UNK         0.0000 
     42 H42         1.8224   53.7773   23.6244 H         1 UNK         0.0000 
     43 H43         3.7548   54.8919   22.6129 H         1 UNK         0.0000 
     44 H44         4.9321   53.8455   20.6995 H         1 UNK         0.0000 
     45 H45         4.1473   51.7177   19.7701 H         1 UNK         0.0000 
     46 H46        -2.1155   50.8141   27.6753 H         1 UNK         0.0000 
     47 H47        -1.2973   52.1931   29.4949 H         1 UNK         0.0000 
     48 H48         2.3092   52.9832   27.3069 H         1 UNK         0.0000 
     49 H49         1.5023   51.5888   25.4833 H         1 UNK         0.0000 
     50 H50         0.9990   54.3167   31.3994 H         1 UNK         0.0000 
     51 H51        -0.4953   54.3251   30.4833 H         1 UNK         0.0000 
     52 H52         0.1020   52.8155   31.2199 H         1 UNK         0.0000 
@<TRIPOS>BOND
     1    1    2 1    
     2    1   35 1    
     3    1   36 1    
     4    1   37 1    
     5    2    3 1    
     6    2   38 1    
     7    2   39 1    
     8    3    7 ar   
     9    3    4 ar   
    10    4    5 ar   
    11    5    6 ar   
    12    6   13 1    
    13    6    7 ar   
    14    7    8 1    
    15    8    9 1    
    16    8   40 1    
    17    9   10 1    
    18    9   11 1    
    19    9   27 1    
    20   11   12 1    
    21   11   13 1    
    22   11   14 1    
    23   14   15 2    
    24   14   16 am   BACKBONE|DICT|INTERRES
    25   16   17 1    
    26   16   41 1    
    27   17   22 ar   
    28   17   18 ar   
    29   18   19 ar   
    30   18   42 1    
    31   19   20 ar   
    32   19   43 1    
    33   20   21 ar   
    34   20   44 1    
    35   21   22 ar   
    36   21   45 1    
    37   22   23 1    
    38   23   24 1    
    39   23   25 1    
    40   23   26 1    
    41   27   32 ar   
    42   27   28 ar   
    43   28   29 ar   
    44   28   46 1    
    45   29   30 ar   
    46   29   47 1    
    47   30   31 ar   
    48   30   33 1    
    49   31   32 ar   
    50   31   48 1    
    51   32   49 1    
    52   33   34 1    
    53   34   50 1    
    54   34   51 1    
    55   34   52 1    
@<TRIPOS>SUBSTRUCTURE
     1 UNK         1 GROUP             0       ****    0 ROOT    
