@<TRIPOS>MOLECULE
ZINC02518444_2399
59   62    1
SMALL
USER_CHARGES


@<TRIPOS>ATOM
      1 C1          2.8303   52.4081   31.3028 C.3       1 UNK         0.0000 
      2 C2          3.3784   53.0111   30.0009 C.3       1 UNK         0.0000 
      3 C3          2.5110   52.7140   28.7956 C.2       1 UNK         0.0000 
      4 C4          1.6396   51.6656   28.5593 C.2       1 UNK         0.0000 
      5 C5          1.1044   51.6395   27.2783 C.2       1 UNK         0.0000 
      6 C6          1.5011   52.6874   26.4421 C.2       1 UNK         0.0000 
      7 S7          2.5294   53.7357   27.3928 S.3       1 UNK         0.0000 
      8 C8          1.1412   52.9785   24.9656 C.3       1 UNK         0.0000 
      9 H9          0.7031   53.9708   24.9111 H         1 UNK         0.0000 
     10 C10         2.3573   53.1430   24.0379 C.2       1 UNK         0.0000 
     11 C11         2.4002   52.6013   22.8040 C.2       1 UNK         0.0000 
     12 N12         1.3855   51.7632   22.3239 N.pl3     1 UNK         0.0000 
     13 C13         0.2665   51.4335   23.1097 C.2       1 UNK         0.0000 
     14 C14         0.0831   52.0150   24.3371 C.2       1 UNK         0.0000 
     15 C15        -1.1898   51.8087   25.0869 C.2       1 UNK         0.0000 
     16 O16        -1.5224   52.4968   26.0484 O.2       1 UNK         0.0000 
     17 C17        -2.1665   50.7647   24.5398 C.3       1 UNK         0.0000 
     18 C18        -2.2285   50.7668   22.9987 C.3       1 UNK         0.0000 
     19 C19        -0.7961   50.4827   22.4892 C.3       1 UNK         0.0000 
     20 C20        -2.7196   52.1347   22.4709 C.3       1 UNK         0.0000 
     21 C21        -3.1475   49.6050   22.5662 C.3       1 UNK         0.0000 
     22 C22         1.5293   51.1732   21.0440 C.ar      1 UNK         0.0000 
     23 C23         1.1429   51.9118   19.9217 C.ar      1 UNK         0.0000 
     24 C24         1.3142   51.4066   18.6261 C.ar      1 UNK         0.0000 
     25 C25         1.9031   50.1424   18.4774 C.ar      1 UNK         0.0000 
     26 C26         2.2779   49.3927   19.5915 C.ar      1 UNK         0.0000 
     27 C27         2.0851   49.8923   20.8809 C.ar      1 UNK         0.0000 
     28 C28         2.5070   49.0550   22.0809 C.3       1 UNK         0.0000 
     29 N29         0.8853   52.1953   17.4450 N.pl3     1 UNK         0.0000 
     30 O30         1.1118   51.7483   16.3240 O.co2     1 UNK         0.0000 
     31 O31         0.2959   53.2565   17.6336 O.co2     1 UNK         0.0000 
     32 N32         3.4748   52.8188   21.9601 N.pl3     1 UNK         0.0000 
     33 C33         3.4837   53.9128   24.4742 C.1       1 UNK         0.0000 
     34 N34         4.4363   54.4971   24.7743 N.1       1 UNK         0.0000 
     35 H35         3.5506   52.4965   32.1160 H         1 UNK         0.0000 
     36 H36         2.6180   51.3480   31.2058 H         1 UNK         0.0000 
     37 H37         1.9003   52.8931   31.6041 H         1 UNK         0.0000 
     38 H38         3.5043   54.0886   30.1211 H         1 UNK         0.0000 
     39 H39         4.3798   52.6165   29.8233 H         1 UNK         0.0000 
     40 H40         1.4203   50.8970   29.2818 H         1 UNK         0.0000 
     41 H41         0.4538   50.8356   26.9649 H         1 UNK         0.0000 
     42 H42        -3.1449   50.9149   24.9967 H         1 UNK         0.0000 
     43 H43        -1.8045   49.8006   24.8981 H         1 UNK         0.0000 
     44 H44        -0.8799   50.6103   21.4099 H         1 UNK         0.0000 
     45 H45        -0.4801   49.4584   22.6889 H         1 UNK         0.0000 
     46 H46        -3.6646   52.4039   22.9367 H         1 UNK         0.0000 
     47 H47        -2.0239   52.9497   22.6648 H         1 UNK         0.0000 
     48 H48        -2.8719   52.0971   21.3914 H         1 UNK         0.0000 
     49 H49        -4.1635   49.7486   22.9355 H         1 UNK         0.0000 
     50 H50        -3.2092   49.5320   21.4794 H         1 UNK         0.0000 
     51 H51        -2.7963   48.6419   22.9415 H         1 UNK         0.0000 
     52 H52         0.7183   52.8961   20.0668 H         1 UNK         0.0000 
     53 H53         2.0842   49.7298   17.4942 H         1 UNK         0.0000 
     54 H54         2.7328   48.4244   19.4398 H         1 UNK         0.0000 
     55 H55         3.0996   48.1886   21.7917 H         1 UNK         0.0000 
     56 H56         3.1044   49.6512   22.7698 H         1 UNK         0.0000 
     57 H57         1.6401   48.7103   22.6395 H         1 UNK         0.0000 
     58 H58         4.2434   53.4100   22.2414 H         1 UNK         0.0000 
     59 H59         3.4380   52.5313   20.9896 H         1 UNK         0.0000 
@<TRIPOS>BOND
     1    1    2 1    
     2    1   35 1    
     3    1   36 1    
     4    1   37 1    
     5    2    3 1    
     6    2   38 1    
     7    2   39 1    
     8    3    7 1    
     9    3    4 2    
    10    4    5 1    
    11    4   40 1    
    12    5    6 2    
    13    5   41 1    
    14    6    7 1    
    15    6    8 1    
    16    8    9 1    
    17    8   14 1    
    18    8   10 1    
    19   10   11 2    
    20   10   33 1    
    21   11   12 1    
    22   11   32 1    
    23   12   13 1    
    24   12   22 1    
    25   13   19 1    
    26   13   14 2    
    27   14   15 1    
    28   15   16 2    
    29   15   17 1    
    30   17   18 1    
    31   17   42 1    
    32   17   43 1    
    33   18   19 1    
    34   18   20 1    
    35   18   21 1    
    36   19   44 1    
    37   19   45 1    
    38   20   46 1    
    39   20   47 1    
    40   20   48 1    
    41   21   49 1    
    42   21   50 1    
    43   21   51 1    
    44   22   27 ar   
    45   22   23 ar   
    46   23   24 ar   
    47   23   52 1    
    48   24   25 ar   
    49   24   29 1    
    50   25   26 ar   
    51   25   53 1    
    52   26   27 ar   
    53   26   54 1    
    54   27   28 1    
    55   28   55 1    
    56   28   56 1    
    57   28   57 1    
    58   29   30 2    
    59   29   31 1    
    60   32   58 1    
    61   32   59 1    
    62   33   34 3    
@<TRIPOS>SUBSTRUCTURE
     1 UNK         1 GROUP             0       ****    0 ROOT    
