ZINC36612696_4393
                    3D
 Schrodinger Suite 2024-2.
 58 61  0  0  1  0            999 V2000
    5.7711   57.6498   16.7518 C   0  0  0  0  0  0
    5.8203   56.2978   17.4979 C   0  0  0  0  0  0
    4.4427   55.6042   17.3269 C   0  0  0  0  0  0
    4.2629   54.4666   18.3298 C   0  0  0  0  0  0
    4.8800   54.3607   19.5421 C   0  0  0  0  0  0
    4.5613   53.1509   20.4797 C   0  0  2  0  0  0
    5.4914   52.5924   20.5987 H   0  0  0  0  0  0
    3.5711   52.1882   19.7902 C   0  0  0  0  0  0
    3.0631   52.4657   18.5728 C   0  0  0  0  0  0
    3.3518   53.5762   17.8663 O   0  0  0  0  0  0
    2.2010   51.7009   17.8374 N   0  0  0  0  0  0
    3.1243   51.0202   20.4835 C   0  0  0  0  0  0
    2.7044   50.1076   21.0611 N   0  0  0  0  0  0
    4.1731   53.5042   21.9281 C   0  0  0  0  0  0
    5.1531   53.7463   22.8930 C   0  0  0  0  0  0
    4.8087   54.0968   24.2093 C   0  0  0  0  0  0
    3.4579   54.1095   24.5847 C   0  0  0  0  0  0
    2.4719   53.8232   23.6297 C   0  0  0  0  0  0
    2.8308   53.5466   22.3151 C   0  0  0  0  0  0
    0.6245   53.8098   24.0807 Br  0  0  0  0  0  0
    3.1068   54.4964   25.8574 O   0  0  0  0  0  0
    2.8373   53.4562   26.7983 C   0  0  0  0  0  0
    4.0252   53.3314   27.7708 C   0  0  0  0  0  0
    3.6919   54.2608   28.9394 C   0  0  0  0  0  0
    2.1852   54.0886   29.1040 C   0  0  0  0  0  0
    1.6539   53.9255   27.6724 C   0  0  0  0  0  0
    5.7362   54.4547   25.1680 O   0  0  0  0  0  0
    7.1026   54.5698   24.8066 C   0  0  0  0  0  0
    5.8999   55.3759   19.9213 C   0  0  0  0  0  0
    6.6650   55.2585   20.8740 O   0  0  0  0  0  0
    6.0310   56.6041   19.0024 C   0  0  0  0  0  0
    6.9493   55.3707   16.9768 C   0  0  0  0  0  0
    5.5957   57.5091   15.6840 H   0  0  0  0  0  0
    4.9777   58.2998   17.1263 H   0  0  0  0  0  0
    6.7090   58.1977   16.8546 H   0  0  0  0  0  0
    3.6084   56.2854   17.5024 H   0  0  0  0  0  0
    4.3555   55.2331   16.3046 H   0  0  0  0  0  0
    2.0537   50.7420   18.1158 H   0  0  0  0  0  0
    2.1145   51.8826   16.8459 H   0  0  0  0  0  0
    6.1900   53.6831   22.6058 H   0  0  0  0  0  0
    2.0480   53.3578   21.5977 H   0  0  0  0  0  0
    2.6102   52.5011   26.3207 H   0  0  0  0  0  0
    4.1301   52.3001   28.1152 H   0  0  0  0  0  0
    4.9747   53.6263   27.3263 H   0  0  0  0  0  0
    4.2466   54.0105   29.8436 H   0  0  0  0  0  0
    3.9257   55.2965   28.6795 H   0  0  0  0  0  0
    1.9733   53.1876   29.6853 H   0  0  0  0  0  0
    1.7273   54.9296   29.6269 H   0  0  0  0  0  0
    1.2922   54.8968   27.3362 H   0  0  0  0  0  0
    0.8090   53.2393   27.6258 H   0  0  0  0  0  0
    7.6463   54.8941   25.6897 H   0  0  0  0  0  0
    7.5055   53.6099   24.4846 H   0  0  0  0  0  0
    7.2552   55.3159   24.0236 H   0  0  0  0  0  0
    5.2542   57.2957   19.3293 H   0  0  0  0  0  0
    6.9833   57.0976   19.1943 H   0  0  0  0  0  0
    6.8345   55.1726   15.9114 H   0  0  0  0  0  0
    7.9304   55.8245   17.1120 H   0  0  0  0  0  0
    6.9707   54.4015   17.4768 H   0  0  0  0  0  0
  1  2  1  0  0  0
  1 33  1  0  0  0
  1 34  1  0  0  0
  1 35  1  0  0  0
  2 31  1  0  0  0
  2  3  1  0  0  0
  2 32  1  0  0  0
  3  4  1  0  0  0
  3 36  1  0  0  0
  3 37  1  0  0  0
  4 10  1  0  0  0
  4  5  2  0  0  0
  5  6  1  0  0  0
  5 29  1  0  0  0
  6  7  1  0  0  0
  6  8  1  0  0  0
  6 14  1  0  0  0
  8  9  2  0  0  0
  8 12  1  0  0  0
  9 10  1  0  0  0
  9 11  1  0  0  0
 11 38  1  0  0  0
 11 39  1  0  0  0
 12 13  3  0  0  0
 14 19  2  0  0  0
 14 15  1  0  0  0
 15 16  2  0  0  0
 15 40  1  0  0  0
 16 17  1  0  0  0
 16 27  1  0  0  0
 17 18  2  0  0  0
 17 21  1  0  0  0
 18 19  1  0  0  0
 18 20  1  0  0  0
 19 41  1  0  0  0
 21 22  1  0  0  0
 22 26  1  0  0  0
 22 23  1  0  0  0
 22 42  1  0  0  0
 23 24  1  0  0  0
 23 43  1  0  0  0
 23 44  1  0  0  0
 24 25  1  0  0  0
 24 45  1  0  0  0
 24 46  1  0  0  0
 25 26  1  0  0  0
 25 47  1  0  0  0
 25 48  1  0  0  0
 26 49  1  0  0  0
 26 50  1  0  0  0
 27 28  1  0  0  0
 28 51  1  0  0  0
 28 52  1  0  0  0
 28 53  1  0  0  0
 29 30  2  0  0  0
 29 31  1  0  0  0
 31 54  1  0  0  0
 31 55  1  0  0  0
 32 56  1  0  0  0
 32 57  1  0  0  0
 32 58  1  0  0  0
M  END
> <i_i_glide_confnum>
51

> <i_i_glide_lignum>
4394

> <i_i_glide_posenum>
274

> <i_i_glide_rotatable_bonds>
5

> <i_m_Source_File_Index>
5056

> <b_m_subgroup_collapsed>
0

> <r_i_docking_score>
-4.68827

> <r_i_glide_ecoul>
-1.09888

> <r_i_glide_eff_state_penalty>
0

> <r_i_glide_einternal>
5.43322

> <r_i_glide_emodel>
-48.5959

> <r_i_glide_energy>
-39.1507

> <r_i_glide_erotb>
0.256738

> <r_i_glide_esite>
-0.0927285

> <r_i_glide_evdw>
-38.0518

> <r_i_glide_gscore>
-4.68827

> <r_i_glide_hbond>
0

> <r_i_glide_ligand_efficiency>
-0.151234

> <r_i_glide_ligand_efficiency_ln>
-1.05735

> <r_i_glide_ligand_efficiency_sa>
-0.475085

> <r_i_glide_lipo>
-2.59183

> <r_i_glide_metal>
0

> <r_i_glide_rewards>
-0.193027

> <s_i_glide_gridfile>
wee1_glide-grid

> <s_m_Source_File>
wee1_decoys_glide_SP.sdf

> <s_m_Source_Path>
/Users/zhangxujun/Desktop

> <s_m_entry_id>
5331

> <s_m_entry_name>
wee1_decoys_glide_SP.5056

> <s_m_subgroup_title>
wee1_decoys_glide_SP

> <s_m_subgroupid>
wee1_decoys_glide_SP


$$$$
