@<TRIPOS>MOLECULE
ZINC39974628_3740
62   64    1
SMALL
USER_CHARGES


@<TRIPOS>ATOM
      1 C1          3.2470   58.4893   16.3691 C.3       1 UNK         0.0000 
      2 C2          3.9256   57.4099   15.5043 C.3       1 UNK         0.0000 
      3 C3          5.2488   56.8555   16.0558 C.2       1 UNK         0.0000 
      4 O4          6.0868   56.4516   15.2519 O.2       1 UNK         0.0000 
      5 N5          5.3958   56.8127   17.3987 N.am      1 UNK         0.0000 
      6 C6          6.5195   56.4124   18.1469 C.ar      1 UNK         0.0000 
      7 C7          7.8292   56.3970   17.6395 C.ar      1 UNK         0.0000 
      8 C8          8.8970   56.0348   18.4573 C.ar      1 UNK         0.0000 
      9 C9          8.6700   55.6968   19.7872 C.ar      1 UNK         0.0000 
     10 C10         7.3797   55.6998   20.3105 C.ar      1 UNK         0.0000 
     11 C11         6.3051   56.0677   19.4864 C.ar      1 UNK         0.0000 
     12 N12         7.2597   55.4209   21.6834 N.pl3     1 UNK         0.0000 
     13 C13         6.3151   54.7616   22.4184 C.2       1 UNK         0.0000 
     14 S14         5.0547   53.8596   21.7676 S.2       1 UNK         0.0000 
     15 N15         6.5541   54.9399   23.7538 N.pl3     1 UNK         0.0000 
     16 C16         5.8125   54.6264   24.9071 C.ar      1 UNK         0.0000 
     17 C17         6.5250   54.3303   26.0676 C.ar      1 UNK         0.0000 
     18 C18         5.8651   54.0351   27.2553 C.ar      1 UNK         0.0000 
     19 C19         4.4752   54.0694   27.2863 C.ar      1 UNK         0.0000 
     20 C20         3.7552   54.4256   26.1444 C.ar      1 UNK         0.0000 
     21 C21         4.4185   54.6884   24.9573 C.ar      1 UNK         0.0000 
     22 S22         3.6334   53.6680   28.8074 S.o2      1 UNK         0.0000 
     23 O23         4.1011   52.3506   29.2557 O.2       1 UNK         0.0000 
     24 O24         3.7972   54.8309   29.6817 O.2       1 UNK         0.0000 
     25 N25         1.9217   53.5312   28.4013 N.pl3     1 UNK         0.0000 
     26 C26         0.8717   54.1998   29.1950 C.3       1 UNK         0.0000 
     27 C27        -0.0048   53.1417   29.9036 C.3       1 UNK         0.0000 
     28 H28        -0.8836   53.6615   30.2813 H         1 UNK         0.0000 
     29 C29        -0.5199   52.0961   28.8763 C.3       1 UNK         0.0000 
     30 C30         0.5865   51.4861   27.9832 C.3       1 UNK         0.0000 
     31 H31         1.2307   50.8963   28.6349 H         1 UNK         0.0000 
     32 C32         1.4578   52.5844   27.3689 C.3       1 UNK         0.0000 
     33 C33        -0.0079   50.6126   26.8675 C.3       1 UNK         0.0000 
     34 C34         0.7282   52.4973   31.0950 C.3       1 UNK         0.0000 
     35 H35         2.4127   58.9413   15.8316 H         1 UNK         0.0000 
     36 H36         3.9324   59.2959   16.6307 H         1 UNK         0.0000 
     37 H37         2.8249   58.0698   17.2811 H         1 UNK         0.0000 
     38 H38         3.2451   56.5724   15.3468 H         1 UNK         0.0000 
     39 H39         4.1205   57.8317   14.5169 H         1 UNK         0.0000 
     40 H40         4.5867   57.0741   17.9402 H         1 UNK         0.0000 
     41 H41         8.0450   56.6837   16.6220 H         1 UNK         0.0000 
     42 H42         9.9037   56.0298   18.0667 H         1 UNK         0.0000 
     43 H43         9.5044   55.4296   20.4144 H         1 UNK         0.0000 
     44 H44         5.3056   56.1042   19.8872 H         1 UNK         0.0000 
     45 H45         8.0895   55.6750   22.2021 H         1 UNK         0.0000 
     46 H46         7.4687   55.3114   23.9680 H         1 UNK         0.0000 
     47 H47         7.5919   54.3224   26.0543 H         1 UNK         0.0000 
     48 H48         6.4272   53.7848   28.1439 H         1 UNK         0.0000 
     49 H49         2.6814   54.4982   26.1470 H         1 UNK         0.0000 
     50 H50         3.8322   54.9638   24.0935 H         1 UNK         0.0000 
     51 H51         1.3411   54.8594   29.9250 H         1 UNK         0.0000 
     52 H52         0.3006   54.8223   28.5076 H         1 UNK         0.0000 
     53 H53        -1.0987   51.3047   29.3574 H         1 UNK         0.0000 
     54 H54        -1.2263   52.5901   28.2096 H         1 UNK         0.0000 
     55 H55         0.9074   53.1614   26.6247 H         1 UNK         0.0000 
     56 H56         2.3219   52.1396   26.8765 H         1 UNK         0.0000 
     57 H57        -0.3297   51.2076   26.0116 H         1 UNK         0.0000 
     58 H58         0.7064   49.8697   26.5097 H         1 UNK         0.0000 
     59 H59        -0.8957   50.0962   27.2206 H         1 UNK         0.0000 
     60 H60         1.6506   52.0039   30.7892 H         1 UNK         0.0000 
     61 H61         0.9848   53.2428   31.8482 H         1 UNK         0.0000 
     62 H62         0.1015   51.7523   31.5845 H         1 UNK         0.0000 
@<TRIPOS>BOND
     1    1    2 1    
     2    1   35 1    
     3    1   36 1    
     4    1   37 1    
     5    2    3 1    
     6    2   38 1    
     7    2   39 1    
     8    3    4 2    
     9    3    5 am   BACKBONE|DICT|INTERRES
    10    5    6 1    
    11    5   40 1    
    12    6   11 ar   
    13    6    7 ar   
    14    7    8 ar   
    15    7   41 1    
    16    8    9 ar   
    17    8   42 1    
    18    9   10 ar   
    19    9   43 1    
    20   10   11 ar   
    21   10   12 1    
    22   11   44 1    
    23   12   13 1    
    24   12   45 1    
    25   13   14 2    
    26   13   15 1    
    27   15   16 1    
    28   15   46 1    
    29   16   21 ar   
    30   16   17 ar   
    31   17   18 ar   
    32   17   47 1    
    33   18   19 ar   
    34   18   48 1    
    35   19   20 ar   
    36   19   22 1    
    37   20   21 ar   
    38   20   49 1    
    39   21   50 1    
    40   22   23 2    
    41   22   24 2    
    42   22   25 1    
    43   25   32 1    
    44   25   26 1    
    45   26   27 1    
    46   26   51 1    
    47   26   52 1    
    48   27   28 1    
    49   27   29 1    
    50   27   34 1    
    51   29   30 1    
    52   29   53 1    
    53   29   54 1    
    54   30   31 1    
    55   30   32 1    
    56   30   33 1    
    57   32   55 1    
    58   32   56 1    
    59   33   57 1    
    60   33   58 1    
    61   33   59 1    
    62   34   60 1    
    63   34   61 1    
    64   34   62 1    
@<TRIPOS>SUBSTRUCTURE
     1 UNK         1 GROUP             0       ****    0 ROOT    
