@<TRIPOS>MOLECULE
ZINC23328354_3729
67   70    1
SMALL
USER_CHARGES


@<TRIPOS>ATOM
      1 C1          6.9216   54.3266   24.3706 C.3       1 UNK         0.0000 
      2 C2          6.5024   54.5048   22.9229 C.ar      1 UNK         0.0000 
      3 C3          7.0994   55.4756   22.1198 C.ar      1 UNK         0.0000 
      4 C4          6.6882   55.6512   20.8020 C.ar      1 UNK         0.0000 
      5 C5          5.6811   54.8435   20.2561 C.ar      1 UNK         0.0000 
      6 C6          5.0939   53.8432   21.0531 C.ar      1 UNK         0.0000 
      7 C7          5.5040   53.6965   22.3885 C.ar      1 UNK         0.0000 
      8 O8          4.1358   53.0402   20.4597 O.3       1 UNK         0.0000 
      9 C9          3.5262   51.9622   21.1711 C.3       1 UNK         0.0000 
     10 C10         2.4499   52.4361   22.1380 C.ar      1 UNK         0.0000 
     11 N11         2.2157   53.6791   22.4820 N.2       1 UNK         0.0000 
     12 N12         1.1071   53.6752   23.3170 N.2       1 UNK         0.0000 
     13 C13         0.7650   52.4258   23.5122 C.ar      1 UNK         0.0000 
     14 N14         1.5672   51.5886   22.7645 N.pl3     1 UNK         0.0000 
     15 N15         1.4917   50.2096   22.6377 N.3       1 UNK         0.0000 
     16 S16        -0.6615   51.9466   24.4319 S.3       1 UNK         0.0000 
     17 C17         0.1945   51.0030   25.7428 C.3       1 UNK         0.0000 
     18 H18         1.1041   50.5877   25.3143 H         1 UNK         0.0000 
     19 C19        -0.6465   49.7949   26.1938 C.3       1 UNK         0.0000 
     20 C20         0.7008   51.9378   26.8645 C.2       1 UNK         0.0000 
     21 O21         1.2998   52.9643   26.5418 O.2       1 UNK         0.0000 
     22 N22         0.5050   51.6021   28.1582 N.am      1 UNK         0.0000 
     23 C23         0.9115   52.4051   29.3316 C.3       1 UNK         0.0000 
     24 H24         1.0117   51.6952   30.1521 H         1 UNK         0.0000 
     25 C25        -0.1833   53.4118   29.7425 C.3       1 UNK         0.0000 
     26 C26         0.3088   54.4061   30.8008 C.3       1 UNK         0.0000 
     27 C27         1.3914   55.2833   30.1590 C.3       1 UNK         0.0000 
     28 C28         2.5125   54.4195   29.5954 C.ar      1 UNK         0.0000 
     29 C29         2.3058   53.0649   29.2650 C.ar      1 UNK         0.0000 
     30 C30         3.4114   52.3246   28.8474 C.ar      1 UNK         0.0000 
     31 C31         4.6647   52.8970   28.6475 C.ar      1 UNK         0.0000 
     32 C32         4.8444   54.2435   28.9015 C.ar      1 UNK         0.0000 
     33 C33         3.7723   54.9743   29.3926 C.ar      1 UNK         0.0000 
     34 C34         5.2217   55.0226   18.7970 C.3       1 UNK         0.0000 
     35 C35         5.4884   56.4216   18.1992 C.3       1 UNK         0.0000 
     36 C36         5.7950   53.9149   17.8912 C.3       1 UNK         0.0000 
     37 H37         7.5033   55.1749   24.7319 H         1 UNK         0.0000 
     38 H38         6.0431   54.2382   25.0125 H         1 UNK         0.0000 
     39 H39         7.5050   53.4130   24.4810 H         1 UNK         0.0000 
     40 H40         7.8956   56.0963   22.5102 H         1 UNK         0.0000 
     41 H41         7.1747   56.4094   20.2100 H         1 UNK         0.0000 
     42 H42         5.0556   52.9497   23.0234 H         1 UNK         0.0000 
     43 H43         4.2742   51.3176   21.6370 H         1 UNK         0.0000 
     44 H44         3.0616   51.3377   20.4087 H         1 UNK         0.0000 
     45 H45         1.7432   49.7245   23.4861 H         1 UNK         0.0000 
     46 H46         0.6157   49.9042   22.2389 H         1 UNK         0.0000 
     47 H47        -0.0934   49.1555   26.8773 H         1 UNK         0.0000 
     48 H48        -1.5661   50.1061   26.6908 H         1 UNK         0.0000 
     49 H49        -0.9230   49.1710   25.3462 H         1 UNK         0.0000 
     50 H50        -0.0316   50.7661   28.3529 H         1 UNK         0.0000 
     51 H51        -1.0548   52.8654   30.0944 H         1 UNK         0.0000 
     52 H52        -0.4962   53.9730   28.8612 H         1 UNK         0.0000 
     53 H53         0.6990   53.8774   31.6752 H         1 UNK         0.0000 
     54 H54        -0.4959   55.0335   31.1637 H         1 UNK         0.0000 
     55 H55         1.7773   56.0047   30.8825 H         1 UNK         0.0000 
     56 H56         0.9648   55.8714   29.3438 H         1 UNK         0.0000 
     57 H57         3.2581   51.2966   28.5987 H         1 UNK         0.0000 
     58 H58         5.4885   52.2977   28.2849 H         1 UNK         0.0000 
     59 H59         5.8109   54.7063   28.7641 H         1 UNK         0.0000 
     60 H60         3.9157   56.0064   29.6602 H         1 UNK         0.0000 
     61 H61         4.1351   54.9208   18.8036 H         1 UNK         0.0000 
     62 H62         5.1067   57.2112   18.8479 H         1 UNK         0.0000 
     63 H63         6.5510   56.6009   18.0342 H         1 UNK         0.0000 
     64 H64         4.9930   56.5331   17.2338 H         1 UNK         0.0000 
     65 H65         5.5246   52.9211   18.2505 H         1 UNK         0.0000 
     66 H66         5.4145   53.9984   16.8719 H         1 UNK         0.0000 
     67 H67         6.8835   53.9603   17.8454 H         1 UNK         0.0000 
@<TRIPOS>BOND
     1    1    2 1    
     2    1   37 1    
     3    1   38 1    
     4    1   39 1    
     5    2    7 ar   
     6    2    3 ar   
     7    3    4 ar   
     8    3   40 1    
     9    4    5 ar   
    10    4   41 1    
    11    5    6 ar   
    12    5   34 1    
    13    6    7 ar   
    14    6    8 1    
    15    7   42 1    
    16    8    9 1    
    17    9   10 1    
    18    9   43 1    
    19    9   44 1    
    20   10   14 ar   
    21   10   11 ar   
    22   11   12 ar   
    23   12   13 ar   
    24   13   14 ar   
    25   13   16 1    
    26   14   15 1    
    27   15   45 1    
    28   15   46 1    
    29   16   17 1    
    30   17   18 1    
    31   17   19 1    
    32   17   20 1    
    33   19   47 1    
    34   19   48 1    
    35   19   49 1    
    36   20   21 2    
    37   20   22 am   BACKBONE|DICT|INTERRES
    38   22   23 1    
    39   22   50 1    
    40   23   24 1    
    41   23   29 1    
    42   23   25 1    
    43   25   26 1    
    44   25   51 1    
    45   25   52 1    
    46   26   27 1    
    47   26   53 1    
    48   26   54 1    
    49   27   28 1    
    50   27   55 1    
    51   27   56 1    
    52   28   33 ar   
    53   28   29 ar   
    54   29   30 ar   
    55   30   31 ar   
    56   30   57 1    
    57   31   32 ar   
    58   31   58 1    
    59   32   33 ar   
    60   32   59 1    
    61   33   60 1    
    62   34   35 1    
    63   34   36 1    
    64   34   61 1    
    65   35   62 1    
    66   35   63 1    
    67   35   64 1    
    68   36   65 1    
    69   36   66 1    
    70   36   67 1    
@<TRIPOS>SUBSTRUCTURE
     1 UNK         1 GROUP             0       ****    0 ROOT    
