ZINC39723554_4403
                    3D
 Schrodinger Suite 2024-2.
 48 50  0  0  1  0            999 V2000
    0.8531   47.9089   19.6348 C   0  0  0  0  0  0
    1.4478   49.2651   19.9650 C   0  0  0  0  0  0
    1.4865   49.7285   21.2806 C   0  0  0  0  0  0
    2.0347   50.9787   21.5847 C   0  0  0  0  0  0
    2.5734   51.7705   20.5465 C   0  0  0  0  0  0
    2.5079   51.3144   19.2160 C   0  0  0  0  0  0
    1.9499   50.0639   18.9398 C   0  0  0  0  0  0
    3.0737   52.1294   18.0569 C   0  0  0  0  0  0
    3.1652   53.0219   20.7949 N   0  0  0  0  0  0
    4.4030   53.1823   21.3063 C   0  0  0  0  0  0
    5.1045   52.2411   21.6764 O   0  0  0  0  0  0
    4.9145   54.6315   21.4078 C   0  0  0  0  0  0
    6.4536   54.8962   22.3817 S   0  0  0  0  0  0
    5.9016   54.6704   24.0478 C   0  0  0  0  0  0
    6.6938   54.6782   25.0961 N   0  0  0  0  0  0
    6.0251   54.4719   26.3007 N   0  0  0  0  0  0
    4.7368   54.3016   26.1328 C   0  0  0  0  0  0
    4.2324   54.4436   24.4743 S   0  0  0  0  0  0
    3.8555   54.1273   27.1880 N   0  0  0  0  0  0
    2.5750   53.6979   27.1021 C   0  0  0  0  0  0
    2.0200   53.2923   26.0799 O   0  0  0  0  0  0
    1.8148   53.7382   28.3979 C   0  0  0  0  0  0
    1.8085   54.9265   29.1390 C   0  0  0  0  0  0
    1.1030   55.0117   30.3323 C   0  0  0  0  0  0
    0.4048   53.9066   30.8171 C   0  0  0  0  0  0
    0.4063   52.7160   30.0927 C   0  0  0  0  0  0
    1.1059   52.6224   28.8867 C   0  0  0  0  0  0
    1.0680   51.1098   28.0448 Cl  0  0  0  0  0  0
    1.1048   56.4970   31.1973 Cl  0  0  0  0  0  0
    2.0067   51.4198   23.0429 C   0  0  0  0  0  0
    0.3255   47.4707   20.4819 H   0  0  0  0  0  0
    1.6354   47.2245   19.3026 H   0  0  0  0  0  0
    0.1339   48.0067   18.8203 H   0  0  0  0  0  0
    1.0844   49.1162   22.0747 H   0  0  0  0  0  0
    1.9329   49.6982   17.9220 H   0  0  0  0  0  0
    4.0982   52.4329   18.2739 H   0  0  0  0  0  0
    3.1037   51.5564   17.1283 H   0  0  0  0  0  0
    2.4835   53.0332   17.9016 H   0  0  0  0  0  0
    2.6464   53.8335   20.4799 H   0  0  0  0  0  0
    5.1278   54.9573   20.3901 H   0  0  0  0  0  0
    4.1297   55.2900   21.7793 H   0  0  0  0  0  0
    4.2516   54.2113   28.1117 H   0  0  0  0  0  0
    2.3321   55.8041   28.7842 H   0  0  0  0  0  0
   -0.1327   53.9637   31.7534 H   0  0  0  0  0  0
   -0.1402   51.8624   30.4717 H   0  0  0  0  0  0
    2.6822   52.2410   23.2648 H   0  0  0  0  0  0
    0.9976   51.7068   23.3355 H   0  0  0  0  0  0
    2.3070   50.5888   23.6809 H   0  0  0  0  0  0
  1  2  1  0  0  0
  1 31  1  0  0  0
  1 32  1  0  0  0
  1 33  1  0  0  0
  2  7  2  0  0  0
  2  3  1  0  0  0
  3  4  2  0  0  0
  3 34  1  0  0  0
  4  5  1  0  0  0
  4 30  1  0  0  0
  5  6  2  0  0  0
  5  9  1  0  0  0
  6  7  1  0  0  0
  6  8  1  0  0  0
  7 35  1  0  0  0
  8 36  1  0  0  0
  8 37  1  0  0  0
  8 38  1  0  0  0
  9 10  1  0  0  0
  9 39  1  0  0  0
 10 11  2  0  0  0
 10 12  1  0  0  0
 12 13  1  0  0  0
 12 40  1  0  0  0
 12 41  1  0  0  0
 13 14  1  0  0  0
 14 18  1  0  0  0
 14 15  2  0  0  0
 15 16  1  0  0  0
 16 17  2  0  0  0
 17 18  1  0  0  0
 17 19  1  0  0  0
 19 20  1  0  0  0
 19 42  1  0  0  0
 20 21  2  0  0  0
 20 22  1  0  0  0
 22 27  2  0  0  0
 22 23  1  0  0  0
 23 24  2  0  0  0
 23 43  1  0  0  0
 24 25  1  0  0  0
 24 29  1  0  0  0
 25 26  2  0  0  0
 25 44  1  0  0  0
 26 27  1  0  0  0
 26 45  1  0  0  0
 27 28  1  0  0  0
 30 46  1  0  0  0
 30 47  1  0  0  0
 30 48  1  0  0  0
M  END
> <i_i_glide_confnum>
15

> <i_i_glide_lignum>
4404

> <i_i_glide_posenum>
11

> <i_i_glide_rotatable_bonds>
8

> <i_m_Source_File_Index>
1886

> <b_m_subgroup_collapsed>
0

> <r_i_docking_score>
-6.18209

> <r_i_glide_ecoul>
-4.72242

> <r_i_glide_eff_state_penalty>
0

> <r_i_glide_einternal>
2.81587

> <r_i_glide_emodel>
-75.2792

> <r_i_glide_energy>
-55.9895

> <r_i_glide_erotb>
0.700232

> <r_i_glide_esite>
-0.00206485

> <r_i_glide_evdw>
-51.267

> <r_i_glide_gscore>
-6.18209

> <r_i_glide_hbond>
-0.32

> <r_i_glide_ligand_efficiency>
-0.20607

> <r_i_glide_ligand_efficiency_ln>
-1.40464

> <r_i_glide_ligand_efficiency_sa>
-0.640306

> <r_i_glide_lipo>
-2.72669

> <r_i_glide_metal>
0

> <r_i_glide_rewards>
-0.561846

> <s_i_glide_gridfile>
wee1_glide-grid

> <s_m_Source_File>
wee1_decoys_glide_SP.sdf

> <s_m_Source_Path>
/Users/zhangxujun/Desktop

> <s_m_entry_id>
2161

> <s_m_entry_name>
wee1_decoys_glide_SP.1886

> <s_m_subgroup_title>
wee1_decoys_glide_SP

> <s_m_subgroupid>
wee1_decoys_glide_SP


$$$$
