ZINC63572993_1208
                    3D
 Schrodinger Suite 2024-2.
 62 66  0  0  1  0            999 V2000
   -7.3360   52.3889   24.7603 C   0  0  0  0  0  0
   -6.2493   53.0426   25.4070 O   0  0  0  0  0  0
   -4.9845   52.4955   25.3162 C   0  0  0  0  0  0
   -4.6767   51.3107   24.6310 C   0  0  0  0  0  0
   -3.3618   50.8535   24.5770 C   0  0  0  0  0  0
   -2.3362   51.5729   25.1978 C   0  0  0  0  0  0
   -2.6520   52.7308   25.9117 C   0  0  0  0  0  0
   -3.9636   53.1930   25.9570 C   0  0  0  0  0  0
   -0.8913   51.0723   25.0642 C   0  0  2  0  0  0
   -1.0150   50.0066   24.8701 H   0  0  0  0  0  0
    0.0155   51.1060   26.3454 C   0  0  1  0  0  0
    0.7506   50.3087   26.2439 H   0  0  0  0  0  0
    0.7112   52.4339   26.5618 C   0  0  0  0  0  0
    0.5415   52.8253   27.8324 C   0  0  0  0  0  0
    0.9902   54.0278   28.5481 C   0  0  0  0  0  0
    0.7056   54.2088   29.8628 C   0  0  0  0  0  0
   -0.0480   53.1431   30.5175 C   0  0  0  0  0  0
   -0.4955   52.0406   29.8610 C   0  0  0  0  0  0
   -0.2254   51.8680   28.5002 C   0  0  0  0  0  0
   -0.5868   50.8968   27.6800 N   0  3  0  0  0  0
    1.0312   55.3091   30.6001 O   0  0  0  0  0  0
    1.6947   56.4098   29.9787 C   0  0  0  0  0  0
    1.3778   53.0630   25.3562 C   0  0  0  0  0  0
    0.3531   53.0972   24.2051 C   0  0  0  0  0  0
   -0.1248   51.7163   23.9550 N   0  0  0  0  0  0
    0.1099   51.1531   22.7348 C   0  0  0  0  0  0
    0.7743   51.7250   21.8672 O   0  0  0  0  0  0
   -0.4137   49.9215   22.5436 N   0  0  0  0  0  0
   -0.2054   49.0542   21.4552 C   0  0  0  0  0  0
    1.0116   49.0198   20.7566 C   0  0  0  0  0  0
    1.1921   48.1343   19.7008 C   0  0  0  0  0  0
    0.1618   47.2769   19.3257 C   0  0  0  0  0  0
   -1.0463   47.2935   20.0231 C   0  0  0  0  0  0
   -1.2443   48.1747   21.1022 C   0  0  0  0  0  0
   -2.4145   48.2290   21.8428 O   0  0  0  0  0  0
   -3.5058   47.3844   21.4949 C   0  0  0  0  0  0
    2.7044   48.0967   18.8804 Cl  0  0  0  0  0  0
   -7.1766   52.3098   23.6849 H   0  0  0  0  0  0
   -7.5045   51.3922   25.1708 H   0  0  0  0  0  0
   -8.2468   52.9668   24.9142 H   0  0  0  0  0  0
   -5.4408   50.7392   24.1273 H   0  0  0  0  0  0
   -3.1444   49.9481   24.0289 H   0  0  0  0  0  0
   -1.8834   53.2965   26.4122 H   0  0  0  0  0  0
   -4.1916   54.1066   26.4844 H   0  0  0  0  0  0
    1.5380   54.7898   28.0164 H   0  0  0  0  0  0
   -0.2646   53.2329   31.5742 H   0  0  0  0  0  0
   -1.0538   51.2969   30.4172 H   0  0  0  0  0  0
    2.6767   56.1272   29.5966 H   0  0  0  0  0  0
    1.1043   56.8363   29.1666 H   0  0  0  0  0  0
    1.8479   57.1981   30.7168 H   0  0  0  0  0  0
    1.7248   54.0734   25.5721 H   0  0  0  0  0  0
    2.2602   52.4973   25.0539 H   0  0  0  0  0  0
   -0.5123   53.6973   24.4818 H   0  0  0  0  0  0
    0.7531   53.5888   23.3155 H   0  0  0  0  0  0
   -1.0612   49.5788   23.2355 H   0  0  0  0  0  0
    1.8343   49.6635   21.0333 H   0  0  0  0  0  0
    0.3028   46.5938   18.5007 H   0  0  0  0  0  0
   -1.8196   46.6102   19.7098 H   0  0  0  0  0  0
   -3.8569   47.5818   20.4809 H   0  0  0  0  0  0
   -3.2416   46.3298   21.5850 H   0  0  0  0  0  0
   -4.3367   47.5752   22.1740 H   0  0  0  0  0  0
   -1.1166   50.0523   27.9382 H   0  0  0  0  0  0
  1  2  1  0  0  0
  1 38  1  0  0  0
  1 39  1  0  0  0
  1 40  1  0  0  0
  2  3  1  0  0  0
  3  8  2  0  0  0
  3  4  1  0  0  0
  4  5  2  0  0  0
  4 41  1  0  0  0
  5  6  1  0  0  0
  5 42  1  0  0  0
  6  7  2  0  0  0
  6  9  1  0  0  0
  7  8  1  0  0  0
  7 43  1  0  0  0
  8 44  1  0  0  0
  9 10  1  0  0  0
  9 25  1  0  0  0
  9 11  1  0  0  0
 11 12  1  0  0  0
 11 20  1  0  0  0
 11 13  1  0  0  0
 13 14  2  0  0  0
 13 23  1  0  0  0
 14 19  1  0  0  0
 14 15  1  0  0  0
 15 16  2  0  0  0
 15 45  1  0  0  0
 16 17  1  0  0  0
 16 21  1  0  0  0
 17 18  2  0  0  0
 17 46  1  0  0  0
 18 19  1  0  0  0
 18 47  1  0  0  0
 19 20  2  0  0  0
 20 62  1  0  0  0
 21 22  1  0  0  0
 22 48  1  0  0  0
 22 49  1  0  0  0
 22 50  1  0  0  0
 23 24  1  0  0  0
 23 51  1  0  0  0
 23 52  1  0  0  0
 24 25  1  0  0  0
 24 53  1  0  0  0
 24 54  1  0  0  0
 25 26  1  0  0  0
 26 27  2  0  0  0
 26 28  1  0  0  0
 28 29  1  0  0  0
 28 55  1  0  0  0
 29 34  2  0  0  0
 29 30  1  0  0  0
 30 31  2  0  0  0
 30 56  1  0  0  0
 31 32  1  0  0  0
 31 37  1  0  0  0
 32 33  2  0  0  0
 32 57  1  0  0  0
 33 34  1  0  0  0
 33 58  1  0  0  0
 34 35  1  0  0  0
 35 36  1  0  0  0
 36 59  1  0  0  0
 36 60  1  0  0  0
 36 61  1  0  0  0
M  CHG  1  20   1
M  END
> <i_i_glide_confnum>
10

> <i_i_glide_lignum>
1209

> <i_i_glide_posenum>
224

> <i_i_glide_rotatable_bonds>
7

> <i_m_Source_File_Index>
1372

> <b_m_subgroup_collapsed>
0

> <r_i_docking_score>
-3.96133

> <r_i_glide_ecoul>
-2.49463

> <r_i_glide_eff_state_penalty>
0

> <r_i_glide_einternal>
3.03222

> <r_i_glide_emodel>
-50.6484

> <r_i_glide_energy>
-40.8161

> <r_i_glide_erotb>
0.335249

> <r_i_glide_esite>
-0.1

> <r_i_glide_evdw>
-38.3214

> <r_i_glide_gscore>
-3.96133

> <r_i_glide_hbond>
-0.2

> <r_i_glide_ligand_efficiency>
-0.113181

> <r_i_glide_ligand_efficiency_ln>
-0.8696

> <r_i_glide_ligand_efficiency_sa>
-0.370222

> <r_i_glide_lipo>
-1.56889

> <r_i_glide_metal>
0

> <r_i_glide_rewards>
-0.137424

> <s_i_glide_gridfile>
wee1_glide-grid

> <s_m_Source_File>
wee1_decoys_glide_SP.sdf

> <s_m_Source_Path>
/Users/zhangxujun/Desktop

> <s_m_entry_id>
1647

> <s_m_entry_name>
wee1_decoys_glide_SP.1372

> <s_m_subgroup_title>
wee1_decoys_glide_SP

> <s_m_subgroupid>
wee1_decoys_glide_SP


$$$$
