@<TRIPOS>MOLECULE
ZINC08870635_1140
55   60    1
SMALL
USER_CHARGES


@<TRIPOS>ATOM
      1 C1         -0.5378   46.8248   16.9198 C.ar      1 UNK         0.0000 
      2 C2         -1.1930   47.9661   17.3802 C.ar      1 UNK         0.0000 
      3 C3         -0.4854   48.9283   18.0994 C.ar      1 UNK         0.0000 
      4 C4          0.8851   48.7519   18.3478 C.ar      1 UNK         0.0000 
      5 C5          1.5300   47.5922   17.8892 C.ar      1 UNK         0.0000 
      6 C6          0.8209   46.6330   17.1696 C.ar      1 UNK         0.0000 
      7 C7          1.6628   49.7481   19.1550 C.2       1 UNK         0.0000 
      8 O8          2.6004   49.3961   19.8777 O.2       1 UNK         0.0000 
      9 C9          1.4276   51.2659   18.9097 C.3       1 UNK         0.0000 
     10 H10         0.3624   51.4851   18.8783 H         1 UNK         0.0000 
     11 C11         2.0730   52.1329   20.0361 C.2       1 UNK         0.0000 
     12 C12         3.1980   52.8656   19.8044 C.2       1 UNK         0.0000 
     13 C13         3.9076   53.5980   20.8769 C.2       1 UNK         0.0000 
     14 C14         5.0435   54.2848   20.5866 C.2       1 UNK         0.0000 
     15 C15         5.5343   54.2921   19.2211 C.2       1 UNK         0.0000 
     16 C16         4.8860   53.6449   18.2238 C.2       1 UNK         0.0000 
     17 C17         3.7091   52.9352   18.4815 C.2       1 UNK         0.0000 
     18 N18         3.0983   52.3590   17.4540 N.pl3     1 UNK         0.0000 
     19 C19         1.9060   51.6252   17.4799 C.2       1 UNK         0.0000 
     20 O20         1.3045   51.2939   16.4620 O.2       1 UNK         0.0000 
     21 C21         3.4110   53.5798   22.2702 C.2       1 UNK         0.0000 
     22 O22         4.0043   54.1631   23.1802 O.2       1 UNK         0.0000 
     23 C23         2.1149   52.7977   22.5093 C.ar      1 UNK         0.0000 
     24 C24         1.4842   52.1218   21.4208 C.ar      1 UNK         0.0000 
     25 C25         0.2611   51.4695   21.6352 C.ar      1 UNK         0.0000 
     26 C26        -0.3362   51.4409   22.8824 C.ar      1 UNK         0.0000 
     27 C27         0.2804   52.0562   23.9552 C.ar      1 UNK         0.0000 
     28 C28         1.5068   52.7211   23.8039 C.ar      1 UNK         0.0000 
     29 N29         2.1608   53.2973   24.9267 N.am      1 UNK         0.0000 
     30 C30         1.9598   53.1465   26.2586 C.2       1 UNK         0.0000 
     31 O31         0.9735   52.6018   26.7543 O.2       1 UNK         0.0000 
     32 C32         3.0624   53.6694   27.1602 C.ar      1 UNK         0.0000 
     33 C33         4.3109   54.0770   26.6528 C.ar      1 UNK         0.0000 
     34 C34         5.3233   54.4952   27.5086 C.ar      1 UNK         0.0000 
     35 C35         5.1053   54.5065   28.8815 C.ar      1 UNK         0.0000 
     36 C36         3.8841   54.1020   29.4093 C.ar      1 UNK         0.0000 
     37 C37         2.8665   53.6883   28.5528 C.ar      1 UNK         0.0000 
     38 H38        -1.0875   46.0831   16.3550 H         1 UNK         0.0000 
     39 H39        -2.2482   48.1024   17.1864 H         1 UNK         0.0000 
     40 H40        -1.0192   49.7961   18.4592 H         1 UNK         0.0000 
     41 H41         2.5887   47.4416   18.0670 H         1 UNK         0.0000 
     42 H42         1.3269   45.7524   16.7991 H         1 UNK         0.0000 
     43 H43         5.5971   54.8296   21.3434 H         1 UNK         0.0000 
     44 H44         6.4468   54.8230   18.9911 H         1 UNK         0.0000 
     45 H45         5.2876   53.6652   17.2210 H         1 UNK         0.0000 
     46 H46        -0.2682   50.9606   20.8463 H         1 UNK         0.0000 
     47 H47        -1.2762   50.9292   23.0220 H         1 UNK         0.0000 
     48 H48        -0.2331   51.9893   24.8971 H         1 UNK         0.0000 
     49 H49         2.9923   53.8076   24.6708 H         1 UNK         0.0000 
     50 H50         4.5365   54.0571   25.5984 H         1 UNK         0.0000 
     51 H51         6.2782   54.8066   27.1096 H         1 UNK         0.0000 
     52 H52         5.8923   54.8469   29.5397 H         1 UNK         0.0000 
     53 H53         3.7367   54.1040   30.4794 H         1 UNK         0.0000 
     54 H54         1.9274   53.3656   28.9821 H         1 UNK         0.0000 
     55 H55         3.5209   52.4398   16.5356 H         1 UNK         0.0000 
@<TRIPOS>BOND
     1    1    6 ar   
     2    1    2 ar   
     3    1   38 1    
     4    2    3 ar   
     5    2   39 1    
     6    3    4 ar   
     7    3   40 1    
     8    4    5 ar   
     9    4    7 1    
    10    5    6 ar   
    11    5   41 1    
    12    6   42 1    
    13    7    8 2    
    14    7    9 1    
    15    9   10 1    
    16    9   19 1    
    17    9   11 1    
    18   11   24 1    
    19   11   12 2    
    20   12   17 1    
    21   12   13 1    
    22   13   14 2    
    23   13   21 1    
    24   14   15 1    
    25   14   43 1    
    26   15   16 2    
    27   15   44 1    
    28   16   17 1    
    29   16   45 1    
    30   17   18 2    
    31   18   19 1    
    32   18   55 1    
    33   19   20 2    
    34   21   22 2    
    35   21   23 1    
    36   23   28 ar   
    37   23   24 ar   
    38   24   25 ar   
    39   25   26 ar   
    40   25   46 1    
    41   26   27 ar   
    42   26   47 1    
    43   27   28 ar   
    44   27   48 1    
    45   28   29 1    
    46   29   30 am   BACKBONE|DICT|INTERRES
    47   29   49 1    
    48   30   31 2    
    49   30   32 1    
    50   32   37 ar   
    51   32   33 ar   
    52   33   34 ar   
    53   33   50 1    
    54   34   35 ar   
    55   34   51 1    
    56   35   36 ar   
    57   35   52 1    
    58   36   37 ar   
    59   36   53 1    
    60   37   54 1    
@<TRIPOS>SUBSTRUCTURE
     1 UNK         1 GROUP             0       ****    0 ROOT    
