ZINC35023254_2555
                    3D
 Schrodinger Suite 2024-2.
 45 47  0  0  1  0            999 V2000
    5.3673   54.4028   27.5067 C   0  0  0  0  0  0
    4.8839   54.6324   26.1874 O   0  0  0  0  0  0
    3.6649   54.0980   25.8128 C   0  0  0  0  0  0
    2.8248   53.3613   26.6626 C   0  0  0  0  0  0
    1.6228   52.8443   26.1863 C   0  0  0  0  0  0
    1.2446   53.0601   24.8571 C   0  0  0  0  0  0
    2.0575   53.8301   24.0211 C   0  0  0  0  0  0
    3.2676   54.3266   24.4960 C   0  0  0  0  0  0
   -0.0623   52.5623   24.3520 C   0  0  0  0  0  0
   -0.8148   53.2706   23.6821 O   0  0  0  0  0  0
   -0.3496   51.0453   24.5026 C   0  0  1  0  0  0
    0.5738   50.6222   24.9000 H   0  0  0  0  0  0
   -1.4374   50.7561   25.5981 C   0  0  2  0  0  0
   -1.0415   51.0606   26.5686 H   0  0  0  0  0  0
   -1.5415   49.2951   25.6822 N   0  0  0  0  0  0
   -1.5130   48.4333   24.6320 C   0  0  0  0  0  0
   -2.0956   46.8961   24.7565 S   0  0  0  0  0  0
   -0.9973   48.9056   23.4657 N   0  0  0  0  0  0
   -0.5947   50.2848   23.1297 C   0  0  2  0  0  0
    0.6748   50.2911   22.2114 C   0  0  0  0  0  0
    1.0185   51.5110   21.7881 F   0  0  0  0  0  0
    1.7351   49.7840   22.8460 F   0  0  0  0  0  0
    0.4889   49.5449   21.1201 F   0  0  0  0  0  0
   -1.6604   50.8727   22.3985 O   0  0  0  0  0  0
   -2.7672   51.5230   25.4509 C   0  0  0  0  0  0
   -2.9056   52.7653   26.0811 C   0  0  0  0  0  0
   -4.0949   53.4798   25.9788 C   0  0  0  0  0  0
   -5.1607   52.9490   25.2636 C   0  0  0  0  0  0
   -5.0487   51.7014   24.6519 C   0  0  0  0  0  0
   -3.8578   50.9854   24.7532 C   0  0  0  0  0  0
   -6.3118   53.6491   25.1646 F   0  0  0  0  0  0
    6.3433   54.8760   27.6202 H   0  0  0  0  0  0
    5.4947   53.3379   27.7073 H   0  0  0  0  0  0
    4.7019   54.8322   28.2575 H   0  0  0  0  0  0
    3.0924   53.1735   27.6887 H   0  0  0  0  0  0
    0.9910   52.2815   26.8613 H   0  0  0  0  0  0
    1.7714   54.0336   22.9971 H   0  0  0  0  0  0
    3.9053   54.8966   23.8381 H   0  0  0  0  0  0
   -1.6982   48.8620   26.5927 H   0  0  0  0  0  0
   -1.0452   48.2372   22.7104 H   0  0  0  0  0  0
   -2.3927   51.0044   23.0056 H   0  0  0  0  0  0
   -2.0826   53.1867   26.6370 H   0  0  0  0  0  0
   -4.1905   54.4441   26.4566 H   0  0  0  0  0  0
   -5.8879   51.2951   24.1057 H   0  0  0  0  0  0
   -3.7934   50.0119   24.2890 H   0  0  0  0  0  0
  1  2  1  0  0  0
  1 32  1  0  0  0
  1 33  1  0  0  0
  1 34  1  0  0  0
  2  3  1  0  0  0
  3  8  2  0  0  0
  3  4  1  0  0  0
  4  5  2  0  0  0
  4 35  1  0  0  0
  5  6  1  0  0  0
  5 36  1  0  0  0
  6  7  2  0  0  0
  6  9  1  0  0  0
  7  8  1  0  0  0
  7 37  1  0  0  0
  8 38  1  0  0  0
  9 10  2  0  0  0
  9 11  1  0  0  0
 11 12  1  0  0  0
 11 19  1  0  0  0
 11 13  1  0  0  0
 13 14  1  0  0  0
 13 15  1  0  0  0
 13 25  1  0  0  0
 15 16  1  0  0  0
 15 39  1  0  0  0
 16 17  2  0  0  0
 16 18  1  0  0  0
 18 19  1  0  0  0
 18 40  1  0  0  0
 19 20  1  0  0  0
 19 24  1  0  0  0
 20 21  1  0  0  0
 20 22  1  0  0  0
 20 23  1  0  0  0
 24 41  1  0  0  0
 25 30  2  0  0  0
 25 26  1  0  0  0
 26 27  2  0  0  0
 26 42  1  0  0  0
 27 28  1  0  0  0
 27 43  1  0  0  0
 28 29  2  0  0  0
 28 31  1  0  0  0
 29 30  1  0  0  0
 29 44  1  0  0  0
 30 45  1  0  0  0
M  END
> <i_i_glide_confnum>
10

> <i_i_glide_lignum>
2556

> <i_i_glide_posenum>
391

> <i_i_glide_rotatable_bonds>
6

> <i_m_Source_File_Index>
1612

> <b_m_subgroup_collapsed>
0

> <r_i_docking_score>
-5.00451

> <r_i_glide_ecoul>
-4.47544

> <r_i_glide_eff_state_penalty>
0

> <r_i_glide_einternal>
4.90725

> <r_i_glide_emodel>
-45.6937

> <r_i_glide_energy>
-35.8487

> <r_i_glide_erotb>
0.324692

> <r_i_glide_esite>
-0.227689

> <r_i_glide_evdw>
-31.3733

> <r_i_glide_gscore>
-5.00451

> <r_i_glide_hbond>
-0.16

> <r_i_glide_ligand_efficiency>
-0.172569

> <r_i_glide_ligand_efficiency_ln>
-1.14591

> <r_i_glide_ligand_efficiency_sa>
-0.530187

> <r_i_glide_lipo>
-1.91269

> <r_i_glide_metal>
0

> <r_i_glide_rewards>
-0.788841

> <s_i_glide_gridfile>
wee1_glide-grid

> <s_m_Source_File>
wee1_decoys_glide_SP.sdf

> <s_m_Source_Path>
/Users/zhangxujun/Desktop

> <s_m_entry_id>
1887

> <s_m_entry_name>
wee1_decoys_glide_SP.1612

> <s_m_subgroup_title>
wee1_decoys_glide_SP

> <s_m_subgroupid>
wee1_decoys_glide_SP


$$$$
