@<TRIPOS>MOLECULE
ZINC14270938_3256
57   61    1
SMALL
USER_CHARGES


@<TRIPOS>ATOM
      1 C1          7.0597   54.0290   17.4252 C.3       1 UNK         0.0000 
      2 C2          6.6120   54.8250   18.6659 C.3       1 UNK         0.0000 
      3 C3          5.5236   54.1863   19.5290 C.ar      1 UNK         0.0000 
      4 C4          5.1780   54.8066   20.7281 C.ar      1 UNK         0.0000 
      5 C5          4.1995   54.2575   21.5515 C.ar      1 UNK         0.0000 
      6 C6          3.5622   53.0608   21.1972 C.ar      1 UNK         0.0000 
      7 C7          3.9021   52.4437   19.9868 C.ar      1 UNK         0.0000 
      8 C8          4.8676   53.0084   19.1603 C.ar      1 UNK         0.0000 
      9 N9          2.6092   52.4701   22.0708 N.pl3     1 UNK         0.0000 
     10 N10         2.3122   51.1481   21.9986 N.2       1 UNK         0.0000 
     11 C11         1.5368   50.9765   23.1014 C.ar      1 UNK         0.0000 
     12 C12         0.9736   49.8109   23.6325 C.ar      1 UNK         0.0000 
     13 C13         0.3020   49.8892   24.8580 C.ar      1 UNK         0.0000 
     14 C14         0.1716   51.1224   25.5230 C.ar      1 UNK         0.0000 
     15 C15         0.6439   52.3079   24.9428 C.ar      1 UNK         0.0000 
     16 C16         1.3664   52.2190   23.7511 C.ar      1 UNK         0.0000 
     17 N17         2.0274   53.1860   23.0667 N.2       1 UNK         0.0000 
     18 N18        -0.4173   51.1703   26.8012 N.pl3     1 UNK         0.0000 
     19 C19         0.1051   51.6856   27.9523 C.2       1 UNK         0.0000 
     20 S20        -0.8952   51.6968   29.2813 S.2       1 UNK         0.0000 
     21 N21         1.4050   52.1210   27.8818 N.am      1 UNK         0.0000 
     22 C22         2.2519   52.6658   28.7902 C.2       1 UNK         0.0000 
     23 O23         2.1044   52.6404   30.0168 O.2       1 UNK         0.0000 
     24 C24         3.4950   53.2834   28.1910 C.ar      1 UNK         0.0000 
     25 C25         4.6473   53.4388   28.9760 C.ar      1 UNK         0.0000 
     26 C26         5.8200   53.9752   28.4429 C.ar      1 UNK         0.0000 
     27 C27         5.8584   54.3423   27.1037 C.ar      1 UNK         0.0000 
     28 C28         4.7106   54.2100   26.3073 C.ar      1 UNK         0.0000 
     29 C29         3.5405   53.6964   26.8485 C.ar      1 UNK         0.0000 
     30 O30         4.7078   54.4941   24.9595 O.3       1 UNK         0.0000 
     31 C31         5.7888   55.3320   24.5576 C.3       1 UNK         0.0000 
     32 C32         7.1101   54.8804   25.1956 C.3       1 UNK         0.0000 
     33 O33         7.0251   54.8941   26.6213 O.3       1 UNK         0.0000 
     34 C34        -0.2351   48.6052   25.4739 C.3       1 UNK         0.0000 
     35 H35         7.8542   54.5538   16.8946 H         1 UNK         0.0000 
     36 H36         7.4431   53.0457   17.7000 H         1 UNK         0.0000 
     37 H37         6.2400   53.8914   16.7189 H         1 UNK         0.0000 
     38 H38         6.2633   55.8096   18.3499 H         1 UNK         0.0000 
     39 H39         7.4857   54.9967   19.2996 H         1 UNK         0.0000 
     40 H40         5.6638   55.7256   21.0197 H         1 UNK         0.0000 
     41 H41         3.9417   54.7719   22.4648 H         1 UNK         0.0000 
     42 H42         3.4365   51.5206   19.6685 H         1 UNK         0.0000 
     43 H43         5.1066   52.4983   18.2383 H         1 UNK         0.0000 
     44 H44         1.1096   48.8611   23.1368 H         1 UNK         0.0000 
     45 H45         0.5148   53.2593   25.4346 H         1 UNK         0.0000 
     46 H46        -1.3165   50.7171   26.8889 H         1 UNK         0.0000 
     47 H47         1.7748   52.1256   26.9449 H         1 UNK         0.0000 
     48 H48         4.6451   53.1282   30.0096 H         1 UNK         0.0000 
     49 H49         6.6990   54.0983   29.0593 H         1 UNK         0.0000 
     50 H50         2.6898   53.6092   26.1922 H         1 UNK         0.0000 
     51 H51         5.9001   55.2998   23.4757 H         1 UNK         0.0000 
     52 H52         5.5704   56.3522   24.8791 H         1 UNK         0.0000 
     53 H53         7.3583   53.8763   24.8451 H         1 UNK         0.0000 
     54 H54         7.8974   55.5589   24.8815 H         1 UNK         0.0000 
     55 H55         0.0457   47.7152   24.9115 H         1 UNK         0.0000 
     56 H56         0.1610   48.4964   26.4843 H         1 UNK         0.0000 
     57 H57        -1.3214   48.6431   25.5618 H         1 UNK         0.0000 
@<TRIPOS>BOND
     1    1    2 1    
     2    1   35 1    
     3    1   36 1    
     4    1   37 1    
     5    2    3 1    
     6    2   38 1    
     7    2   39 1    
     8    3    8 ar   
     9    3    4 ar   
    10    4    5 ar   
    11    4   40 1    
    12    5    6 ar   
    13    5   41 1    
    14    6    7 ar   
    15    6    9 1    
    16    7    8 ar   
    17    7   42 1    
    18    8   43 1    
    19    9   17 ar   
    20    9   10 ar   
    21   10   11 ar   
    22   11   16 ar   
    23   11   12 ar   
    24   12   13 ar   
    25   12   44 1    
    26   13   14 ar   
    27   13   34 1    
    28   14   15 ar   
    29   14   18 1    
    30   15   16 ar   
    31   15   45 1    
    32   16   17 ar   
    33   18   19 1    
    34   18   46 1    
    35   19   20 2    
    36   19   21 am   BACKBONE|DICT|INTERRES
    37   21   22 am   BACKBONE|DICT|INTERRES
    38   21   47 1    
    39   22   23 2    
    40   22   24 1    
    41   24   29 ar   
    42   24   25 ar   
    43   25   26 ar   
    44   25   48 1    
    45   26   27 ar   
    46   26   49 1    
    47   27   33 1    
    48   27   28 ar   
    49   28   29 ar   
    50   28   30 1    
    51   29   50 1    
    52   30   31 1    
    53   31   32 1    
    54   31   51 1    
    55   31   52 1    
    56   32   33 1    
    57   32   53 1    
    58   32   54 1    
    59   34   55 1    
    60   34   56 1    
    61   34   57 1    
@<TRIPOS>SUBSTRUCTURE
     1 UNK         1 GROUP             0       ****    0 ROOT    
