@<TRIPOS>MOLECULE
ZINC38684375_6009
54   57    1
SMALL
USER_CHARGES


@<TRIPOS>ATOM
      1 C1          0.7047   52.8957   31.6299 C.3       1 UNK         0.0000 
      2 C2          0.3977   53.6067   30.3072 C.3       1 UNK         0.0000 
      3 C3          1.1225   54.9592   30.1411 C.3       1 UNK         0.0000 
      4 O4          2.5255   54.8037   29.9325 O.3       1 UNK         0.0000 
      5 C5          2.9936   54.4214   28.6881 C.ar      1 UNK         0.0000 
      6 C6          4.3778   54.3746   28.5297 C.ar      1 UNK         0.0000 
      7 C7          4.9388   54.0219   27.3058 C.ar      1 UNK         0.0000 
      8 C8          4.1145   53.6968   26.2305 C.ar      1 UNK         0.0000 
      9 C9          2.7170   53.6967   26.3609 C.ar      1 UNK         0.0000 
     10 C10         2.1769   54.0939   27.5905 C.ar      1 UNK         0.0000 
     11 C11         1.7675   53.3508   25.1869 C.3       1 UNK         0.0000 
     12 H12         1.1045   54.2139   25.1559 H         1 UNK         0.0000 
     13 C13         2.4110   53.3183   23.7920 C.ar      1 UNK         0.0000 
     14 C14         3.1037   54.4195   23.2989 C.ar      1 UNK         0.0000 
     15 C15         3.7011   54.4002   22.0468 C.ar      1 UNK         0.0000 
     16 C16         3.6243   53.2632   21.2277 C.ar      1 UNK         0.0000 
     17 C17         2.9063   52.1592   21.6987 C.ar      1 UNK         0.0000 
     18 C18         2.3044   52.1880   22.9606 C.ar      1 UNK         0.0000 
     19 O19         1.6220   51.0544   23.3544 O.3       1 UNK         0.0000 
     20 C20         0.8689   51.1054   24.4820 C.2       1 UNK         0.0000 
     21 C21         0.8651   52.1224   25.3702 C.2       1 UNK         0.0000 
     22 C22        -0.0325   52.0869   26.4793 C.1       1 UNK         0.0000 
     23 N23        -0.7922   52.0956   27.3511 N.1       1 UNK         0.0000 
     24 N24         0.1586   49.9392   24.5665 N.pl3     1 UNK         0.0000 
     25 O25         4.1652   53.1753   19.9532 O.3       1 UNK         0.0000 
     26 C26         5.2419   53.9158   19.5072 C.2       1 UNK         0.0000 
     27 O27         5.9104   54.6670   20.2199 O.2       1 UNK         0.0000 
     28 C28         5.5252   53.7061   18.0458 C.ar      1 UNK         0.0000 
     29 C29         4.4800   53.2963   17.1969 C.ar      1 UNK         0.0000 
     30 C30         4.6987   53.0625   15.8409 C.ar      1 UNK         0.0000 
     31 C31         5.9681   53.2398   15.3014 C.ar      1 UNK         0.0000 
     32 C32         7.0152   53.6553   16.1191 C.ar      1 UNK         0.0000 
     33 C33         6.8097   53.8919   17.4803 C.ar      1 UNK         0.0000 
     34 Br34        8.3432   54.4490   18.4813 Br        1 UNK         0.0000 
     35 H35         0.1882   51.9374   31.6818 H         1 UNK         0.0000 
     36 H36         0.3830   53.4868   32.4885 H         1 UNK         0.0000 
     37 H37         1.7702   52.6932   31.7343 H         1 UNK         0.0000 
     38 H38         0.6544   52.9286   29.4960 H         1 UNK         0.0000 
     39 H39        -0.6766   53.7627   30.2236 H         1 UNK         0.0000 
     40 H40         0.7044   55.5538   29.3308 H         1 UNK         0.0000 
     41 H41         0.9803   55.5632   31.0383 H         1 UNK         0.0000 
     42 H42         5.0231   54.6265   29.3588 H         1 UNK         0.0000 
     43 H43         6.0125   53.9907   27.1938 H         1 UNK         0.0000 
     44 H44         4.5837   53.4050   25.3032 H         1 UNK         0.0000 
     45 H45         1.1043   54.1447   27.6770 H         1 UNK         0.0000 
     46 H46         3.1892   55.2967   23.9152 H         1 UNK         0.0000 
     47 H47         4.2009   55.2964   21.7182 H         1 UNK         0.0000 
     48 H48         2.8141   51.2764   21.0820 H         1 UNK         0.0000 
     49 H49        -0.4593   49.7807   25.3515 H         1 UNK         0.0000 
     50 H50         0.5070   49.1164   24.0977 H         1 UNK         0.0000 
     51 H51         3.4816   53.1363   17.5792 H         1 UNK         0.0000 
     52 H52         3.8841   52.7328   15.2123 H         1 UNK         0.0000 
     53 H53         6.1413   53.0525   14.2521 H         1 UNK         0.0000 
     54 H54         7.9995   53.7887   15.6946 H         1 UNK         0.0000 
@<TRIPOS>BOND
     1    1    2 1    
     2    1   35 1    
     3    1   36 1    
     4    1   37 1    
     5    2    3 1    
     6    2   38 1    
     7    2   39 1    
     8    3    4 1    
     9    3   40 1    
    10    3   41 1    
    11    4    5 1    
    12    5   10 ar   
    13    5    6 ar   
    14    6    7 ar   
    15    6   42 1    
    16    7    8 ar   
    17    7   43 1    
    18    8    9 ar   
    19    8   44 1    
    20    9   10 ar   
    21    9   11 1    
    22   10   45 1    
    23   11   12 1    
    24   11   21 1    
    25   11   13 1    
    26   13   18 ar   
    27   13   14 ar   
    28   14   15 ar   
    29   14   46 1    
    30   15   16 ar   
    31   15   47 1    
    32   16   17 ar   
    33   16   25 1    
    34   17   18 ar   
    35   17   48 1    
    36   18   19 1    
    37   19   20 1    
    38   20   21 2    
    39   20   24 1    
    40   21   22 1    
    41   22   23 3    
    42   24   49 1    
    43   24   50 1    
    44   25   26 1    
    45   26   27 2    
    46   26   28 1    
    47   28   33 ar   
    48   28   29 ar   
    49   29   30 ar   
    50   29   51 1    
    51   30   31 ar   
    52   30   52 1    
    53   31   32 ar   
    54   31   53 1    
    55   32   33 ar   
    56   32   54 1    
    57   33   34 1    
@<TRIPOS>SUBSTRUCTURE
     1 UNK         1 GROUP             0       ****    0 ROOT    
