ZINC43657839_4582
                    3D
 Schrodinger Suite 2024-2.
 52 54  0  0  1  0            999 V2000
    4.1460   55.8850   17.7082 C   0  0  0  0  0  0
    5.3515   54.9665   18.0111 C   0  0  1  0  0  0
    5.4453   54.3073   17.1466 H   0  0  0  0  0  0
    6.7185   55.6748   18.1006 C   0  0  0  0  0  0
    6.8518   57.0625   17.9574 C   0  0  0  0  0  0
    8.1000   57.6678   18.0796 C   0  0  0  0  0  0
    9.2196   56.8852   18.3453 C   0  0  0  0  0  0
    9.1046   55.5050   18.4813 C   0  0  0  0  0  0
    7.8583   54.9043   18.3570 C   0  0  0  0  0  0
    5.0529   54.0722   19.1415 N   0  0  0  0  0  0
    5.0575   54.4055   20.4432 C   0  0  0  0  0  0
    5.7594   55.2957   20.9250 O   0  0  0  0  0  0
    4.1603   53.6717   21.1279 N   0  0  0  0  0  0
    3.8816   53.7193   22.5037 C   0  0  0  0  0  0
    2.6008   53.3345   22.8982 C   0  0  0  0  0  0
    2.2518   53.3357   24.2470 C   0  0  0  0  0  0
    3.1863   53.7102   25.2290 C   0  0  0  0  0  0
    4.4698   54.0967   24.8178 C   0  0  0  0  0  0
    4.8209   54.0967   23.4715 C   0  0  0  0  0  0
    2.8523   53.6981   26.7086 C   0  0  0  0  0  0
    3.7134   53.9864   27.5425 O   0  0  0  0  0  0
    1.5858   53.3610   27.0384 N   0  0  0  0  0  0
    1.0444   53.3437   28.3340 C   0  0  0  0  0  0
    0.3490   52.1898   28.7053 C   0  0  0  0  0  0
   -0.2237   52.0968   29.9708 C   0  0  0  0  0  0
   -0.0741   53.1342   30.8814 C   0  0  0  0  0  0
    0.5873   54.2978   30.5098 C   0  0  0  0  0  0
    1.1205   54.4419   29.2188 C   0  0  0  0  0  0
    1.6947   55.6183   28.7735 O   0  0  0  0  0  0
    1.6380   56.7718   29.6036 C   0  0  0  0  0  0
    4.2695   56.4055   16.7570 H   0  0  0  0  0  0
    3.2209   55.3099   17.6408 H   0  0  0  0  0  0
    4.0023   56.6374   18.4835 H   0  0  0  0  0  0
    5.9983   57.6935   17.7575 H   0  0  0  0  0  0
    8.1929   58.7384   17.9725 H   0  0  0  0  0  0
   10.1891   57.3492   18.4513 H   0  0  0  0  0  0
    9.9756   54.9032   18.6914 H   0  0  0  0  0  0
    7.7737   53.8331   18.4720 H   0  0  0  0  0  0
    4.7110   53.1553   18.8877 H   0  0  0  0  0  0
    3.5188   53.1245   20.5772 H   0  0  0  0  0  0
    1.8663   53.0441   22.1627 H   0  0  0  0  0  0
    1.2486   53.0358   24.5026 H   0  0  0  0  0  0
    5.2175   54.3888   25.5428 H   0  0  0  0  0  0
    5.8263   54.3805   23.1978 H   0  0  0  0  0  0
    1.0041   52.9847   26.3074 H   0  0  0  0  0  0
    0.2449   51.3577   28.0246 H   0  0  0  0  0  0
   -0.7748   51.2088   30.2543 H   0  0  0  0  0  0
   -0.4955   53.0503   31.8713 H   0  0  0  0  0  0
    0.6573   55.0880   31.2412 H   0  0  0  0  0  0
    1.9041   57.6493   29.0202 H   0  0  0  0  0  0
    0.6424   56.9356   29.9986 H   0  0  0  0  0  0
    2.3032   56.6913   30.4566 H   0  0  0  0  0  0
  1  2  1  0  0  0
  1 31  1  0  0  0
  1 32  1  0  0  0
  1 33  1  0  0  0
  2  3  1  0  0  0
  2  4  1  0  0  0
  2 10  1  0  0  0
  4  9  2  0  0  0
  4  5  1  0  0  0
  5  6  2  0  0  0
  5 34  1  0  0  0
  6  7  1  0  0  0
  6 35  1  0  0  0
  7  8  2  0  0  0
  7 36  1  0  0  0
  8  9  1  0  0  0
  8 37  1  0  0  0
  9 38  1  0  0  0
 10 11  1  0  0  0
 10 39  1  0  0  0
 11 12  2  0  0  0
 11 13  1  0  0  0
 13 14  1  0  0  0
 13 40  1  0  0  0
 14 19  2  0  0  0
 14 15  1  0  0  0
 15 16  2  0  0  0
 15 41  1  0  0  0
 16 17  1  0  0  0
 16 42  1  0  0  0
 17 18  2  0  0  0
 17 20  1  0  0  0
 18 19  1  0  0  0
 18 43  1  0  0  0
 19 44  1  0  0  0
 20 21  2  0  0  0
 20 22  1  0  0  0
 22 23  1  0  0  0
 22 45  1  0  0  0
 23 28  2  0  0  0
 23 24  1  0  0  0
 24 25  2  0  0  0
 24 46  1  0  0  0
 25 26  1  0  0  0
 25 47  1  0  0  0
 26 27  2  0  0  0
 26 48  1  0  0  0
 27 28  1  0  0  0
 27 49  1  0  0  0
 28 29  1  0  0  0
 29 30  1  0  0  0
 30 50  1  0  0  0
 30 51  1  0  0  0
 30 52  1  0  0  0
M  END
> <i_i_glide_confnum>
104

> <i_i_glide_lignum>
4583

> <i_i_glide_posenum>
326

> <i_i_glide_rotatable_bonds>
9

> <i_m_Source_File_Index>
4735

> <b_m_subgroup_collapsed>
0

> <r_i_docking_score>
-5.47672

> <r_i_glide_ecoul>
-5.20155

> <r_i_glide_eff_state_penalty>
0

> <r_i_glide_einternal>
6.92116

> <r_i_glide_emodel>
-61.5044

> <r_i_glide_energy>
-48.156

> <r_i_glide_erotb>
0.899726

> <r_i_glide_esite>
-0.013304

> <r_i_glide_evdw>
-42.9545

> <r_i_glide_gscore>
-5.47672

> <r_i_glide_hbond>
0

> <r_i_glide_ligand_efficiency>
-0.188852

> <r_i_glide_ligand_efficiency_ln>
-1.25403

> <r_i_glide_ligand_efficiency_sa>
-0.580215

> <r_i_glide_lipo>
-2.55525

> <r_i_glide_metal>
0

> <r_i_glide_rewards>
-0.879941

> <s_i_glide_gridfile>
wee1_glide-grid

> <s_m_Source_File>
wee1_decoys_glide_SP.sdf

> <s_m_Source_Path>
/Users/zhangxujun/Desktop

> <s_m_entry_id>
5010

> <s_m_entry_name>
wee1_decoys_glide_SP.4735

> <s_m_subgroup_title>
wee1_decoys_glide_SP

> <s_m_subgroupid>
wee1_decoys_glide_SP


$$$$
