ZINC09132450_1423
                    3D
 Schrodinger Suite 2024-2.
 50 54  0  0  1  0            999 V2000
   -0.3470   50.3351   22.7194 C   0  0  0  0  0  0
   -0.8695   49.4235   21.7975 C   0  0  0  0  0  0
   -1.3124   48.2049   22.2869 C   0  0  0  0  0  0
   -1.2375   47.8852   23.6134 C   0  0  0  0  0  0
   -0.7211   48.7741   24.5576 C   0  0  0  0  0  0
   -0.2720   50.0372   24.1018 C   0  0  0  0  0  0
    0.2985   51.0852   25.0348 C   0  0  0  0  0  0
    0.9849   51.9970   24.5640 O   0  0  0  0  0  0
   -0.0158   50.9887   26.3492 N   0  0  0  0  0  0
    0.3591   51.9076   27.3283 C   0  0  0  0  0  0
    1.2712   52.8602   27.2285 N   0  0  0  0  0  0
    1.2812   53.6069   28.3150 C   0  0  0  0  0  0
    0.4093   53.2585   29.3151 C   0  0  0  0  0  0
   -0.4975   51.8661   28.8460 S   0  0  0  0  0  0
    0.5010   54.1356   30.5248 C   0  0  0  0  0  0
    1.3646   55.2967   29.9824 C   0  0  0  0  0  0
    2.1283   54.7890   28.7219 C   0  0  1  0  0  0
    2.1910   55.5680   27.9621 H   0  0  0  0  0  0
    3.5657   54.3171   29.0315 C   0  0  0  0  0  0
    3.8280   53.7941   30.1158 O   0  0  0  0  0  0
    4.4981   54.5079   28.0843 N   0  0  0  0  0  0
    5.9215   54.2195   28.2777 C   0  0  0  0  0  0
    6.7864   54.3590   27.0049 C   0  0  1  0  0  0
    7.8362   54.1431   27.2267 H   0  0  0  0  0  0
    6.2991   53.5026   25.8358 C   0  0  0  0  0  0
    5.8648   54.4678   24.7584 C   0  0  0  0  0  0
    6.6450   55.7182   25.0913 C   0  0  0  0  0  0
    6.7041   55.6967   26.5115 O   0  0  0  0  0  0
   -1.7014   46.6184   23.7919 O   0  0  0  0  0  0
   -2.1569   46.1844   22.5306 C   0  0  0  0  0  0
   -1.8236   47.1628   21.5871 O   0  0  0  0  0  0
    0.0008   51.2893   22.3447 H   0  0  0  0  0  0
   -0.9167   49.6646   20.7454 H   0  0  0  0  0  0
   -0.6602   48.4827   25.5993 H   0  0  0  0  0  0
   -0.6449   50.2521   26.6399 H   0  0  0  0  0  0
    0.9815   53.6216   31.3586 H   0  0  0  0  0  0
   -0.4728   54.4782   30.8675 H   0  0  0  0  0  0
    2.0134   55.7165   30.7544 H   0  0  0  0  0  0
    0.7061   56.1193   29.6877 H   0  0  0  0  0  0
    4.2429   54.9448   27.2082 H   0  0  0  0  0  0
    6.0413   53.2068   28.6662 H   0  0  0  0  0  0
    6.2989   54.8799   29.0544 H   0  0  0  0  0  0
    5.4357   52.8933   26.0950 H   0  0  0  0  0  0
    7.1172   52.8993   25.4405 H   0  0  0  0  0  0
    4.7909   54.6586   24.8182 H   0  0  0  0  0  0
    6.0872   54.1026   23.7523 H   0  0  0  0  0  0
    6.1344   56.6145   24.7380 H   0  0  0  0  0  0
    7.6500   55.7265   24.6732 H   0  0  0  0  0  0
   -3.2444   46.0787   22.5566 H   0  0  0  0  0  0
   -1.6692   45.2563   22.2307 H   0  0  0  0  0  0
  1  6  2  0  0  0
  1  2  1  0  0  0
  1 32  1  0  0  0
  2  3  2  0  0  0
  2 33  1  0  0  0
  3 31  1  0  0  0
  3  4  1  0  0  0
  4  5  2  0  0  0
  4 29  1  0  0  0
  5  6  1  0  0  0
  5 34  1  0  0  0
  6  7  1  0  0  0
  7  8  2  0  0  0
  7  9  1  0  0  0
  9 10  1  0  0  0
  9 35  1  0  0  0
 10 14  1  0  0  0
 10 11  2  0  0  0
 11 12  1  0  0  0
 12 17  1  0  0  0
 12 13  2  0  0  0
 13 14  1  0  0  0
 13 15  1  0  0  0
 15 16  1  0  0  0
 15 36  1  0  0  0
 15 37  1  0  0  0
 16 17  1  0  0  0
 16 38  1  0  0  0
 16 39  1  0  0  0
 17 18  1  0  0  0
 17 19  1  0  0  0
 19 20  2  0  0  0
 19 21  1  0  0  0
 21 22  1  0  0  0
 21 40  1  0  0  0
 22 23  1  0  0  0
 22 41  1  0  0  0
 22 42  1  0  0  0
 23 24  1  0  0  0
 23 28  1  0  0  0
 23 25  1  0  0  0
 25 26  1  0  0  0
 25 43  1  0  0  0
 25 44  1  0  0  0
 26 27  1  0  0  0
 26 45  1  0  0  0
 26 46  1  0  0  0
 27 28  1  0  0  0
 27 47  1  0  0  0
 27 48  1  0  0  0
 29 30  1  0  0  0
 30 31  1  0  0  0
 30 49  1  0  0  0
 30 50  1  0  0  0
M  END
> <i_i_glide_confnum>
10

> <i_i_glide_lignum>
1424

> <i_i_glide_posenum>
379

> <i_i_glide_rotatable_bonds>
7

> <i_m_Source_File_Index>
6067

> <b_m_subgroup_collapsed>
0

> <r_i_docking_score>
-6.76649

> <r_i_glide_ecoul>
-7.08176

> <r_i_glide_eff_state_penalty>
0

> <r_i_glide_einternal>
10.3877

> <r_i_glide_emodel>
-61.2765

> <r_i_glide_energy>
-46.616

> <r_i_glide_erotb>
0.686414

> <r_i_glide_esite>
-0.0625094

> <r_i_glide_evdw>
-39.5342

> <r_i_glide_gscore>
-6.76649

> <r_i_glide_hbond>
-0.608

> <r_i_glide_ligand_efficiency>
-0.233327

> <r_i_glide_ligand_efficiency_ln>
-1.54936

> <r_i_glide_ligand_efficiency_sa>
-0.716855

> <r_i_glide_lipo>
-2.68484

> <r_i_glide_metal>
0

> <r_i_glide_rewards>
-1.05859

> <s_i_glide_gridfile>
wee1_glide-grid

> <s_m_Source_File>
wee1_decoys_glide_SP.sdf

> <s_m_Source_Path>
/Users/zhangxujun/Desktop

> <s_m_entry_id>
6342

> <s_m_entry_name>
wee1_decoys_glide_SP.6067

> <s_m_subgroup_title>
wee1_decoys_glide_SP

> <s_m_subgroupid>
wee1_decoys_glide_SP


$$$$
