@<TRIPOS>MOLECULE
ZINC43391717_3780
26   28    1
SMALL
USER_CHARGES


@<TRIPOS>ATOM
      1 C1          5.4284   54.0012   19.5951 C.2       1 UNK         0.0000 
      2 C2          6.2941   55.0797   19.5085 C.2       1 UNK         0.0000 
      3 S3          6.7247   55.6959   21.0699 S.3       1 UNK         0.0000 
      4 C4          5.7317   54.4981   21.8620 C.2       1 UNK         0.0000 
      5 C5          5.1034   53.6834   20.9163 C.2       1 UNK         0.0000 
      6 N6          4.2656   52.6493   21.2246 N.pl3     1 UNK         0.0000 
      7 C7          5.6353   54.4964   23.3113 C.2       1 UNK         0.0000 
      8 N8          4.6227   54.0965   24.0270 N.2       1 UNK         0.0000 
      9 C9          5.0090   54.3842   25.2574 C.2       1 UNK         0.0000 
     10 N10         6.2054   54.9300   25.3702 N.2       1 UNK         0.0000 
     11 O11         6.6420   55.0267   24.0490 O.3       1 UNK         0.0000 
     12 C12         4.1338   54.0927   26.4419 C.ar      1 UNK         0.0000 
     13 C13         2.8105   53.6543   26.2690 C.ar      1 UNK         0.0000 
     14 C14         2.0050   53.3489   27.3676 C.ar      1 UNK         0.0000 
     15 C15         2.5029   53.5048   28.6610 C.ar      1 UNK         0.0000 
     16 C16         3.8122   53.9495   28.8459 C.ar      1 UNK         0.0000 
     17 C17         4.6227   54.2366   27.7497 C.ar      1 UNK         0.0000 
     18 F18         4.3037   54.1027   30.0917 F         1 UNK         0.0000 
     19 F19         1.7242   53.2249   29.7328 F         1 UNK         0.0000 
     20 F20         0.7436   52.8964   27.1736 F         1 UNK         0.0000 
     21 H21         5.0441   53.4658   18.7397 H         1 UNK         0.0000 
     22 H22         6.6928   55.5351   18.6134 H         1 UNK         0.0000 
     23 H23         3.9804   52.4612   22.1747 H         1 UNK         0.0000 
     24 H24         3.8662   52.0650   20.5021 H         1 UNK         0.0000 
     25 H25         2.3984   53.5278   25.2781 H         1 UNK         0.0000 
     26 H26         5.6359   54.5696   27.9281 H         1 UNK         0.0000 
@<TRIPOS>BOND
     1    1    5 1    
     2    1    2 2    
     3    1   21 1    
     4    2    3 1    
     5    2   22 1    
     6    3    4 1    
     7    4    5 2    
     8    4    7 1    
     9    5    6 1    
    10    6   23 1    
    11    6   24 1    
    12    7   11 1    
    13    7    8 2    
    14    8    9 1    
    15    9   10 2    
    16    9   12 1    
    17   10   11 1    
    18   12   17 ar   
    19   12   13 ar   
    20   13   14 ar   
    21   13   25 1    
    22   14   15 ar   
    23   14   20 1    
    24   15   16 ar   
    25   15   19 1    
    26   16   17 ar   
    27   16   18 1    
    28   17   26 1    
@<TRIPOS>SUBSTRUCTURE
     1 UNK         1 GROUP             0       ****    0 ROOT    
