ZINC24785013_3221
                    3D
 Schrodinger Suite 2024-2.
 53 57  0  0  1  0            999 V2000
    9.6064   50.5462   15.2873 C   0  0  0  0  0  0
    9.3467   51.8044   16.0975 C   0  0  0  0  0  0
   10.3950   52.6703   16.4128 C   0  0  0  0  0  0
   10.1511   53.8106   17.1757 C   0  0  0  0  0  0
    8.8598   54.0924   17.6256 C   0  0  0  0  0  0
    7.8085   53.2367   17.2817 C   0  0  0  0  0  0
    8.0508   52.0965   16.5219 C   0  0  0  0  0  0
    8.6679   55.2072   18.4543 N   0  0  0  0  0  0
    7.1662   56.1505   18.5159 S   0  0  0  0  0  0
    7.5040   57.3976   19.2093 O   0  0  0  0  0  0
    6.5817   56.1553   17.1705 O   0  0  0  0  0  0
    6.0704   55.2559   19.6080 C   0  0  0  0  0  0
    4.9329   54.6184   19.1068 C   0  0  0  0  0  0
    4.1080   53.8945   19.9637 C   0  0  0  0  0  0
    4.4050   53.8155   21.3233 C   0  0  0  0  0  0
    5.5446   54.4531   21.8373 C   0  0  0  0  0  0
    6.3705   55.1785   20.9695 C   0  0  0  0  0  0
    5.9318   54.3093   23.2827 C   0  0  0  0  0  0
    7.1044   54.1019   23.5807 O   0  0  0  0  0  0
    4.9155   54.3959   24.1618 N   0  0  0  0  0  0
    4.9945   54.3126   25.5430 C   0  0  0  0  0  0
    3.9157   54.1004   26.2409 N   0  0  0  0  0  0
    4.1406   53.9899   27.5399 C   0  0  0  0  0  0
    5.4795   54.1672   27.9052 C   0  0  0  0  0  0
    6.4477   54.4666   26.4943 S   0  0  0  0  0  0
    2.9939   53.6859   28.4469 C   0  0  0  0  0  0
    1.6778   54.0142   28.0526 C   0  0  0  0  0  0
    0.5767   53.7049   28.8548 C   0  0  0  0  0  0
    0.8312   53.0698   30.0588 C   0  0  0  0  0  0
    2.0961   52.7439   30.4576 C   0  0  0  0  0  0
    3.2087   53.0368   29.6763 C   0  0  0  0  0  0
    2.0368   52.0967   31.6498 O   0  0  0  0  0  0
    0.7071   52.2349   32.0814 C   0  0  0  0  0  0
   -0.0601   52.6454   30.9822 O   0  0  0  0  0  0
    8.8720   50.4537   14.4868 H   0  0  0  0  0  0
    9.5190   49.6612   15.9184 H   0  0  0  0  0  0
   10.5932   50.5542   14.8231 H   0  0  0  0  0  0
   11.3997   52.4566   16.0796 H   0  0  0  0  0  0
   10.9735   54.4682   17.4156 H   0  0  0  0  0  0
    6.8033   53.4210   17.6195 H   0  0  0  0  0  0
    7.2312   51.4352   16.2817 H   0  0  0  0  0  0
    9.4754   55.6220   18.8938 H   0  0  0  0  0  0
    4.6892   54.6711   18.0551 H   0  0  0  0  0  0
    3.2316   53.3975   19.5722 H   0  0  0  0  0  0
    3.7553   53.2297   21.9582 H   0  0  0  0  0  0
    7.2645   55.6604   21.3446 H   0  0  0  0  0  0
    3.9847   54.4234   23.7761 H   0  0  0  0  0  0
    5.9311   54.1469   28.8859 H   0  0  0  0  0  0
    1.5024   54.4985   27.1051 H   0  0  0  0  0  0
   -0.4267   53.9452   28.5383 H   0  0  0  0  0  0
    4.2017   52.7538   29.9918 H   0  0  0  0  0  0
    0.6491   52.9909   32.8664 H   0  0  0  0  0  0
    0.3229   51.2964   32.4803 H   0  0  0  0  0  0
  1  2  1  0  0  0
  1 35  1  0  0  0
  1 36  1  0  0  0
  1 37  1  0  0  0
  2  7  2  0  0  0
  2  3  1  0  0  0
  3  4  2  0  0  0
  3 38  1  0  0  0
  4  5  1  0  0  0
  4 39  1  0  0  0
  5  6  2  0  0  0
  5  8  1  0  0  0
  6  7  1  0  0  0
  6 40  1  0  0  0
  7 41  1  0  0  0
  8  9  1  0  0  0
  8 42  1  0  0  0
  9 10  2  0  0  0
  9 11  2  0  0  0
  9 12  1  0  0  0
 12 17  2  0  0  0
 12 13  1  0  0  0
 13 14  2  0  0  0
 13 43  1  0  0  0
 14 15  1  0  0  0
 14 44  1  0  0  0
 15 16  2  0  0  0
 15 45  1  0  0  0
 16 17  1  0  0  0
 16 18  1  0  0  0
 17 46  1  0  0  0
 18 19  2  0  0  0
 18 20  1  0  0  0
 20 21  1  0  0  0
 20 47  1  0  0  0
 21 25  1  0  0  0
 21 22  2  0  0  0
 22 23  1  0  0  0
 23 24  2  0  0  0
 23 26  1  0  0  0
 24 25  1  0  0  0
 24 48  1  0  0  0
 26 31  2  0  0  0
 26 27  1  0  0  0
 27 28  2  0  0  0
 27 49  1  0  0  0
 28 29  1  0  0  0
 28 50  1  0  0  0
 29 34  1  0  0  0
 29 30  2  0  0  0
 30 31  1  0  0  0
 30 32  1  0  0  0
 31 51  1  0  0  0
 32 33  1  0  0  0
 33 34  1  0  0  0
 33 52  1  0  0  0
 33 53  1  0  0  0
M  END
> <i_i_glide_confnum>
67

> <i_i_glide_lignum>
3222

> <i_i_glide_posenum>
233

> <i_i_glide_rotatable_bonds>
7

> <i_m_Source_File_Index>
1658

> <b_m_subgroup_collapsed>
0

> <r_i_docking_score>
-6.35199

> <r_i_glide_ecoul>
-3.98422

> <r_i_glide_eff_state_penalty>
0

> <r_i_glide_einternal>
2.92471

> <r_i_glide_emodel>
-79.3061

> <r_i_glide_energy>
-59.5453

> <r_i_glide_erotb>
0.585416

> <r_i_glide_esite>
-0.140842

> <r_i_glide_evdw>
-55.5611

> <r_i_glide_gscore>
-6.35199

> <r_i_glide_hbond>
-0.119983

> <r_i_glide_ligand_efficiency>
-0.186823

> <r_i_glide_ligand_efficiency_ln>
-1.40333

> <r_i_glide_ligand_efficiency_sa>
-0.605234

> <r_i_glide_lipo>
-3.15554

> <r_i_glide_metal>
0

> <r_i_glide_rewards>
-0.145344

> <s_i_glide_gridfile>
wee1_glide-grid

> <s_m_Source_File>
wee1_decoys_glide_SP.sdf

> <s_m_Source_Path>
/Users/zhangxujun/Desktop

> <s_m_entry_id>
1933

> <s_m_entry_name>
wee1_decoys_glide_SP.1658

> <s_m_subgroup_title>
wee1_decoys_glide_SP

> <s_m_subgroupid>
wee1_decoys_glide_SP


$$$$
