@<TRIPOS>MOLECULE
ZINC04145772_1113
65   68    1
SMALL
USER_CHARGES


@<TRIPOS>ATOM
      1 C1         -2.7514   50.5851   22.4300 C.3       1 UNK         0.0000 
      2 C2         -1.7960   50.0680   23.5192 C.2       1 UNK         0.0000 
      3 C3         -0.7028   50.7589   23.9459 C.2       1 UNK         0.0000 
      4 C4          0.0614   50.1992   25.1677 C.3       1 UNK         0.0000 
      5 H5          1.1284   50.2406   24.9880 H         1 UNK         0.0000 
      6 N6         -0.2078   48.7457   25.2840 N.am      1 UNK         0.0000 
      7 C7         -1.2588   48.0679   24.7599 C.2       1 UNK         0.0000 
      8 O8         -1.2962   46.8401   24.8804 O.2       1 UNK         0.0000 
      9 N9         -2.1342   48.8193   24.0164 N.am      1 UNK         0.0000 
     10 C10        -3.3921   48.1179   23.6758 C.3       1 UNK         0.0000 
     11 C11        -0.1287   50.9678   26.4827 C.ar      1 UNK         0.0000 
     12 C12        -1.3574   50.9267   27.1489 C.ar      1 UNK         0.0000 
     13 C13        -1.4948   51.5299   28.3989 C.ar      1 UNK         0.0000 
     14 C14        -0.4116   52.1886   28.9783 C.ar      1 UNK         0.0000 
     15 C15         0.8004   52.2680   28.3111 C.ar      1 UNK         0.0000 
     16 C16         0.9381   51.6571   27.0739 C.ar      1 UNK         0.0000 
     17 F17        -0.5207   52.7587   30.1976 F         1 UNK         0.0000 
     18 C18        -0.2562   52.1033   23.3313 C.3       1 UNK         0.0000 
     19 H19        -0.6124   52.1506   22.3052 H         1 UNK         0.0000 
     20 C20        -0.8657   53.2987   24.0824 C.3       1 UNK         0.0000 
     21 C21         1.9563   51.0489   22.3648 C.3       1 UNK         0.0000 
     22 C22         1.6424   50.7549   20.9073 C.ar      1 UNK         0.0000 
     23 C23         0.4963   50.0289   20.5687 C.ar      1 UNK         0.0000 
     24 C24         0.2441   49.7031   19.2388 C.ar      1 UNK         0.0000 
     25 C25         1.1501   50.0872   18.2519 C.ar      1 UNK         0.0000 
     26 C26         2.3038   50.7947   18.5840 C.ar      1 UNK         0.0000 
     27 C27         2.5512   51.1278   19.9116 C.ar      1 UNK         0.0000 
     28 C28         2.1362   53.0968   23.9574 C.3       1 UNK         0.0000 
     29 C29         3.4633   53.6967   23.4572 C.ar      1 UNK         0.0000 
     30 C30         3.7115   53.8233   22.0829 C.ar      1 UNK         0.0000 
     31 C31         4.9586   54.2329   21.6148 C.ar      1 UNK         0.0000 
     32 C32         5.9718   54.5470   22.5160 C.ar      1 UNK         0.0000 
     33 C33         5.7244   54.4959   23.8858 C.ar      1 UNK         0.0000 
     34 C34         4.4713   54.0963   24.3656 C.ar      1 UNK         0.0000 
     35 C35         4.2579   54.0970   25.8119 C.1       1 UNK         0.0000 
     36 N36         4.0843   54.0980   26.9557 N.1       1 UNK         0.0000 
     37 H37        -2.5679   51.6010   22.0946 H         1 UNK         0.0000 
     38 H38        -2.7167   49.9392   21.5523 H         1 UNK         0.0000 
     39 H39        -3.7771   50.6022   22.7980 H         1 UNK         0.0000 
     40 H40         0.2888   48.2388   26.0063 H         1 UNK         0.0000 
     41 H41        -3.5585   47.1948   24.2347 H         1 UNK         0.0000 
     42 H42        -4.2489   48.7557   23.8932 H         1 UNK         0.0000 
     43 H43        -3.4120   47.8687   22.6143 H         1 UNK         0.0000 
     44 H44        -2.1884   50.3767   26.7314 H         1 UNK         0.0000 
     45 H45        -2.4290   51.4514   28.9339 H         1 UNK         0.0000 
     46 H46         1.6369   52.7799   28.7633 H         1 UNK         0.0000 
     47 H47         1.9046   51.6969   26.6170 H         1 UNK         0.0000 
     48 H48        -1.9545   53.2608   24.0515 H         1 UNK         0.0000 
     49 H49        -0.5849   53.2813   25.1327 H         1 UNK         0.0000 
     50 H50        -0.5642   54.2618   23.6819 H         1 UNK         0.0000 
     51 H51         1.7086   50.1881   22.9793 H         1 UNK         0.0000 
     52 H52         3.0289   51.2054   22.4781 H         1 UNK         0.0000 
     53 H53        -0.1892   49.6972   21.3330 H         1 UNK         0.0000 
     54 H54        -0.6379   49.1375   18.9741 H         1 UNK         0.0000 
     55 H55         0.9739   49.8152   17.2212 H         1 UNK         0.0000 
     56 H56         3.0237   51.0518   17.8173 H         1 UNK         0.0000 
     57 H57         3.4679   51.6465   20.1536 H         1 UNK         0.0000 
     58 H58         1.5435   53.9035   24.3828 H         1 UNK         0.0000 
     59 H59         2.3328   52.3521   24.7200 H         1 UNK         0.0000 
     60 H60         2.9483   53.5873   21.3561 H         1 UNK         0.0000 
     61 H61         5.1386   54.3022   20.5515 H         1 UNK         0.0000 
     62 H62         6.9410   54.8610   22.1552 H         1 UNK         0.0000 
     63 H63         6.5172   54.7771   24.5659 H         1 UNK         0.0000 
     64 N64         1.2502   52.3123   22.9441 N.4       1 UNK         0.0000 
     65 H65         1.2060   52.9392   22.1518 H         1 UNK         0.0000 
@<TRIPOS>BOND
     1    1    2 1    
     2    1   37 1    
     3    1   38 1    
     4    1   39 1    
     5    2    9 1    
     6    2    3 2    
     7    3    4 1    
     8    3   18 1    
     9    4    5 1    
    10    4    6 1    
    11    4   11 1    
    12    6    7 am   BACKBONE|DICT|INTERRES
    13    6   40 1    
    14    7    8 2    
    15    7    9 am   BACKBONE|DICT|INTERRES
    16    9   10 1    
    17   10   41 1    
    18   10   42 1    
    19   10   43 1    
    20   11   16 ar   
    21   11   12 ar   
    22   12   13 ar   
    23   12   44 1    
    24   13   14 ar   
    25   13   45 1    
    26   14   15 ar   
    27   14   17 1    
    28   15   16 ar   
    29   15   46 1    
    30   16   47 1    
    31   18   19 1    
    32   18   20 1    
    33   18   64 1    
    34   20   48 1    
    35   20   49 1    
    36   20   50 1    
    37   21   22 1    
    38   21   51 1    
    39   21   52 1    
    40   21   64 1    
    41   22   27 ar   
    42   22   23 ar   
    43   23   24 ar   
    44   23   53 1    
    45   24   25 ar   
    46   24   54 1    
    47   25   26 ar   
    48   25   55 1    
    49   26   27 ar   
    50   26   56 1    
    51   27   57 1    
    52   28   29 1    
    53   28   58 1    
    54   28   59 1    
    55   28   64 1    
    56   29   34 ar   
    57   29   30 ar   
    58   30   31 ar   
    59   30   60 1    
    60   31   32 ar   
    61   31   61 1    
    62   32   33 ar   
    63   32   62 1    
    64   33   34 ar   
    65   33   63 1    
    66   34   35 1    
    67   35   36 3    
    68   64   65 1    
@<TRIPOS>SUBSTRUCTURE
     1 UNK         1 GROUP             0       ****    0 ROOT    
