ZINC13981838_3519
                    3D
 Schrodinger Suite 2024-2.
 55 58  0  0  1  0            999 V2000
   -1.1912   51.7351   25.9590 C   0  0  0  0  0  0
   -0.6397   50.4978   26.2725 C   0  0  0  0  0  0
   -0.3752   49.5798   25.2590 C   0  0  0  0  0  0
   -0.6622   49.8977   23.9283 C   0  0  0  0  0  0
   -1.1923   51.1576   23.6218 C   0  0  0  0  0  0
   -1.4577   52.0757   24.6360 C   0  0  0  0  0  0
   -0.4018   48.9178   22.9563 N   0  0  0  0  0  0
   -1.0232   48.9149   21.2897 S   0  0  0  0  0  0
   -2.3245   49.5951   21.2786 O   0  0  0  0  0  0
   -0.8952   47.5298   20.8221 O   0  0  0  0  0  0
    0.1377   49.8988   20.3413 C   0  0  0  0  0  0
    1.2902   49.2953   19.8323 C   0  0  0  0  0  0
    2.2135   50.0564   19.1221 C   0  0  0  0  0  0
    1.9930   51.4224   18.9464 C   0  0  0  0  0  0
    0.8283   52.0242   19.4279 C   0  0  0  0  0  0
   -0.1050   51.2575   20.1207 C   0  0  0  0  0  0
    2.9691   52.1987   18.3036 N   0  0  0  0  0  0
    3.7706   53.1450   18.8745 C   0  0  0  0  0  0
    4.7704   54.0236   17.8632 S   0  0  0  0  0  0
    3.6618   53.2393   20.2414 N   0  0  0  0  0  0
    4.3276   53.9418   21.1835 C   0  0  0  0  0  0
    5.2874   54.6930   20.9912 O   0  0  0  0  0  0
    3.7799   53.6895   22.4957 C   0  0  0  0  0  0
    4.2937   54.2372   23.6154 C   0  0  0  0  0  0
    3.7742   54.0401   24.9892 C   0  0  0  0  0  0
    2.4225   53.7329   25.1837 C   0  0  0  0  0  0
    1.9045   53.5141   26.4517 C   0  0  0  0  0  0
    2.7171   53.5750   27.5715 C   0  0  0  0  0  0
    4.0939   53.8488   27.4334 C   0  0  0  0  0  0
    4.6412   54.0952   26.1307 C   0  0  0  0  0  0
    6.0417   54.3437   26.0341 C   0  0  0  0  0  0
    6.8424   54.3307   27.1692 C   0  0  0  0  0  0
    6.3017   54.0965   28.4209 C   0  0  0  0  0  0
    4.9410   53.8653   28.5671 C   0  0  0  0  0  0
   -1.4075   52.4383   26.7507 H   0  0  0  0  0  0
   -0.4399   50.2314   27.3010 H   0  0  0  0  0  0
    0.0320   48.6125   25.5249 H   0  0  0  0  0  0
   -1.4184   51.4395   22.6097 H   0  0  0  0  0  0
   -1.8787   53.0421   24.3994 H   0  0  0  0  0  0
    0.1096   48.0996   23.2472 H   0  0  0  0  0  0
    1.4791   48.2419   19.9892 H   0  0  0  0  0  0
    3.1043   49.5892   18.7279 H   0  0  0  0  0  0
    0.6587   53.0820   19.2793 H   0  0  0  0  0  0
   -1.0046   51.7241   20.4861 H   0  0  0  0  0  0
    3.1251   52.0012   17.3240 H   0  0  0  0  0  0
    2.9180   52.6754   20.6172 H   0  0  0  0  0  0
    2.9291   53.0244   22.5542 H   0  0  0  0  0  0
    5.1397   54.8983   23.5196 H   0  0  0  0  0  0
    1.7424   53.6791   24.3454 H   0  0  0  0  0  0
    0.8549   53.2968   26.5719 H   0  0  0  0  0  0
    2.3031   53.3913   28.5516 H   0  0  0  0  0  0
    6.5100   54.5136   25.0782 H   0  0  0  0  0  0
    7.9025   54.4967   27.0845 H   0  0  0  0  0  0
    6.9528   54.0963   29.2813 H   0  0  0  0  0  0
    4.5299   53.6758   29.5473 H   0  0  0  0  0  0
  1  6  2  0  0  0
  1  2  1  0  0  0
  1 35  1  0  0  0
  2  3  2  0  0  0
  2 36  1  0  0  0
  3  4  1  0  0  0
  3 37  1  0  0  0
  4  5  2  0  0  0
  4  7  1  0  0  0
  5  6  1  0  0  0
  5 38  1  0  0  0
  6 39  1  0  0  0
  7  8  1  0  0  0
  7 40  1  0  0  0
  8  9  2  0  0  0
  8 10  2  0  0  0
  8 11  1  0  0  0
 11 16  2  0  0  0
 11 12  1  0  0  0
 12 13  2  0  0  0
 12 41  1  0  0  0
 13 14  1  0  0  0
 13 42  1  0  0  0
 14 15  2  0  0  0
 14 17  1  0  0  0
 15 16  1  0  0  0
 15 43  1  0  0  0
 16 44  1  0  0  0
 17 18  1  0  0  0
 17 45  1  0  0  0
 18 19  2  0  0  0
 18 20  1  0  0  0
 20 21  1  0  0  0
 20 46  1  0  0  0
 21 22  2  0  0  0
 21 23  1  0  0  0
 23 24  2  0  0  0
 23 47  1  0  0  0
 24 25  1  0  0  0
 24 48  1  0  0  0
 25 30  2  0  0  0
 25 26  1  0  0  0
 26 27  2  0  0  0
 26 49  1  0  0  0
 27 28  1  0  0  0
 27 50  1  0  0  0
 28 29  2  0  0  0
 28 51  1  0  0  0
 29 34  1  0  0  0
 29 30  1  0  0  0
 30 31  1  0  0  0
 31 32  2  0  0  0
 31 52  1  0  0  0
 32 33  1  0  0  0
 32 53  1  0  0  0
 33 34  2  0  0  0
 33 54  1  0  0  0
 34 55  1  0  0  0
M  END
> <i_i_glide_confnum>
164

> <i_i_glide_lignum>
3520

> <i_i_glide_posenum>
229

> <i_i_glide_rotatable_bonds>
9

> <i_m_Source_File_Index>
3998

> <b_m_subgroup_collapsed>
0

> <r_i_docking_score>
-3.22517

> <r_i_glide_ecoul>
-0.747981

> <r_i_glide_eff_state_penalty>
0

> <r_i_glide_einternal>
6.37105

> <r_i_glide_emodel>
-46.2067

> <r_i_glide_energy>
-43.429

> <r_i_glide_erotb>
0.684098

> <r_i_glide_esite>
-0.139198

> <r_i_glide_evdw>
-42.681

> <r_i_glide_gscore>
-3.22517

> <r_i_glide_hbond>
0

> <r_i_glide_ligand_efficiency>
-0.0948581

> <r_i_glide_ligand_efficiency_ln>
-0.712532

> <r_i_glide_ligand_efficiency_sa>
-0.307303

> <r_i_glide_lipo>
-2.66228

> <r_i_glide_metal>
0

> <r_i_glide_rewards>
1.13845

> <s_i_glide_gridfile>
wee1_glide-grid

> <s_m_Source_File>
wee1_decoys_glide_SP.sdf

> <s_m_Source_Path>
/Users/zhangxujun/Desktop

> <s_m_entry_id>
4273

> <s_m_entry_name>
wee1_decoys_glide_SP.3998

> <s_m_subgroup_title>
wee1_decoys_glide_SP

> <s_m_subgroupid>
wee1_decoys_glide_SP


$$$$
