@<TRIPOS>MOLECULE
ZINC12569607_2475
53   56    1
SMALL
USER_CHARGES


@<TRIPOS>ATOM
      1 C1          1.1997   56.3162   30.7065 C.3       1 UNK         0.0000 
      2 C2          1.3405   55.1537   29.7539 C.2       1 UNK         0.0000 
      3 N3          2.1493   55.1759   28.7322 N.2       1 UNK         0.0000 
      4 C4          2.0779   54.0971   27.9700 C.2       1 UNK         0.0000 
      5 C5          1.1782   53.1045   28.4070 C.2       1 UNK         0.0000 
      6 S6          0.4161   53.6979   29.8629 S.3       1 UNK         0.0000 
      7 C7          0.8496   51.7216   27.8543 C.3       1 UNK         0.0000 
      8 C8         -0.4247   51.6423   26.9936 C.2       1 UNK         0.0000 
      9 O9         -1.1901   52.6022   26.9235 O.2       1 UNK         0.0000 
     10 N10        -0.6332   50.4680   26.3641 N.am      1 UNK         0.0000 
     11 C11        -1.7041   50.0999   25.5236 C.ar      1 UNK         0.0000 
     12 C12        -2.5479   51.0124   24.8664 C.ar      1 UNK         0.0000 
     13 C13        -3.6095   50.5555   24.0872 C.ar      1 UNK         0.0000 
     14 C14        -3.8406   49.1881   23.9510 C.ar      1 UNK         0.0000 
     15 C15        -3.0011   48.2687   24.5865 C.ar      1 UNK         0.0000 
     16 C16        -1.9219   48.7291   25.3487 C.ar      1 UNK         0.0000 
     17 S17        -3.2803   46.4968   24.3967 S.o2      1 UNK         0.0000 
     18 O18        -4.5448   46.3625   23.6661 O.2       1 UNK         0.0000 
     19 O19        -2.0946   46.1123   23.6259 O.2       1 UNK         0.0000 
     20 N20        -3.2878   45.8758   26.0576 N.2       1 UNK         0.0000 
     21 C21        -3.8148   46.5081   27.0242 C.2       1 UNK         0.0000 
     22 N22        -4.5859   47.6571   27.0193 N.pl3     1 UNK         0.0000 
     23 C23        -4.6055   48.3342   28.3005 C.3       1 UNK         0.0000 
     24 C24        -4.6091   47.1242   29.2156 C.3       1 UNK         0.0000 
     25 C25        -3.7348   46.1028   28.4859 C.3       1 UNK         0.0000 
     26 C26         2.9171   54.0651   26.7326 C.ar      1 UNK         0.0000 
     27 C27         4.2559   54.4776   26.7674 C.ar      1 UNK         0.0000 
     28 C28         5.0150   54.4909   25.5999 C.ar      1 UNK         0.0000 
     29 C29         4.4373   54.0980   24.3955 C.ar      1 UNK         0.0000 
     30 C30         3.1042   53.6988   24.3474 C.ar      1 UNK         0.0000 
     31 C31         2.3468   53.6747   25.5159 C.ar      1 UNK         0.0000 
     32 F32         5.1762   54.1056   23.2634 F         1 UNK         0.0000 
     33 H33         2.0480   57.0027   30.6630 H         1 UNK         0.0000 
     34 H34         0.3071   56.8964   30.4822 H         1 UNK         0.0000 
     35 H35         1.1043   55.9855   31.7387 H         1 UNK         0.0000 
     36 H36         1.6927   51.3416   27.2794 H         1 UNK         0.0000 
     37 H37         0.7269   51.0227   28.6818 H         1 UNK         0.0000 
     38 H38        -0.0321   49.7032   26.6354 H         1 UNK         0.0000 
     39 H39        -2.3992   52.0777   24.9425 H         1 UNK         0.0000 
     40 H40        -4.2560   51.2642   23.5906 H         1 UNK         0.0000 
     41 H41        -4.6678   48.8474   23.3446 H         1 UNK         0.0000 
     42 H42        -1.2805   48.0137   25.8486 H         1 UNK         0.0000 
     43 H43        -3.6951   48.9252   28.4072 H         1 UNK         0.0000 
     44 H44        -5.4854   48.9702   28.4034 H         1 UNK         0.0000 
     45 H45        -5.6256   46.7460   29.3371 H         1 UNK         0.0000 
     46 H46        -4.2410   47.3784   30.2110 H         1 UNK         0.0000 
     47 H47        -4.0974   45.0874   28.6213 H         1 UNK         0.0000 
     48 H48        -2.6999   46.1486   28.8289 H         1 UNK         0.0000 
     49 H49         4.7104   54.7863   27.6982 H         1 UNK         0.0000 
     50 H50         6.0489   54.8002   25.6246 H         1 UNK         0.0000 
     51 H51         2.6654   53.4040   23.4054 H         1 UNK         0.0000 
     52 H52         1.3086   53.3790   25.4657 H         1 UNK         0.0000 
     53 H53        -4.7296   48.2991   26.2542 H         1 UNK         0.0000 
@<TRIPOS>BOND
     1    1    2 1    
     2    1   33 1    
     3    1   34 1    
     4    1   35 1    
     5    2    6 1    
     6    2    3 2    
     7    3    4 1    
     8    4    5 2    
     9    4   26 1    
    10    5    6 1    
    11    5    7 1    
    12    7    8 1    
    13    7   36 1    
    14    7   37 1    
    15    8    9 2    
    16    8   10 am   BACKBONE|DICT|INTERRES
    17   10   11 1    
    18   10   38 1    
    19   11   16 ar   
    20   11   12 ar   
    21   12   13 ar   
    22   12   39 1    
    23   13   14 ar   
    24   13   40 1    
    25   14   15 ar   
    26   14   41 1    
    27   15   16 ar   
    28   15   17 1    
    29   16   42 1    
    30   17   18 2    
    31   17   19 2    
    32   17   20 1    
    33   20   21 2    
    34   21   25 1    
    35   21   22 1    
    36   22   23 1    
    37   22   53 1    
    38   23   24 1    
    39   23   43 1    
    40   23   44 1    
    41   24   25 1    
    42   24   45 1    
    43   24   46 1    
    44   25   47 1    
    45   25   48 1    
    46   26   31 ar   
    47   26   27 ar   
    48   27   28 ar   
    49   27   49 1    
    50   28   29 ar   
    51   28   50 1    
    52   29   30 ar   
    53   29   32 1    
    54   30   31 ar   
    55   30   51 1    
    56   31   52 1    
@<TRIPOS>SUBSTRUCTURE
     1 UNK         1 GROUP             0       ****    0 ROOT    
