@<TRIPOS>MOLECULE
ZINC04453376_1812
37   39    1
SMALL
USER_CHARGES


@<TRIPOS>ATOM
      1 C1          2.3230   51.8053   22.4813 C.3       1 UNK         0.0000 
      2 C2          2.2427   52.7271   23.7189 C.3       1 UNK         0.0000 
      3 C3          1.6892   54.1012   23.3167 C.3       1 UNK         0.0000 
      4 C4          1.4518   52.1175   24.8754 C.ar      1 UNK         0.0000 
      5 C5          1.3156   52.4646   26.2213 C.ar      1 UNK         0.0000 
      6 C6          0.5027   51.4526   26.7607 C.ar      1 UNK         0.0000 
      7 N7          0.1272   50.5530   25.8895 N.2       1 UNK         0.0000 
      8 N8          0.7013   50.9684   24.7574 N.pl3     1 UNK         0.0000 
      9 H9          0.6044   50.4462   23.8991 H         1 UNK         0.0000 
     10 O10         0.0971   51.3633   28.0709 O.3       1 UNK         0.0000 
     11 C11         0.4114   52.4347   28.8485 C.2       1 UNK         0.0000 
     12 C12         1.1762   53.4938   28.4817 C.2       1 UNK         0.0000 
     13 C13         1.8561   53.5853   27.1021 C.3       1 UNK         0.0000 
     14 H14         1.5043   54.4967   26.6524 H         1 UNK         0.0000 
     15 C15         3.3801   53.7568   27.1103 C.ar      1 UNK         0.0000 
     16 C16         4.1645   53.1555   28.1002 C.ar      1 UNK         0.0000 
     17 C17         5.5408   53.3626   28.1219 C.ar      1 UNK         0.0000 
     18 C18         6.1384   54.1699   27.1604 C.ar      1 UNK         0.0000 
     19 C19         5.3738   54.7610   26.1614 C.ar      1 UNK         0.0000 
     20 C20         3.9978   54.5570   26.1402 C.ar      1 UNK         0.0000 
     21 F21         7.4697   54.3900   27.2022 F         1 UNK         0.0000 
     22 C22         1.3630   54.5882   29.3781 C.1       1 UNK         0.0000 
     23 N23         1.5045   55.4948   30.0816 N.1       1 UNK         0.0000 
     24 N24        -0.2014   52.2466   30.0593 N.pl3     1 UNK         0.0000 
     25 H25         2.7044   50.8162   22.7370 H         1 UNK         0.0000 
     26 H26         1.3447   51.6687   22.0186 H         1 UNK         0.0000 
     27 H27         2.9825   52.2238   21.7199 H         1 UNK         0.0000 
     28 H28         3.2648   52.8967   24.0570 H         1 UNK         0.0000 
     29 H29         1.5950   54.7822   24.1604 H         1 UNK         0.0000 
     30 H30         2.3210   54.5804   22.5674 H         1 UNK         0.0000 
     31 H31         0.7044   53.9912   22.8818 H         1 UNK         0.0000 
     32 H32         3.7116   52.5276   28.8532 H         1 UNK         0.0000 
     33 H33         6.1490   52.9027   28.8817 H         1 UNK         0.0000 
     34 H34         5.8439   55.3853   25.4164 H         1 UNK         0.0000 
     35 H35         3.4180   55.0413   25.3722 H         1 UNK         0.0000 
     36 H36        -0.0634   52.8783   30.8342 H         1 UNK         0.0000 
     37 H37        -0.8201   51.4595   30.2058 H         1 UNK         0.0000 
@<TRIPOS>BOND
     1    1    2 1    
     2    1   25 1    
     3    1   26 1    
     4    1   27 1    
     5    2    3 1    
     6    2    4 1    
     7    2   28 1    
     8    3   29 1    
     9    3   30 1    
    10    3   31 1    
    11    4    8 ar   
    12    4    5 ar   
    13    5   13 1    
    14    5    6 ar   
    15    6    7 ar   
    16    6   10 1    
    17    7    8 ar   
    18    8    9 1    
    19   10   11 1    
    20   11   12 2    
    21   11   24 1    
    22   12   13 1    
    23   12   22 1    
    24   13   14 1    
    25   13   15 1    
    26   15   20 ar   
    27   15   16 ar   
    28   16   17 ar   
    29   16   32 1    
    30   17   18 ar   
    31   17   33 1    
    32   18   19 ar   
    33   18   21 1    
    34   19   20 ar   
    35   19   34 1    
    36   20   35 1    
    37   22   23 3    
    38   24   36 1    
    39   24   37 1    
@<TRIPOS>SUBSTRUCTURE
     1 UNK         1 GROUP             0       ****    0 ROOT    
