ZINC33767465_5394
                    3D
 Schrodinger Suite 2024-2.
 75 79  0  0  1  0            999 V2000
    2.9969   52.2543   17.6737 C   0  0  0  0  0  0
    3.2069   52.8496   19.0781 C   0  0  2  0  0  0
    2.7059   53.8159   19.0616 H   0  0  0  0  0  0
    4.6922   53.1330   19.3860 C   0  0  0  0  0  0
    4.8353   53.8998   20.7125 C   0  0  0  0  0  0
    4.1422   53.1597   21.8751 C   0  0  0  0  0  0
    2.6727   52.7490   21.5791 C   0  0  1  0  0  0
    2.1490   53.6895   21.4188 H   0  0  0  0  0  0
    2.5661   51.9986   20.2159 C   0  0  2  0  0  0
    1.5004   51.9676   19.9807 H   0  0  0  0  0  0
    3.0675   50.5356   20.3029 C   0  0  0  0  0  0
    2.0264   52.0707   22.7084 N   0  0  0  0  0  0
    1.3372   52.6839   23.6916 C   0  0  0  0  0  0
    1.1306   53.8999   23.7070 O   0  0  0  0  0  0
    0.8398   51.7799   24.8489 C   0  0  2  0  0  0
    1.5026   50.9185   24.8827 H   0  0  0  0  0  0
   -0.6281   51.3509   24.7043 C   0  0  1  0  0  0
   -1.6487   52.3562   24.1540 C   0  0  0  0  0  0
   -2.7802   51.6592   23.9943 C   0  0  0  0  0  0
   -2.4592   50.2744   24.5237 C   0  0  1  0  0  0
   -3.0842   49.4667   24.1342 H   0  0  0  0  0  0
   -1.0912   50.1723   24.0874 O   0  0  0  0  0  0
   -2.2543   50.2597   26.0878 C   0  0  1  0  0  0
   -2.2309   49.2193   26.4234 H   0  0  0  0  0  0
   -0.8181   50.8348   26.1131 C   0  0  2  0  0  0
   -0.1851   49.9701   26.3497 H   0  0  0  0  0  0
   -0.2565   51.9631   26.9697 C   0  0  0  0  0  0
   -0.6275   52.3162   28.0875 O   0  0  0  0  0  0
    0.7638   52.4348   26.1952 N   0  0  0  0  0  0
    1.6876   53.4593   26.7094 C   0  0  0  0  0  0
    2.5643   53.0132   27.8990 C   0  0  0  0  0  0
    3.5615   54.0969   28.3600 C   0  0  0  0  0  0
    4.1486   53.7364   29.7264 C   0  0  0  0  0  0
    4.6808   54.3540   27.3303 C   0  0  0  0  0  0
   -3.3268   50.9837   26.9558 C   0  0  0  0  0  0
   -3.7644   52.0923   26.6345 O   0  0  0  0  0  0
   -3.6955   50.3419   28.0883 N   0  0  0  0  0  0
   -4.6701   50.7318   29.0281 C   0  0  0  0  0  0
   -4.4940   50.2902   30.3402 C   0  0  0  0  0  0
   -5.4034   50.6494   31.3336 C   0  0  0  0  0  0
   -6.5017   51.4418   31.0079 C   0  0  0  0  0  0
   -6.7041   51.8647   29.6947 C   0  0  0  0  0  0
   -5.7931   51.5082   28.7046 C   0  0  0  0  0  0
   -7.6104   51.9143   32.2433 Cl  0  0  0  0  0  0
    3.5044   51.2983   17.5567 H   0  0  0  0  0  0
    1.9374   52.0973   17.4628 H   0  0  0  0  0  0
    3.3910   52.9179   16.9022 H   0  0  0  0  0  0
    5.2754   52.2098   19.3922 H   0  0  0  0  0  0
    5.1216   53.7300   18.5812 H   0  0  0  0  0  0
    5.8919   54.0565   20.9394 H   0  0  0  0  0  0
    4.3998   54.8934   20.6078 H   0  0  0  0  0  0
    4.7205   52.2607   22.0842 H   0  0  0  0  0  0
    4.1852   53.7756   22.7719 H   0  0  0  0  0  0
    4.1331   50.4974   20.5208 H   0  0  0  0  0  0
    2.9054   49.9969   19.3681 H   0  0  0  0  0  0
    2.5522   49.9748   21.0842 H   0  0  0  0  0  0
    2.0903   51.0640   22.7175 H   0  0  0  0  0  0
   -1.4700   53.4072   23.9913 H   0  0  0  0  0  0
   -3.7546   51.9909   23.6728 H   0  0  0  0  0  0
    2.3296   53.8112   25.9050 H   0  0  0  0  0  0
    1.1101   54.3324   27.0123 H   0  0  0  0  0  0
    1.9136   52.7626   28.7344 H   0  0  0  0  0  0
    3.1022   52.0966   27.6558 H   0  0  0  0  0  0
    3.0125   55.0324   28.4879 H   0  0  0  0  0  0
    4.7085   52.8004   29.6805 H   0  0  0  0  0  0
    4.8182   54.5176   30.0806 H   0  0  0  0  0  0
    3.3713   53.6046   30.4775 H   0  0  0  0  0  0
    5.2554   53.4445   27.1337 H   0  0  0  0  0  0
    4.2844   54.7054   26.3777 H   0  0  0  0  0  0
    5.3794   55.1139   27.6837 H   0  0  0  0  0  0
   -3.1145   49.5503   28.3549 H   0  0  0  0  0  0
   -3.6359   49.6937   30.6119 H   0  0  0  0  0  0
   -5.2380   50.3330   32.3554 H   0  0  0  0  0  0
   -7.5668   52.4652   29.4456 H   0  0  0  0  0  0
   -5.9726   51.8320   27.6905 H   0  0  0  0  0  0
  1  2  1  0  0  0
  1 45  1  0  0  0
  1 46  1  0  0  0
  1 47  1  0  0  0
  2  3  1  0  0  0
  2  9  1  0  0  0
  2  4  1  0  0  0
  4  5  1  0  0  0
  4 48  1  0  0  0
  4 49  1  0  0  0
  5  6  1  0  0  0
  5 50  1  0  0  0
  5 51  1  0  0  0
  6  7  1  0  0  0
  6 52  1  0  0  0
  6 53  1  0  0  0
  7  8  1  0  0  0
  7  9  1  0  0  0
  7 12  1  0  0  0
  9 10  1  0  0  0
  9 11  1  0  0  0
 11 54  1  0  0  0
 11 55  1  0  0  0
 11 56  1  0  0  0
 12 13  1  0  0  0
 12 57  1  0  0  0
 13 14  2  0  0  0
 13 15  1  0  0  0
 15 16  1  0  0  0
 15 29  1  0  0  0
 15 17  1  0  0  0
 17 22  1  0  0  0
 17 25  1  0  0  0
 17 18  1  0  0  0
 18 19  2  0  0  0
 18 58  1  0  0  0
 19 20  1  0  0  0
 19 59  1  0  0  0
 20 21  1  0  0  0
 20 22  1  0  0  0
 20 23  1  0  0  0
 23 24  1  0  0  0
 23 25  1  0  0  0
 23 35  1  0  0  0
 25 26  1  0  0  0
 25 27  1  0  0  0
 27 28  2  0  0  0
 27 29  1  0  0  0
 29 30  1  0  0  0
 30 31  1  0  0  0
 30 60  1  0  0  0
 30 61  1  0  0  0
 31 32  1  0  0  0
 31 62  1  0  0  0
 31 63  1  0  0  0
 32 33  1  0  0  0
 32 34  1  0  0  0
 32 64  1  0  0  0
 33 65  1  0  0  0
 33 66  1  0  0  0
 33 67  1  0  0  0
 34 68  1  0  0  0
 34 69  1  0  0  0
 34 70  1  0  0  0
 35 36  2  0  0  0
 35 37  1  0  0  0
 37 38  1  0  0  0
 37 71  1  0  0  0
 38 43  2  0  0  0
 38 39  1  0  0  0
 39 40  2  0  0  0
 39 72  1  0  0  0
 40 41  1  0  0  0
 40 73  1  0  0  0
 41 42  2  0  0  0
 41 44  1  0  0  0
 42 43  1  0  0  0
 42 74  1  0  0  0
 43 75  1  0  0  0
M  END
> <i_i_glide_confnum>
64

> <i_i_glide_lignum>
5395

> <i_i_glide_posenum>
147

> <i_i_glide_rotatable_bonds>
9

> <i_m_Source_File_Index>
2435

> <b_m_subgroup_collapsed>
0

> <r_i_docking_score>
-4.22207

> <r_i_glide_ecoul>
-6.88381

> <r_i_glide_eff_state_penalty>
0

> <r_i_glide_einternal>
8.90005

> <r_i_glide_emodel>
-54.5231

> <r_i_glide_energy>
-46.3473

> <r_i_glide_erotb>
0.590932

> <r_i_glide_esite>
-0.164577

> <r_i_glide_evdw>
-39.4635

> <r_i_glide_gscore>
-4.22207

> <r_i_glide_hbond>
-0.16

> <r_i_glide_ligand_efficiency>
-0.11411

> <r_i_glide_ligand_efficiency_ln>
-0.915668

> <r_i_glide_ligand_efficiency_sa>
-0.38024

> <r_i_glide_lipo>
-1.20293

> <r_i_glide_metal>
0

> <r_i_glide_rewards>
-0.279744

> <s_i_glide_gridfile>
wee1_glide-grid

> <s_m_Source_File>
wee1_decoys_glide_SP.sdf

> <s_m_Source_Path>
/Users/zhangxujun/Desktop

> <s_m_entry_id>
2710

> <s_m_entry_name>
wee1_decoys_glide_SP.2435

> <s_m_subgroup_title>
wee1_decoys_glide_SP

> <s_m_subgroupid>
wee1_decoys_glide_SP


$$$$
