@<TRIPOS>MOLECULE
ZINC03333466_5190
51   54    1
SMALL
USER_CHARGES


@<TRIPOS>ATOM
      1 C1          3.5571   52.7070   29.7356 C.3       1 UNK         0.0000 
      2 C2          4.1144   53.2955   28.4435 C.ar      1 UNK         0.0000 
      3 C3          5.4495   53.7028   28.4188 C.ar      1 UNK         0.0000 
      4 C4          6.0216   54.2133   27.2646 C.ar      1 UNK         0.0000 
      5 C5          5.2693   54.3286   26.0947 C.ar      1 UNK         0.0000 
      6 C6          3.9175   53.9506   26.1163 C.ar      1 UNK         0.0000 
      7 C7          3.3320   53.4104   27.2776 C.ar      1 UNK         0.0000 
      8 N8          1.9990   52.9449   27.3336 N.am      1 UNK         0.0000 
      9 C9          1.1243   52.6911   26.3365 C.2       1 UNK         0.0000 
     10 O10         1.3191   52.8922   25.1368 O.2       1 UNK         0.0000 
     11 C11        -0.1265   52.1380   26.7876 C.2       1 UNK         0.0000 
     12 C12        -1.2848   51.8326   26.0809 C.2       1 UNK         0.0000 
     13 C13        -2.1938   51.3012   26.9958 C.2       1 UNK         0.0000 
     14 C14        -1.5533   51.2969   28.2225 C.2       1 UNK         0.0000 
     15 O15        -0.3020   51.8107   28.1007 O.3       1 UNK         0.0000 
     16 C16         5.9316   54.8490   24.8475 C.2       1 UNK         0.0000 
     17 O17         6.8166   55.6967   24.9460 O.2       1 UNK         0.0000 
     18 N18         5.4997   54.2941   23.6933 N.am      1 UNK         0.0000 
     19 C19         5.9015   54.5619   22.3718 C.ar      1 UNK         0.0000 
     20 C20         7.0449   55.2994   22.0300 C.ar      1 UNK         0.0000 
     21 C21         7.3433   55.5510   20.6959 C.ar      1 UNK         0.0000 
     22 C22         6.5074   55.0631   19.6881 C.ar      1 UNK         0.0000 
     23 C23         5.3824   54.3089   20.0218 C.ar      1 UNK         0.0000 
     24 C24         5.0822   54.0591   21.3590 C.ar      1 UNK         0.0000 
     25 S25         6.8536   55.3470   17.9705 S.3       1 UNK         0.0000 
     26 C26         7.9542   56.7287   17.9710 C.ar      1 UNK         0.0000 
     27 C27         9.3312   56.5154   18.0503 C.ar      1 UNK         0.0000 
     28 C28        10.1957   57.6059   18.0806 C.ar      1 UNK         0.0000 
     29 C29         9.6796   58.8991   18.0213 C.ar      1 UNK         0.0000 
     30 C30         8.3046   59.1108   17.9257 C.ar      1 UNK         0.0000 
     31 C31         7.4366   58.0227   17.9019 C.ar      1 UNK         0.0000 
     32 Br32       10.8650   60.3865   18.0804 Br        1 UNK         0.0000 
     33 H33         4.3040   52.6666   30.5312 H         1 UNK         0.0000 
     34 H34         2.7115   53.2994   30.0869 H         1 UNK         0.0000 
     35 H35         3.1983   51.6925   29.5566 H         1 UNK         0.0000 
     36 H36         6.0818   53.6136   29.2816 H         1 UNK         0.0000 
     37 H37         7.0640   54.5013   27.2904 H         1 UNK         0.0000 
     38 H38         3.3347   54.0739   25.2180 H         1 UNK         0.0000 
     39 H39         1.6757   52.6952   28.2561 H         1 UNK         0.0000 
     40 H40        -1.4438   51.9714   25.0210 H         1 UNK         0.0000 
     41 H41        -3.1891   50.9362   26.7898 H         1 UNK         0.0000 
     42 H42        -1.8355   50.9492   29.2064 H         1 UNK         0.0000 
     43 H43         4.7531   53.6234   23.7829 H         1 UNK         0.0000 
     44 H44         7.7189   55.6945   22.7717 H         1 UNK         0.0000 
     45 H45         8.2393   56.1061   20.4689 H         1 UNK         0.0000 
     46 H46         4.7381   53.9168   19.2478 H         1 UNK         0.0000 
     47 H47         4.1965   53.4853   21.5953 H         1 UNK         0.0000 
     48 H48         9.7283   55.5119   18.1080 H         1 UNK         0.0000 
     49 H49        11.2611   57.4472   18.1635 H         1 UNK         0.0000 
     50 H50         7.9048   60.1133   17.8699 H         1 UNK         0.0000 
     51 H51         6.3708   58.1897   17.8342 H         1 UNK         0.0000 
@<TRIPOS>BOND
     1    1    2 1    
     2    1   33 1    
     3    1   34 1    
     4    1   35 1    
     5    2    7 ar   
     6    2    3 ar   
     7    3    4 ar   
     8    3   36 1    
     9    4    5 ar   
    10    4   37 1    
    11    5    6 ar   
    12    5   16 1    
    13    6    7 ar   
    14    6   38 1    
    15    7    8 1    
    16    8    9 am   BACKBONE|DICT|INTERRES
    17    8   39 1    
    18    9   10 2    
    19    9   11 1    
    20   11   15 1    
    21   11   12 2    
    22   12   13 1    
    23   12   40 1    
    24   13   14 2    
    25   13   41 1    
    26   14   15 1    
    27   14   42 1    
    28   16   17 2    
    29   16   18 am   BACKBONE|DICT|INTERRES
    30   18   19 1    
    31   18   43 1    
    32   19   24 ar   
    33   19   20 ar   
    34   20   21 ar   
    35   20   44 1    
    36   21   22 ar   
    37   21   45 1    
    38   22   23 ar   
    39   22   25 1    
    40   23   24 ar   
    41   23   46 1    
    42   24   47 1    
    43   25   26 1    
    44   26   31 ar   
    45   26   27 ar   
    46   27   28 ar   
    47   27   48 1    
    48   28   29 ar   
    49   28   49 1    
    50   29   30 ar   
    51   29   32 1    
    52   30   31 ar   
    53   30   50 1    
    54   31   51 1    
@<TRIPOS>SUBSTRUCTURE
     1 UNK         1 GROUP             0       ****    0 ROOT    
