@<TRIPOS>MOLECULE
ZINC39883305_949
57   61    1
SMALL
USER_CHARGES


@<TRIPOS>ATOM
      1 C1          4.6939   54.1074   27.8753 C.ar      1 UNK         0.0000 
      2 C2          5.9504   54.2508   27.2840 C.ar      1 UNK         0.0000 
      3 C3          5.9804   54.3546   25.8887 C.ar      1 UNK         0.0000 
      4 C4          4.8178   54.3055   25.0832 C.ar      1 UNK         0.0000 
      5 C5          3.5708   54.1527   25.7116 C.ar      1 UNK         0.0000 
      6 C6          3.5279   54.0694   27.1056 C.ar      1 UNK         0.0000 
      7 Br7         1.8407   53.9138   27.9686 Br        1 UNK         0.0000 
      8 C8          5.2740   54.4475   23.7287 C.2       1 UNK         0.0000 
      9 C9          6.6570   54.5529   23.8353 C.2       1 UNK         0.0000 
     10 O10         7.0976   54.5135   25.1248 O.3       1 UNK         0.0000 
     11 C11         4.4240   54.4968   22.4675 C.3       1 UNK         0.0000 
     12 C12         4.0953   53.1103   21.9039 C.2       1 UNK         0.0000 
     13 O13         5.0180   52.3264   21.6786 O.2       1 UNK         0.0000 
     14 N14         2.7815   52.8444   21.7241 N.am      1 UNK         0.0000 
     15 C15         2.2016   51.7063   21.1581 C.2       1 UNK         0.0000 
     16 C16         0.8547   51.2974   21.2643 C.2       1 UNK         0.0000 
     17 C17         0.5671   50.1811   20.4300 C.2       1 UNK         0.0000 
     18 C18         1.7124   49.6856   19.7959 C.2       1 UNK         0.0000 
     19 S19         3.1043   50.6445   20.1164 S.3       1 UNK         0.0000 
     20 C20         1.7882   48.4137   18.9662 C.3       1 UNK         0.0000 
     21 C21         0.3662   47.9806   18.5584 C.3       1 UNK         0.0000 
     22 C22        -0.6082   48.0329   19.7457 C.3       1 UNK         0.0000 
     23 C23        -0.7863   49.4679   20.2907 C.3       1 UNK         0.0000 
     24 C24        -0.1557   51.9658   22.0583 C.2       1 UNK         0.0000 
     25 O25        -1.3188   52.0965   21.6710 O.2       1 UNK         0.0000 
     26 N26         0.2755   52.3680   23.2660 N.am      1 UNK         0.0000 
     27 C27        -0.5881   52.8985   24.3203 C.3       1 UNK         0.0000 
     28 C28        -1.5533   51.8517   24.9302 C.3       1 UNK         0.0000 
     29 H29        -2.3458   51.5702   24.2328 H         1 UNK         0.0000 
     30 C30        -2.1095   52.2154   26.3142 C.3       1 UNK         0.0000 
     31 C31        -1.2607   51.4233   27.2802 C.3       1 UNK         0.0000 
     32 C32        -1.0070   50.1557   26.4816 C.3       1 UNK         0.0000 
     33 O33        -0.7965   50.6524   25.1671 O.3       1 UNK         0.0000 
     34 H34         4.6206   54.0341   28.9512 H         1 UNK         0.0000 
     35 H35         6.8529   54.2891   27.8752 H         1 UNK         0.0000 
     36 H36         2.6627   54.1061   25.1313 H         1 UNK         0.0000 
     37 H37         7.4278   54.6656   23.0861 H         1 UNK         0.0000 
     38 H38         3.5091   55.0714   22.6294 H         1 UNK         0.0000 
     39 H39         4.9593   55.0146   21.6708 H         1 UNK         0.0000 
     40 H40         2.1277   53.5175   22.0947 H         1 UNK         0.0000 
     41 H41         2.4105   48.5564   18.0819 H         1 UNK         0.0000 
     42 H42         2.2550   47.6257   19.5567 H         1 UNK         0.0000 
     43 H43         0.0008   48.6258   17.7570 H         1 UNK         0.0000 
     44 H44         0.3969   46.9720   18.1452 H         1 UNK         0.0000 
     45 H45        -1.5796   47.6352   19.4492 H         1 UNK         0.0000 
     46 H46        -0.2461   47.3804   20.5430 H         1 UNK         0.0000 
     47 H47        -1.3166   49.4287   21.2428 H         1 UNK         0.0000 
     48 H48        -1.4259   50.0429   19.6213 H         1 UNK         0.0000 
     49 H49         1.2065   52.0956   23.5484 H         1 UNK         0.0000 
     50 H50         0.0595   53.2949   25.1037 H         1 UNK         0.0000 
     51 H51        -1.1584   53.7462   23.9393 H         1 UNK         0.0000 
     52 H52        -2.1224   53.2875   26.5023 H         1 UNK         0.0000 
     53 H53        -3.1385   51.8614   26.3915 H         1 UNK         0.0000 
     54 H54        -0.3211   51.9320   27.4932 H         1 UNK         0.0000 
     55 H55        -1.7600   51.2196   28.2293 H         1 UNK         0.0000 
     56 H56        -0.1381   49.5967   26.8324 H         1 UNK         0.0000 
     57 H57        -1.8598   49.4750   26.4816 H         1 UNK         0.0000 
@<TRIPOS>BOND
     1    1    6 ar   
     2    1    2 ar   
     3    1   34 1    
     4    2    3 ar   
     5    2   35 1    
     6    3   10 1    
     7    3    4 ar   
     8    4    5 ar   
     9    4    8 1    
    10    5    6 ar   
    11    5   36 1    
    12    6    7 1    
    13    8    9 2    
    14    8   11 1    
    15    9   10 1    
    16    9   37 1    
    17   11   12 1    
    18   11   38 1    
    19   11   39 1    
    20   12   13 2    
    21   12   14 am   BACKBONE|DICT|INTERRES
    22   14   15 am   BACKBONE|DICT|INTERRES
    23   14   40 1    
    24   15   19 1    
    25   15   16 2    
    26   16   17 1    
    27   16   24 1    
    28   17   23 1    
    29   17   18 2    
    30   18   19 1    
    31   18   20 1    
    32   20   21 1    
    33   20   41 1    
    34   20   42 1    
    35   21   22 1    
    36   21   43 1    
    37   21   44 1    
    38   22   23 1    
    39   22   45 1    
    40   22   46 1    
    41   23   47 1    
    42   23   48 1    
    43   24   25 2    
    44   24   26 am   BACKBONE|DICT|INTERRES
    45   26   27 1    
    46   26   49 1    
    47   27   28 1    
    48   27   50 1    
    49   27   51 1    
    50   28   29 1    
    51   28   33 1    
    52   28   30 1    
    53   30   31 1    
    54   30   52 1    
    55   30   53 1    
    56   31   32 1    
    57   31   54 1    
    58   31   55 1    
    59   32   33 1    
    60   32   56 1    
    61   32   57 1    
@<TRIPOS>SUBSTRUCTURE
     1 UNK         1 GROUP             0       ****    0 ROOT    
