@<TRIPOS>MOLECULE
ZINC02936370_561
51   54    1
SMALL
USER_CHARGES


@<TRIPOS>ATOM
      1 C1          5.9540   54.9011   27.0374 C.3       1 UNK         0.0000 
      2 C2          5.5336   54.5256   25.6275 C.ar      1 UNK         0.0000 
      3 C3          4.2082   54.1827   25.3562 C.ar      1 UNK         0.0000 
      4 C4          3.8390   53.7907   24.0718 C.ar      1 UNK         0.0000 
      5 C5          4.7966   53.7405   23.0481 C.ar      1 UNK         0.0000 
      6 C6          6.1140   54.1310   23.3160 C.ar      1 UNK         0.0000 
      7 C7          6.4787   54.5206   24.6011 C.ar      1 UNK         0.0000 
      8 C8          4.4378   53.2456   21.7137 C.2       1 UNK         0.0000 
      9 C9          4.7287   54.1610   20.5157 C.3       1 UNK         0.0000 
     10 C10         4.8503   53.3562   19.1981 C.3       1 UNK         0.0000 
     11 H11         5.6785   52.6454   19.2708 H         1 UNK         0.0000 
     12 C12         3.4715   51.5525   20.2837 C.3       1 UNK         0.0000 
     13 H13         4.2028   50.7650   20.0825 H         1 UNK         0.0000 
     14 N14         3.8099   52.1333   21.5863 N.2       1 UNK         0.0000 
     15 C15         2.0843   50.9236   20.2370 C.ar      1 UNK         0.0000 
     16 C16         1.9047   49.7229   19.5467 C.ar      1 UNK         0.0000 
     17 C17         0.6531   49.1166   19.5068 C.ar      1 UNK         0.0000 
     18 C18        -0.4393   49.7084   20.1415 C.ar      1 UNK         0.0000 
     19 C19        -0.2823   50.9354   20.8139 C.ar      1 UNK         0.0000 
     20 C20         0.9904   51.5203   20.8717 C.ar      1 UNK         0.0000 
     21 N21        -1.4133   51.6082   21.4828 N.pl3     1 UNK         0.0000 
     22 O22        -1.2175   52.0939   22.5935 O.co2     1 UNK         0.0000 
     23 O23        -2.4777   51.6964   20.8804 O.co2     1 UNK         0.0000 
     24 Cl24       -1.9537   48.8703   20.0912 Cl        1 UNK         0.0000 
     25 C25         4.9856   54.1686   17.9101 C.ar      1 UNK         0.0000 
     26 C26         4.3223   55.3989   17.7713 C.ar      1 UNK         0.0000 
     27 C27         4.4777   56.1721   16.6220 C.ar      1 UNK         0.0000 
     28 C28         5.2979   55.7236   15.5886 C.ar      1 UNK         0.0000 
     29 C29         5.9470   54.4948   15.7050 C.ar      1 UNK         0.0000 
     30 C30         5.7893   53.7114   16.8492 C.ar      1 UNK         0.0000 
     31 O31         6.4294   52.4967   16.8814 O.3       1 UNK         0.0000 
     32 Br32        3.5683   57.8381   16.4753 Br        1 UNK         0.0000 
     33 H33         5.1125   55.2809   27.6153 H         1 UNK         0.0000 
     34 H34         6.3796   54.0383   27.5515 H         1 UNK         0.0000 
     35 H35         6.7008   55.6952   27.0259 H         1 UNK         0.0000 
     36 H36         3.4664   54.1898   26.1421 H         1 UNK         0.0000 
     37 H37         2.8166   53.4977   23.8844 H         1 UNK         0.0000 
     38 H38         6.8761   54.0979   22.5494 H         1 UNK         0.0000 
     39 H39         7.5035   54.7911   24.7977 H         1 UNK         0.0000 
     40 H40         3.8978   54.8648   20.4652 H         1 UNK         0.0000 
     41 H41         5.6240   54.7621   20.6842 H         1 UNK         0.0000 
     42 H42         2.7356   49.2519   19.0374 H         1 UNK         0.0000 
     43 H43         0.5350   48.1810   18.9781 H         1 UNK         0.0000 
     44 H44         1.1248   52.4523   21.4054 H         1 UNK         0.0000 
     45 H45         3.6715   55.7781   18.5432 H         1 UNK         0.0000 
     46 H46         5.4195   56.3221   14.6983 H         1 UNK         0.0000 
     47 H47         6.5682   54.1405   14.8961 H         1 UNK         0.0000 
     48 H48         6.0114   51.8099   17.4291 H         1 UNK         0.0000 
     49 N49         3.5929   52.4945   19.0710 N.4       1 UNK         0.0000 
     50 H50         3.6586   51.9344   18.2280 H         1 UNK         0.0000 
     51 H51         2.7748   53.0810   18.9844 H         1 UNK         0.0000 
@<TRIPOS>BOND
     1    1    2 1    
     2    1   33 1    
     3    1   34 1    
     4    1   35 1    
     5    2    7 ar   
     6    2    3 ar   
     7    3    4 ar   
     8    3   36 1    
     9    4    5 ar   
    10    4   37 1    
    11    5    6 ar   
    12    5    8 1    
    13    6    7 ar   
    14    6   38 1    
    15    7   39 1    
    16    8    9 1    
    17    8   14 2    
    18    9   10 1    
    19    9   40 1    
    20    9   41 1    
    21   10   11 1    
    22   10   25 1    
    23   10   49 1    
    24   12   13 1    
    25   12   15 1    
    26   12   49 1    
    27   12   14 1    
    28   15   20 ar   
    29   15   16 ar   
    30   16   17 ar   
    31   16   42 1    
    32   17   18 ar   
    33   17   43 1    
    34   18   19 ar   
    35   18   24 1    
    36   19   20 ar   
    37   19   21 1    
    38   20   44 1    
    39   21   22 2    
    40   21   23 1    
    41   25   30 ar   
    42   25   26 ar   
    43   26   27 ar   
    44   26   45 1    
    45   27   28 ar   
    46   27   32 1    
    47   28   29 ar   
    48   28   46 1    
    49   29   30 ar   
    50   29   47 1    
    51   30   31 1    
    52   31   48 1    
    53   49   50 1    
    54   49   51 1    
@<TRIPOS>SUBSTRUCTURE
     1 UNK         1 GROUP             0       ****    0 ROOT    
