@<TRIPOS>MOLECULE
ZINC09341713_3248
55   59    1
SMALL
USER_CHARGES


@<TRIPOS>ATOM
      1 C1         -7.6493   50.8157   27.0956 C.3       1 UNK         0.0000 
      2 C2         -6.3045   51.2029   27.6994 C.2       1 UNK         0.0000 
      3 O3         -6.2768   51.7253   28.8146 O.2       1 UNK         0.0000 
      4 N4         -5.2189   50.9649   26.9351 N.am      1 UNK         0.0000 
      5 C5         -3.8861   51.2225   27.2864 C.ar      1 UNK         0.0000 
      6 C6         -3.0385   51.7289   26.3021 C.ar      1 UNK         0.0000 
      7 C7         -1.7172   52.0398   26.6143 C.ar      1 UNK         0.0000 
      8 C8         -1.2229   51.8365   27.9149 C.ar      1 UNK         0.0000 
      9 C9         -2.0770   51.2967   28.8817 C.ar      1 UNK         0.0000 
     10 C10        -3.3917   50.9686   28.5692 C.ar      1 UNK         0.0000 
     11 N11         0.0832   52.2290   28.3023 N.am      1 UNK         0.0000 
     12 C12         0.4829   52.5000   29.7113 C.3       1 UNK         0.0000 
     13 C13         1.7597   53.2853   29.5164 C.3       1 UNK         0.0000 
     14 C14         1.5737   54.7833   29.2981 C.2       1 UNK         0.0000 
     15 C15         2.8043   55.2967   29.2817 C.2       1 UNK         0.0000 
     16 C16         3.7205   54.0957   29.4441 C.3       1 UNK         0.0000 
     17 H17         4.7044   54.3187   29.8569 H         1 UNK         0.0000 
     18 O18         2.9114   53.2969   30.3313 O.3       1 UNK         0.0000 
     19 C19         3.7185   53.1702   28.1732 C.3       1 UNK         0.0000 
     20 H20         4.5402   52.4564   28.2406 H         1 UNK         0.0000 
     21 C21         2.3621   52.4468   28.4291 C.3       1 UNK         0.0000 
     22 H22         2.6245   51.4358   28.7541 H         1 UNK         0.0000 
     23 C23         1.1756   52.2555   27.4740 C.2       1 UNK         0.0000 
     24 O24         1.2413   52.0967   26.2560 O.2       1 UNK         0.0000 
     25 C25         3.8470   53.8881   26.8061 C.2       1 UNK         0.0000 
     26 O26         2.8848   54.4967   26.3615 O.2       1 UNK         0.0000 
     27 N27         5.0046   53.7756   26.1226 N.am      1 UNK         0.0000 
     28 C28         5.1892   54.0967   24.7600 C.ar      1 UNK         0.0000 
     29 C29         4.1788   53.8973   23.8037 C.ar      1 UNK         0.0000 
     30 C30         4.4408   54.0969   22.4530 C.ar      1 UNK         0.0000 
     31 C31         5.6985   54.5262   22.0379 C.ar      1 UNK         0.0000 
     32 C32         6.7044   54.7300   22.9915 C.ar      1 UNK         0.0000 
     33 C33         6.4561   54.5040   24.3438 C.ar      1 UNK         0.0000 
     34 O34         5.8741   54.7173   20.6824 O.3       1 UNK         0.0000 
     35 C35         6.8044   55.6968   20.2206 C.3       1 UNK         0.0000 
     36 F36         6.5847   55.8736   18.9199 F         1 UNK         0.0000 
     37 F37         6.6216   56.8764   20.8191 F         1 UNK         0.0000 
     38 F38         8.0671   55.2967   20.3701 F         1 UNK         0.0000 
     39 H39        -7.5414   50.3832   26.1006 H         1 UNK         0.0000 
     40 H40        -8.2910   51.6934   27.0202 H         1 UNK         0.0000 
     41 H41        -8.1451   50.0843   27.7338 H         1 UNK         0.0000 
     42 H42        -5.3739   50.6673   25.9848 H         1 UNK         0.0000 
     43 H43        -3.4032   51.9142   25.3025 H         1 UNK         0.0000 
     44 H44        -1.1050   52.4756   25.8402 H         1 UNK         0.0000 
     45 H45        -1.7297   51.0927   29.8850 H         1 UNK         0.0000 
     46 H46        -4.0175   50.5312   29.3335 H         1 UNK         0.0000 
     47 H47        -0.2764   53.0676   30.2503 H         1 UNK         0.0000 
     48 H48         0.6316   51.5692   30.2517 H         1 UNK         0.0000 
     49 H49         0.6329   55.2842   29.1560 H         1 UNK         0.0000 
     50 H50         3.1044   56.3203   29.1272 H         1 UNK         0.0000 
     51 H51         5.8005   53.3818   26.5997 H         1 UNK         0.0000 
     52 H52         3.1995   53.5420   24.0913 H         1 UNK         0.0000 
     53 H53         3.6616   53.9291   21.7231 H         1 UNK         0.0000 
     54 H54         7.6892   55.0485   22.6928 H         1 UNK         0.0000 
     55 H55         7.2560   54.6372   25.0562 H         1 UNK         0.0000 
@<TRIPOS>BOND
     1    1    2 1    
     2    1   39 1    
     3    1   40 1    
     4    1   41 1    
     5    2    3 2    
     6    2    4 am   BACKBONE|DICT|INTERRES
     7    4    5 1    
     8    4   42 1    
     9    5   10 ar   
    10    5    6 ar   
    11    6    7 ar   
    12    6   43 1    
    13    7    8 ar   
    14    7   44 1    
    15    8    9 ar   
    16    8   11 1    
    17    9   10 ar   
    18    9   45 1    
    19   10   46 1    
    20   11   23 am   BACKBONE|DICT|INTERRES
    21   11   12 1    
    22   12   13 1    
    23   12   47 1    
    24   12   48 1    
    25   13   18 1    
    26   13   21 1    
    27   13   14 1    
    28   14   15 2    
    29   14   49 1    
    30   15   16 1    
    31   15   50 1    
    32   16   17 1    
    33   16   18 1    
    34   16   19 1    
    35   19   20 1    
    36   19   21 1    
    37   19   25 1    
    38   21   22 1    
    39   21   23 1    
    40   23   24 2    
    41   25   26 2    
    42   25   27 am   BACKBONE|DICT|INTERRES
    43   27   28 1    
    44   27   51 1    
    45   28   33 ar   
    46   28   29 ar   
    47   29   30 ar   
    48   29   52 1    
    49   30   31 ar   
    50   30   53 1    
    51   31   32 ar   
    52   31   34 1    
    53   32   33 ar   
    54   32   54 1    
    55   33   55 1    
    56   34   35 1    
    57   35   36 1    
    58   35   37 1    
    59   35   38 1    
@<TRIPOS>SUBSTRUCTURE
     1 UNK         1 GROUP             0       ****    0 ROOT    
