@<TRIPOS>MOLECULE
ZINC07086430_1517
55   58    1
SMALL
USER_CHARGES


@<TRIPOS>ATOM
      1 C1          1.1141   50.2606   15.9435 C.3       1 UNK         0.0000 
      2 C2          1.6528   51.6565   16.3015 C.3       1 UNK         0.0000 
      3 C3          2.2088   51.7003   17.7450 C.3       1 UNK         0.0000 
      4 C4          2.6922   53.1256   18.0909 C.3       1 UNK         0.0000 
      5 C5          3.8114   53.5853   17.1123 C.3       1 UNK         0.0000 
      6 C6          3.2419   53.5426   15.6650 C.3       1 UNK         0.0000 
      7 C7          2.7478   52.1205   15.3102 C.3       1 UNK         0.0000 
      8 C8          4.2395   54.9981   17.4838 C.2       1 UNK         0.0000 
      9 O9          3.5046   55.9794   17.6121 O.2       1 UNK         0.0000 
     10 N10         5.5773   54.9298   17.6707 N.am      1 UNK         0.0000 
     11 C11         6.1100   53.7005   17.4587 C.2       1 UNK         0.0000 
     12 O12         7.2898   53.4197   17.2626 O.2       1 UNK         0.0000 
     13 N13         5.0604   52.8968   17.2804 N.am      1 UNK         0.0000 
     14 C14         6.3428   56.0129   18.3243 C.3       1 UNK         0.0000 
     15 C15         6.3077   55.9512   19.8692 C.2       1 UNK         0.0000 
     16 O16         6.7961   56.8980   20.4815 O.2       1 UNK         0.0000 
     17 N17         5.7351   54.8900   20.4834 N.am      1 UNK         0.0000 
     18 C18         5.6240   54.6931   21.8649 C.ar      1 UNK         0.0000 
     19 C19         4.4173   54.2009   22.3560 C.ar      1 UNK         0.0000 
     20 C20         4.2239   54.0931   23.7313 C.ar      1 UNK         0.0000 
     21 C21         5.2413   54.4321   24.6406 C.ar      1 UNK         0.0000 
     22 C22         6.4714   54.8731   24.1170 C.ar      1 UNK         0.0000 
     23 C23         6.6665   54.9926   22.7465 C.ar      1 UNK         0.0000 
     24 N24         4.9806   54.3289   26.0433 N.am      1 UNK         0.0000 
     25 C25         3.6630   53.9523   26.5844 C.3       1 UNK         0.0000 
     26 C26         3.7227   54.2160   28.0697 C.3       1 UNK         0.0000 
     27 C27         5.1938   54.1400   28.3712 C.3       1 UNK         0.0000 
     28 C28         5.9048   54.4132   27.0496 C.2       1 UNK         0.0000 
     29 O29         7.1044   54.6620   26.9815 O.2       1 UNK         0.0000 
     30 H30         1.9026   49.5078   15.9896 H         1 UNK         0.0000 
     31 H31         0.3243   49.9532   16.6299 H         1 UNK         0.0000 
     32 H32         0.6977   50.2438   14.9356 H         1 UNK         0.0000 
     33 H33         0.8301   52.3715   16.2430 H         1 UNK         0.0000 
     34 H34         3.0172   50.9751   17.8590 H         1 UNK         0.0000 
     35 H35         1.4431   51.3753   18.4505 H         1 UNK         0.0000 
     36 H36         3.0803   53.0995   19.1115 H         1 UNK         0.0000 
     37 H37         1.8696   53.8434   18.1246 H         1 UNK         0.0000 
     38 H38         2.4786   54.3074   15.5057 H         1 UNK         0.0000 
     39 H39         4.0337   53.7991   14.9585 H         1 UNK         0.0000 
     40 H40         3.5772   51.4096   15.3152 H         1 UNK         0.0000 
     41 H41         2.3636   52.0934   14.2896 H         1 UNK         0.0000 
     42 H42         5.1035   51.8917   17.4608 H         1 UNK         0.0000 
     43 H43         5.9280   56.9756   18.0198 H         1 UNK         0.0000 
     44 H44         7.3819   55.9985   17.9924 H         1 UNK         0.0000 
     45 H45         5.2262   54.2400   19.9061 H         1 UNK         0.0000 
     46 H46         3.6077   53.9552   21.6835 H         1 UNK         0.0000 
     47 H47         3.2636   53.7364   24.0697 H         1 UNK         0.0000 
     48 H48         7.3040   55.1591   24.7353 H         1 UNK         0.0000 
     49 H49         7.6182   55.3526   22.3819 H         1 UNK         0.0000 
     50 H50         2.8596   54.5224   26.1188 H         1 UNK         0.0000 
     51 H51         3.4788   52.8969   26.3803 H         1 UNK         0.0000 
     52 H52         3.1181   53.5156   28.6471 H         1 UNK         0.0000 
     53 H53         3.3530   55.2206   28.2837 H         1 UNK         0.0000 
     54 H54         5.4760   53.1355   28.6898 H         1 UNK         0.0000 
     55 H55         5.5040   54.8387   29.1496 H         1 UNK         0.0000 
@<TRIPOS>BOND
     1    1    2 1    
     2    1   30 1    
     3    1   31 1    
     4    1   32 1    
     5    2    7 1    
     6    2    3 1    
     7    2   33 1    
     8    3    4 1    
     9    3   34 1    
    10    3   35 1    
    11    4    5 1    
    12    4   36 1    
    13    4   37 1    
    14    5   13 1    
    15    5    6 1    
    16    5    8 1    
    17    6    7 1    
    18    6   38 1    
    19    6   39 1    
    20    7   40 1    
    21    7   41 1    
    22    8    9 2    
    23    8   10 am   BACKBONE|DICT|INTERRES
    24   10   11 am   BACKBONE|DICT|INTERRES
    25   10   14 1    
    26   11   12 2    
    27   11   13 am   BACKBONE|DICT|INTERRES
    28   13   42 1    
    29   14   15 1    
    30   14   43 1    
    31   14   44 1    
    32   15   16 2    
    33   15   17 am   BACKBONE|DICT|INTERRES
    34   17   18 1    
    35   17   45 1    
    36   18   23 ar   
    37   18   19 ar   
    38   19   20 ar   
    39   19   46 1    
    40   20   21 ar   
    41   20   47 1    
    42   21   22 ar   
    43   21   24 1    
    44   22   23 ar   
    45   22   48 1    
    46   23   49 1    
    47   24   28 am   BACKBONE|DICT|INTERRES
    48   24   25 1    
    49   25   26 1    
    50   25   50 1    
    51   25   51 1    
    52   26   27 1    
    53   26   52 1    
    54   26   53 1    
    55   27   28 1    
    56   27   54 1    
    57   27   55 1    
    58   28   29 2    
@<TRIPOS>SUBSTRUCTURE
     1 UNK         1 GROUP             0       ****    0 ROOT    
