@<TRIPOS>MOLECULE
ZINC00714903_4000
48   52    1
SMALL
USER_CHARGES


@<TRIPOS>ATOM
      1 C1          7.2407   57.6730   18.7196 C.ar      1 UNK         0.0000 
      2 C2          7.9065   58.5698   17.8854 C.ar      1 UNK         0.0000 
      3 C3          9.0963   58.1966   17.2603 C.ar      1 UNK         0.0000 
      4 C4          9.6159   56.9117   17.4652 C.ar      1 UNK         0.0000 
      5 C5          8.9409   56.0136   18.2935 C.ar      1 UNK         0.0000 
      6 C6          7.7505   56.3831   18.9307 C.ar      1 UNK         0.0000 
      7 C7          7.0642   55.4020   19.8830 C.3       1 UNK         0.0000 
      8 H8          7.5293   54.4384   19.6750 H         1 UNK         0.0000 
      9 C9          5.5350   55.2797   19.6591 C.3       1 UNK         0.0000 
     10 C10         4.7806   54.3472   20.6623 C.3       1 UNK         0.0000 
     11 H11         3.7519   54.6985   20.7590 H         1 UNK         0.0000 
     12 N12         5.3996   54.5026   21.9905 N.pl3     1 UNK         0.0000 
     13 C13         6.6023   55.1272   22.2574 C.ar      1 UNK         0.0000 
     14 C14         6.7045   55.1338   23.6237 C.ar      1 UNK         0.0000 
     15 C15         5.5619   54.5148   24.1376 C.ar      1 UNK         0.0000 
     16 N16         4.7997   54.0960   23.1363 N.2       1 UNK         0.0000 
     17 C17         5.3167   54.3924   25.5633 C.2       1 UNK         0.0000 
     18 O18         6.2142   54.6616   26.3678 O.2       1 UNK         0.0000 
     19 N19         4.0691   54.0000   25.9103 N.am      1 UNK         0.0000 
     20 C20         3.5914   53.6775   27.1994 C.ar      1 UNK         0.0000 
     21 C21         4.4349   53.2592   28.2577 C.ar      1 UNK         0.0000 
     22 C22         3.9057   52.8566   29.4907 C.ar      1 UNK         0.0000 
     23 C23         2.5280   52.9051   29.6483 C.ar      1 UNK         0.0000 
     24 C24         1.7030   53.3161   28.6411 C.ar      1 UNK         0.0000 
     25 C25         2.1986   53.6982   27.3956 C.ar      1 UNK         0.0000 
     26 O26         0.4112   53.2231   29.0569 O.3       1 UNK         0.0000 
     27 C27         0.4672   52.9039   30.4254 C.3       1 UNK         0.0000 
     28 O28         1.7868   52.5280   30.7221 O.3       1 UNK         0.0000 
     29 N29         7.3861   55.6969   21.2788 N.pl3     1 UNK         0.0000 
     30 C30         4.6904   52.8940   20.1514 C.3       1 UNK         0.0000 
     31 F31         5.8669   52.4946   19.6815 F         1 UNK         0.0000 
     32 F32         4.3109   52.0258   21.0911 F         1 UNK         0.0000 
     33 F33         3.8150   52.8117   19.1493 F         1 UNK         0.0000 
     34 Cl34       11.0944   56.4075   16.7209 Cl        1 UNK         0.0000 
     35 Cl35        9.9051   59.3457   16.2519 Cl        1 UNK         0.0000 
     36 H36         6.3362   58.0021   19.2072 H         1 UNK         0.0000 
     37 H37         7.5003   59.5607   17.7280 H         1 UNK         0.0000 
     38 H38         9.3624   55.0312   18.4561 H         1 UNK         0.0000 
     39 H39         5.3395   54.9567   18.6347 H         1 UNK         0.0000 
     40 H40         5.1025   56.2742   19.6842 H         1 UNK         0.0000 
     41 H41         7.5040   55.5803   24.1939 H         1 UNK         0.0000 
     42 H42         3.4078   53.8929   25.1566 H         1 UNK         0.0000 
     43 H43         5.5037   53.1865   28.1266 H         1 UNK         0.0000 
     44 H44         4.5531   52.4985   30.2765 H         1 UNK         0.0000 
     45 H45         1.5272   53.9904   26.6020 H         1 UNK         0.0000 
     46 H46         0.2089   53.7869   31.0129 H         1 UNK         0.0000 
     47 H47        -0.2235   52.0919   30.6651 H         1 UNK         0.0000 
     48 H48         8.3856   55.7106   21.4310 H         1 UNK         0.0000 
@<TRIPOS>BOND
     1    1    6 ar   
     2    1    2 ar   
     3    1   36 1    
     4    2    3 ar   
     5    2   37 1    
     6    3    4 ar   
     7    3   35 1    
     8    4    5 ar   
     9    4   34 1    
    10    5    6 ar   
    11    5   38 1    
    12    6    7 1    
    13    7    8 1    
    14    7   29 1    
    15    7    9 1    
    16    9   10 1    
    17    9   39 1    
    18    9   40 1    
    19   10   11 1    
    20   10   12 1    
    21   10   30 1    
    22   12   16 ar   
    23   12   13 ar   
    24   13   14 ar   
    25   13   29 1    
    26   14   15 ar   
    27   14   41 1    
    28   15   16 ar   
    29   15   17 1    
    30   17   18 2    
    31   17   19 am   BACKBONE|DICT|INTERRES
    32   19   20 1    
    33   19   42 1    
    34   20   25 ar   
    35   20   21 ar   
    36   21   22 ar   
    37   21   43 1    
    38   22   23 ar   
    39   22   44 1    
    40   23   28 1    
    41   23   24 ar   
    42   24   25 ar   
    43   24   26 1    
    44   25   45 1    
    45   26   27 1    
    46   27   28 1    
    47   27   46 1    
    48   27   47 1    
    49   29   48 1    
    50   30   31 1    
    51   30   32 1    
    52   30   33 1    
@<TRIPOS>SUBSTRUCTURE
     1 UNK         1 GROUP             0       ****    0 ROOT    
