@<TRIPOS>MOLECULE
ZINC06812811_1714
35   37    1
SMALL
USER_CHARGES


@<TRIPOS>ATOM
      1 C1          2.0659   54.4948   23.3781 C.3       1 UNK         0.0000 
      2 C2          3.4549   54.2873   23.9258 C.ar      1 UNK         0.0000 
      3 C3          3.9692   54.2441   25.2185 C.ar      1 UNK         0.0000 
      4 C4          5.3560   54.1172   25.0095 C.ar      1 UNK         0.0000 
      5 N5          5.7097   54.0534   23.7486 N.2       1 UNK         0.0000 
      6 N6          4.5408   54.1102   23.1051 N.pl3     1 UNK         0.0000 
      7 H7          4.4901   54.0925   22.0967 H         1 UNK         0.0000 
      8 O8          6.3082   54.0588   25.9964 O.3       1 UNK         0.0000 
      9 C9          5.8126   53.9262   27.2552 C.2       1 UNK         0.0000 
     10 C10         4.5090   53.9696   27.6250 C.2       1 UNK         0.0000 
     11 C11         3.3660   54.2837   26.6336 C.3       1 UNK         0.0000 
     12 H12         3.0987   55.3233   26.8028 H         1 UNK         0.0000 
     13 C13         2.0577   53.4984   26.8852 C.ar      1 UNK         0.0000 
     14 C14         1.6223   52.4977   26.0060 C.ar      1 UNK         0.0000 
     15 C15         0.4969   51.7174   26.2683 C.ar      1 UNK         0.0000 
     16 C16        -0.2349   51.9604   27.4398 C.ar      1 UNK         0.0000 
     17 C17         0.1468   52.9873   28.3022 C.ar      1 UNK         0.0000 
     18 C18         1.2721   53.7623   28.0196 C.ar      1 UNK         0.0000 
     19 F19         1.5778   54.7909   28.8445 F         1 UNK         0.0000 
     20 O20         0.1996   50.7449   25.3355 O.3       1 UNK         0.0000 
     21 C21        -0.7933   49.7713   25.6374 C.3       1 UNK         0.0000 
     22 C22         4.1785   53.7149   28.9875 C.1       1 UNK         0.0000 
     23 N23         3.9008   53.4694   30.0822 N.1       1 UNK         0.0000 
     24 N24         6.8783   53.6968   28.0795 N.pl3     1 UNK         0.0000 
     25 H25         1.5042   55.1869   24.0015 H         1 UNK         0.0000 
     26 H26         1.4988   53.5659   23.3299 H         1 UNK         0.0000 
     27 H27         2.0839   54.8968   22.3686 H         1 UNK         0.0000 
     28 H28         2.1960   52.2609   25.1249 H         1 UNK         0.0000 
     29 H29        -1.1026   51.3675   27.6903 H         1 UNK         0.0000 
     30 H30        -0.4321   53.1859   29.1911 H         1 UNK         0.0000 
     31 H31        -0.9165   49.1083   24.7812 H         1 UNK         0.0000 
     32 H32        -0.4895   49.1543   26.4813 H         1 UNK         0.0000 
     33 H33        -1.7647   50.2188   25.8466 H         1 UNK         0.0000 
     34 H34         6.7917   53.8012   29.0803 H         1 UNK         0.0000 
     35 H35         7.7195   53.2735   27.7208 H         1 UNK         0.0000 
@<TRIPOS>BOND
     1    1    2 1    
     2    1   25 1    
     3    1   26 1    
     4    1   27 1    
     5    2    6 ar   
     6    2    3 ar   
     7    3   11 1    
     8    3    4 ar   
     9    4    5 ar   
    10    4    8 1    
    11    5    6 ar   
    12    6    7 1    
    13    8    9 1    
    14    9   10 2    
    15    9   24 1    
    16   10   11 1    
    17   10   22 1    
    18   11   12 1    
    19   11   13 1    
    20   13   18 ar   
    21   13   14 ar   
    22   14   15 ar   
    23   14   28 1    
    24   15   16 ar   
    25   15   20 1    
    26   16   17 ar   
    27   16   29 1    
    28   17   18 ar   
    29   17   30 1    
    30   18   19 1    
    31   20   21 1    
    32   21   31 1    
    33   21   32 1    
    34   21   33 1    
    35   22   23 3    
    36   24   34 1    
    37   24   35 1    
@<TRIPOS>SUBSTRUCTURE
     1 UNK         1 GROUP             0       ****    0 ROOT    
