@<TRIPOS>MOLECULE
ZINC39773872_751
58   62    1
SMALL
USER_CHARGES


@<TRIPOS>ATOM
      1 C1          1.0066   49.9196   18.8418 C.3       1 UNK         0.0000 
      2 C2          2.1216   50.9349   18.4777 C.3       1 UNK         0.0000 
      3 H3          2.6441   50.4951   17.6285 H         1 UNK         0.0000 
      4 C4          1.6379   52.2783   17.8503 C.2       1 UNK         0.0000 
      5 N5          0.3651   52.4508   17.6964 N.am      1 UNK         0.0000 
      6 C6         -0.1283   53.6576   17.1703 C.2       1 UNK         0.0000 
      7 O7         -1.3117   53.9005   16.9424 O.2       1 UNK         0.0000 
      8 C8          0.8861   54.6970   16.8819 C.2       1 UNK         0.0000 
      9 C9          0.7688   55.9682   16.4268 C.2       1 UNK         0.0000 
     10 C10         2.0716   56.7245   16.2429 C.3       1 UNK         0.0000 
     11 S11         3.4273   55.6422   16.7251 S.3       1 UNK         0.0000 
     12 C12         2.2738   54.3379   17.0963 C.2       1 UNK         0.0000 
     13 N13         2.6484   53.1901   17.5258 N.2       1 UNK         0.0000 
     14 C14        -0.4652   56.6568   16.0923 C.2       1 UNK         0.0000 
     15 C15        -0.8243   57.1689   14.8479 C.2       1 UNK         0.0000 
     16 C16        -2.0959   57.7482   14.8383 C.2       1 UNK         0.0000 
     17 C17        -2.7085   57.6986   16.0812 C.2       1 UNK         0.0000 
     18 S18        -1.6959   56.9629   17.2812 S.3       1 UNK         0.0000 
     19 N19         3.1042   51.0082   19.5758 N.3       1 UNK         0.0000 
     20 C20         2.9803   52.0840   20.5633 C.3       1 UNK         0.0000 
     21 C21         4.2491   52.1753   21.4182 C.3       1 UNK         0.0000 
     22 C22         4.1982   53.3666   22.3866 C.3       1 UNK         0.0000 
     23 N23         2.9567   53.2282   23.3090 N.4       1 UNK         0.0000 
     24 C24         1.6415   53.1187   22.5068 C.3       1 UNK         0.0000 
     25 C25         1.7498   51.9660   21.4884 C.3       1 UNK         0.0000 
     26 C26         2.8725   54.3912   24.3253 C.3       1 UNK         0.0000 
     27 C27         3.9160   54.3012   25.4250 C.ar      1 UNK         0.0000 
     28 C28         3.5920   53.6962   26.6410 C.ar      1 UNK         0.0000 
     29 C29         4.5717   53.5339   27.6164 C.ar      1 UNK         0.0000 
     30 C30         5.8669   53.9827   27.3693 C.ar      1 UNK         0.0000 
     31 C31         6.1803   54.6372   26.1817 C.ar      1 UNK         0.0000 
     32 C32         5.1993   54.8120   25.2149 C.ar      1 UNK         0.0000 
     33 Cl33        7.1047   53.6969   28.5266 Cl        1 UNK         0.0000 
     34 H34         0.5854   49.4721   17.9402 H         1 UNK         0.0000 
     35 H35         1.3861   49.1006   19.4552 H         1 UNK         0.0000 
     36 H36         0.1789   50.3756   19.3842 H         1 UNK         0.0000 
     37 H37         2.2222   57.0288   15.2068 H         1 UNK         0.0000 
     38 H38         2.0997   57.6231   16.8616 H         1 UNK         0.0000 
     39 H39        -0.1951   57.1014   13.9713 H         1 UNK         0.0000 
     40 H40        -2.5532   58.1795   13.9582 H         1 UNK         0.0000 
     41 H41        -3.6891   58.0612   16.3488 H         1 UNK         0.0000 
     42 H42         4.0284   50.9767   19.1231 H         1 UNK         0.0000 
     43 H43         2.9146   53.0500   20.0633 H         1 UNK         0.0000 
     44 H44         4.4042   51.2469   21.9669 H         1 UNK         0.0000 
     45 H45         5.1175   52.2911   20.7666 H         1 UNK         0.0000 
     46 H46         4.1323   54.3270   21.8698 H         1 UNK         0.0000 
     47 H47         5.0844   53.3369   23.0202 H         1 UNK         0.0000 
     48 H48         1.4697   54.0960   22.0625 H         1 UNK         0.0000 
     49 H49         0.8503   52.9008   23.2278 H         1 UNK         0.0000 
     50 H50         0.8409   51.9637   20.8886 H         1 UNK         0.0000 
     51 H51         1.7723   51.0104   22.0131 H         1 UNK         0.0000 
     52 H52         2.9709   55.2966   23.7321 H         1 UNK         0.0000 
     53 H53         1.8654   54.3602   24.7467 H         1 UNK         0.0000 
     54 H54         2.5985   53.3124   26.8189 H         1 UNK         0.0000 
     55 H55         4.3364   53.0298   28.5428 H         1 UNK         0.0000 
     56 H56         7.1830   54.9831   25.9971 H         1 UNK         0.0000 
     57 H57         5.4573   55.2975   24.2857 H         1 UNK         0.0000 
     58 H58         3.0647   52.3669   23.8273 H         1 UNK         0.0000 
@<TRIPOS>BOND
     1    1    2 1    
     2    1   34 1    
     3    1   35 1    
     4    1   36 1    
     5    2    3 1    
     6    2    4 1    
     7    2   19 1    
     8    4   13 1    
     9    4    5 2    
    10    5    6 am   BACKBONE|DICT|INTERRES
    11    6    7 2    
    12    6    8 1    
    13    8   12 1    
    14    8    9 2    
    15    9   10 1    
    16    9   14 1    
    17   10   11 1    
    18   10   37 1    
    19   10   38 1    
    20   11   12 1    
    21   12   13 2    
    22   14   18 1    
    23   14   15 2    
    24   15   16 1    
    25   15   39 1    
    26   16   17 2    
    27   16   40 1    
    28   17   18 1    
    29   17   41 1    
    30   19   20 1    
    31   19   42 1    
    32   20   25 1    
    33   20   21 1    
    34   20   43 1    
    35   21   22 1    
    36   21   44 1    
    37   21   45 1    
    38   22   23 1    
    39   22   46 1    
    40   22   47 1    
    41   23   24 1    
    42   23   26 1    
    43   23   58 1    
    44   24   25 1    
    45   24   48 1    
    46   24   49 1    
    47   25   50 1    
    48   25   51 1    
    49   26   27 1    
    50   26   52 1    
    51   26   53 1    
    52   27   32 ar   
    53   27   28 ar   
    54   28   29 ar   
    55   28   54 1    
    56   29   30 ar   
    57   29   55 1    
    58   30   31 ar   
    59   30   33 1    
    60   31   32 ar   
    61   31   56 1    
    62   32   57 1    
@<TRIPOS>SUBSTRUCTURE
     1 UNK         1 GROUP             0       ****    0 ROOT    
