ZINC39666225_786
                    3D
 Schrodinger Suite 2024-2.
 69 73  0  0  1  0            999 V2000
    1.2003   55.2072   15.9902 C   0  0  0  0  0  0
    1.1124   53.9775   16.8762 C   0  0  0  0  0  0
   -0.1150   53.6038   17.4249 C   0  0  0  0  0  0
   -0.1912   52.4923   18.2599 C   0  0  0  0  0  0
    0.9483   51.7442   18.5541 C   0  0  0  0  0  0
    2.1789   52.1193   17.9906 C   0  0  0  0  0  0
    2.2591   53.2356   17.1616 C   0  0  0  0  0  0
    0.7622   50.6677   19.4016 O   0  0  0  0  0  0
    1.8687   49.8551   19.8034 C   0  0  2  0  0  0
    2.7398   50.4756   20.0223 H   0  0  0  0  0  0
    2.1844   48.8457   18.6847 C   0  0  0  0  0  0
    1.4936   49.1209   21.1087 C   0  0  0  0  0  0
    1.1224   49.9924   22.2318 N   0  0  0  0  0  0
   -0.1374   50.3883   22.5037 C   0  0  0  0  0  0
   -1.0908   50.0899   21.7839 O   0  0  0  0  0  0
   -0.4405   51.1659   23.8070 C   0  0  2  0  0  0
   -1.1877   51.9129   23.5319 H   0  0  0  0  0  0
    0.7674   51.9587   24.3599 C   0  0  0  0  0  0
    0.4725   52.0439   25.7981 N   0  0  0  0  0  0
   -0.6857   51.2156   26.1598 C   0  0  0  0  0  0
   -0.9127   50.2684   24.9787 C   0  0  0  0  0  0
   -2.4327   49.9017   24.9188 C   0  0  0  0  0  0
   -2.8273   48.5050   24.4153 C   0  0  0  0  0  0
   -1.8954   47.4587   25.0436 N   0  3  0  0  0  0
   -0.4596   47.7070   24.5663 C   0  0  0  0  0  0
    0.0192   49.0196   25.1937 C   0  0  0  0  0  0
    1.3331   52.6172   26.6865 C   0  0  0  0  0  0
    2.3827   53.1556   26.3348 O   0  0  0  0  0  0
    1.0001   52.5367   28.1003 C   0  0  0  0  0  0
   -0.2740   52.6965   28.6172 C   0  0  0  0  0  0
   -0.4251   52.4961   30.3269 S   0  0  0  0  0  0
    1.2978   52.3336   30.4544 C   0  0  0  0  0  0
    1.9417   52.4135   29.1767 C   0  0  0  0  0  0
    3.3419   52.3067   29.1597 C   0  0  0  0  0  0
    4.0363   52.1273   30.3490 C   0  0  0  0  0  0
    3.3864   52.0630   31.5725 C   0  0  0  0  0  0
    2.0006   52.1278   31.6479 C   0  0  0  0  0  0
    2.2130   55.6118   15.9635 H   0  0  0  0  0  0
    0.5587   56.0022   16.3695 H   0  0  0  0  0  0
    0.8870   54.9673   14.9736 H   0  0  0  0  0  0
   -1.0055   54.1763   17.2121 H   0  0  0  0  0  0
   -1.1404   52.2044   18.6872 H   0  0  0  0  0  0
    3.0833   51.5585   18.1739 H   0  0  0  0  0  0
    3.2150   53.5151   16.7418 H   0  0  0  0  0  0
    3.1045   48.2990   18.8880 H   0  0  0  0  0  0
    1.3821   48.1192   18.5618 H   0  0  0  0  0  0
    2.3047   49.3413   17.7219 H   0  0  0  0  0  0
    0.6817   48.4203   20.8984 H   0  0  0  0  0  0
    2.3353   48.5018   21.4274 H   0  0  0  0  0  0
    1.8651   50.2604   22.8570 H   0  0  0  0  0  0
    1.6895   51.3799   24.2837 H   0  0  0  0  0  0
    0.8882   52.9375   23.8917 H   0  0  0  0  0  0
   -1.5535   51.8747   26.1825 H   0  0  0  0  0  0
   -0.6230   50.6549   27.0948 H   0  0  0  0  0  0
   -2.7574   49.8240   25.9593 H   0  0  0  0  0  0
   -3.0514   50.7108   24.5277 H   0  0  0  0  0  0
   -3.8464   48.2367   24.7014 H   0  0  0  0  0  0
   -2.7296   48.4139   23.3312 H   0  0  0  0  0  0
   -1.9206   47.5270   26.0569 H   0  0  0  0  0  0
    0.1494   46.8660   24.8815 H   0  0  0  0  0  0
   -0.4765   47.7277   23.4749 H   0  0  0  0  0  0
    1.0795   49.2260   25.0354 H   0  0  0  0  0  0
   -0.0111   48.7714   26.2589 H   0  0  0  0  0  0
   -1.1767   52.8736   28.0572 H   0  0  0  0  0  0
    3.8840   52.3447   28.2255 H   0  0  0  0  0  0
    5.1040   52.0322   30.3117 H   0  0  0  0  0  0
    3.9573   51.9261   32.4815 H   0  0  0  0  0  0
    1.4759   52.0575   32.5928 H   0  0  0  0  0  0
   -2.1937   46.5281   24.7927 H   0  0  0  0  0  0
  1  2  1  0  0  0
  1 38  1  0  0  0
  1 39  1  0  0  0
  1 40  1  0  0  0
  2  7  2  0  0  0
  2  3  1  0  0  0
  3  4  2  0  0  0
  3 41  1  0  0  0
  4  5  1  0  0  0
  4 42  1  0  0  0
  5  6  2  0  0  0
  5  8  1  0  0  0
  6  7  1  0  0  0
  6 43  1  0  0  0
  7 44  1  0  0  0
  8  9  1  0  0  0
  9 10  1  0  0  0
  9 11  1  0  0  0
  9 12  1  0  0  0
 11 45  1  0  0  0
 11 46  1  0  0  0
 11 47  1  0  0  0
 12 13  1  0  0  0
 12 48  1  0  0  0
 12 49  1  0  0  0
 13 14  1  0  0  0
 13 50  1  0  0  0
 14 15  2  0  0  0
 14 16  1  0  0  0
 16 17  1  0  0  0
 16 21  1  0  0  0
 16 18  1  0  0  0
 18 19  1  0  0  0
 18 51  1  0  0  0
 18 52  1  0  0  0
 19 20  1  0  0  0
 19 27  1  0  0  0
 20 21  1  0  0  0
 20 53  1  0  0  0
 20 54  1  0  0  0
 21 26  1  0  0  0
 21 22  1  0  0  0
 22 23  1  0  0  0
 22 55  1  0  0  0
 22 56  1  0  0  0
 23 24  1  0  0  0
 23 57  1  0  0  0
 23 58  1  0  0  0
 24 25  1  0  0  0
 24 59  1  0  0  0
 24 69  1  0  0  0
 25 26  1  0  0  0
 25 60  1  0  0  0
 25 61  1  0  0  0
 26 62  1  0  0  0
 26 63  1  0  0  0
 27 28  2  0  0  0
 27 29  1  0  0  0
 29 33  1  0  0  0
 29 30  2  0  0  0
 30 31  1  0  0  0
 30 64  1  0  0  0
 31 32  1  0  0  0
 32 37  2  0  0  0
 32 33  1  0  0  0
 33 34  2  0  0  0
 34 35  1  0  0  0
 34 65  1  0  0  0
 35 36  2  0  0  0
 35 66  1  0  0  0
 36 37  1  0  0  0
 36 67  1  0  0  0
 37 68  1  0  0  0
M  CHG  1  24   1
M  END
> <i_i_glide_confnum>
352

> <i_i_glide_lignum>
787

> <i_i_glide_posenum>
312

> <i_i_glide_rotatable_bonds>
8

> <i_m_Source_File_Index>
2187

> <b_m_subgroup_collapsed>
0

> <r_i_docking_score>
-3.15325

> <r_i_glide_ecoul>
-4.17781

> <r_i_glide_eff_state_penalty>
0

> <r_i_glide_einternal>
4.98271

> <r_i_glide_emodel>
-44.0474

> <r_i_glide_energy>
-37.0031

> <r_i_glide_erotb>
0.671294

> <r_i_glide_esite>
-0.0766538

> <r_i_glide_evdw>
-32.8253

> <r_i_glide_gscore>
-3.15325

> <r_i_glide_hbond>
0

> <r_i_glide_ligand_efficiency>
-0.0900929

> <r_i_glide_ligand_efficiency_ln>
-0.692209

> <r_i_glide_ligand_efficiency_sa>
-0.2947

> <r_i_glide_lipo>
-1.14271

> <r_i_glide_metal>
0

> <r_i_glide_rewards>
-0.337245

> <s_i_glide_gridfile>
wee1_glide-grid

> <s_m_Source_File>
wee1_decoys_glide_SP.sdf

> <s_m_Source_Path>
/Users/zhangxujun/Desktop

> <s_m_entry_id>
2462

> <s_m_entry_name>
wee1_decoys_glide_SP.2187

> <s_m_subgroup_title>
wee1_decoys_glide_SP

> <s_m_subgroupid>
wee1_decoys_glide_SP


$$$$
