ZINC44592611_4690
                    3D
 Schrodinger Suite 2024-2.
 41 43  0  0  1  0            999 V2000
    1.9220   53.1901   26.3784 C   0  0  0  0  0  0
    2.0085   53.1042   27.7604 C   0  0  0  0  0  0
    1.0950   51.7728   28.3788 S   0  0  0  0  0  0
    0.5801   51.3541   26.7748 C   0  0  0  0  0  0
    1.1052   52.1994   25.8055 C   0  0  0  0  0  0
    0.8189   52.0031   24.3104 C   0  0  1  0  0  0
    1.7286   52.1168   23.7446 H   0  0  0  0  0  0
    0.1230   50.7070   24.0459 N   0  0  0  0  0  0
   -0.9237   50.3550   25.0459 C   0  0  0  0  0  0
   -0.2837   50.1624   26.4412 C   0  0  0  0  0  0
    0.2895   49.9049   22.9415 C   0  0  0  0  0  0
   -0.3068   48.8227   22.8764 O   0  0  0  0  0  0
    1.1596   50.2993   21.6811 C   0  0  0  0  0  0
    0.5833   51.5119   20.8863 C   0  0  0  0  0  0
    1.4566   52.0033   19.7102 C   0  0  0  0  0  0
    2.9212   52.1948   20.1380 C   0  0  0  0  0  0
    3.5123   50.8986   20.7173 C   0  0  0  0  0  0
    2.7023   50.3463   21.9166 C   0  0  0  0  0  0
    1.0482   49.1656   20.6375 N   0  3  0  0  0  0
    0.0200   53.2375   23.8749 C   0  0  0  0  0  0
   -1.2178   53.1650   23.6937 O   0  0  0  0  0  0
    0.7197   54.2524   23.6818 O   0  5  0  0  0  0
    2.4288   53.9452   25.7952 H   0  0  0  0  0  0
    2.5638   53.7425   28.4308 H   0  0  0  0  0  0
   -1.6354   51.1793   25.1003 H   0  0  0  0  0  0
   -1.5331   49.4901   24.7716 H   0  0  0  0  0  0
   -1.0809   50.0969   27.1786 H   0  0  0  0  0  0
    0.2755   49.2267   26.4828 H   0  0  0  0  0  0
    0.5182   52.3691   21.5415 H   0  0  0  0  0  0
   -0.4539   51.3455   20.5854 H   0  0  0  0  0  0
    1.0575   52.9360   19.3160 H   0  0  0  0  0  0
    1.4091   51.2936   18.8809 H   0  0  0  0  0  0
    2.9835   52.9969   20.8760 H   0  0  0  0  0  0
    3.5153   52.5204   19.2818 H   0  0  0  0  0  0
    4.5471   51.0715   21.0152 H   0  0  0  0  0  0
    3.5572   50.1502   19.9235 H   0  0  0  0  0  0
    3.0994   49.3954   22.2788 H   0  0  0  0  0  0
    2.9264   51.0224   22.7283 H   0  0  0  0  0  0
    1.5834   49.4047   19.8143 H   0  0  0  0  0  0
    1.4128   48.3100   21.0250 H   0  0  0  0  0  0
    0.0819   49.0287   20.3820 H   0  0  0  0  0  0
  1  5  1  0  0  0
  1  2  2  0  0  0
  1 23  1  0  0  0
  2  3  1  0  0  0
  2 24  1  0  0  0
  3  4  1  0  0  0
  4 10  1  0  0  0
  4  5  2  0  0  0
  5  6  1  0  0  0
  6  7  1  0  0  0
  6  8  1  0  0  0
  6 20  1  0  0  0
  8  9  1  0  0  0
  8 11  1  0  0  0
  9 10  1  0  0  0
  9 25  1  0  0  0
  9 26  1  0  0  0
 10 27  1  0  0  0
 10 28  1  0  0  0
 11 12  2  0  0  0
 11 13  1  0  0  0
 13 18  1  0  0  0
 13 14  1  0  0  0
 13 19  1  0  0  0
 14 15  1  0  0  0
 14 29  1  0  0  0
 14 30  1  0  0  0
 15 16  1  0  0  0
 15 31  1  0  0  0
 15 32  1  0  0  0
 16 17  1  0  0  0
 16 33  1  0  0  0
 16 34  1  0  0  0
 17 18  1  0  0  0
 17 35  1  0  0  0
 17 36  1  0  0  0
 18 37  1  0  0  0
 18 38  1  0  0  0
 19 39  1  0  0  0
 19 40  1  0  0  0
 19 41  1  0  0  0
 20 21  2  0  0  0
 20 22  1  0  0  0
M  CHG  2  19   1  22  -1
M  END
> <i_i_glide_confnum>
4

> <i_i_glide_lignum>
4691

> <i_i_glide_posenum>
234

> <i_i_glide_rotatable_bonds>
3

> <i_m_Source_File_Index>
2216

> <b_m_subgroup_collapsed>
0

> <r_i_docking_score>
-3.35101

> <r_i_glide_ecoul>
-1.40186

> <r_i_glide_eff_state_penalty>
0

> <r_i_glide_einternal>
2.01462

> <r_i_glide_emodel>
-31.0354

> <r_i_glide_energy>
-23.2674

> <r_i_glide_erotb>
0.389048

> <r_i_glide_esite>
0

> <r_i_glide_evdw>
-21.8655

> <r_i_glide_gscore>
-3.35101

> <r_i_glide_hbond>
0

> <r_i_glide_ligand_efficiency>
-0.159572

> <r_i_glide_ligand_efficiency_ln>
-0.828532

> <r_i_glide_ligand_efficiency_sa>
-0.440247

> <r_i_glide_lipo>
-0.871147

> <r_i_glide_metal>
0

> <r_i_glide_rewards>
-1.56536

> <s_i_glide_gridfile>
wee1_glide-grid

> <s_m_Source_File>
wee1_decoys_glide_SP.sdf

> <s_m_Source_Path>
/Users/zhangxujun/Desktop

> <s_m_entry_id>
2491

> <s_m_entry_name>
wee1_decoys_glide_SP.2216

> <s_m_subgroup_title>
wee1_decoys_glide_SP

> <s_m_subgroupid>
wee1_decoys_glide_SP


$$$$
