@<TRIPOS>MOLECULE
ZINC01129283_4211
46   49    1
SMALL
USER_CHARGES


@<TRIPOS>ATOM
      1 C1          6.7121   55.3918   24.6563 C.ar      1 UNK         0.0000 
      2 C2          6.2432   54.7930   23.4893 C.ar      1 UNK         0.0000 
      3 C3          5.0341   54.0972   23.5027 C.ar      1 UNK         0.0000 
      4 C4          4.2899   54.0238   24.6861 C.ar      1 UNK         0.0000 
      5 C5          4.7896   54.5897   25.8562 C.ar      1 UNK         0.0000 
      6 C6          6.0084   55.2638   25.8515 C.ar      1 UNK         0.0000 
      7 C7          3.9077   54.1974   27.0021 C.3       1 UNK         0.0000 
      8 C8          2.6590   53.6919   26.2860 C.3       1 UNK         0.0000 
      9 N9          3.0915   53.3365   24.9345 N.pl3     1 UNK         0.0000 
     10 S10         1.8427   53.0332   23.7020 S.o2      1 UNK         0.0000 
     11 O11         2.5159   52.5700   22.4837 O.2       1 UNK         0.0000 
     12 O12         0.9761   54.2138   23.6811 O.2       1 UNK         0.0000 
     13 C13         0.8718   51.6631   24.3220 C.ar      1 UNK         0.0000 
     14 C14         1.1890   50.3618   23.9324 C.ar      1 UNK         0.0000 
     15 C15         0.4408   49.2966   24.4168 C.ar      1 UNK         0.0000 
     16 C16        -0.6501   49.5374   25.2603 C.ar      1 UNK         0.0000 
     17 C17        -0.9441   50.8324   25.6825 C.ar      1 UNK         0.0000 
     18 C18        -0.1827   51.8967   25.2102 C.ar      1 UNK         0.0000 
     19 N19        -1.4940   48.5002   25.6815 N.pl3     1 UNK         0.0000 
     20 C20        -2.1200   47.5580   24.9151 C.2       1 UNK         0.0000 
     21 S21        -3.1473   46.4968   25.6914 S.2       1 UNK         0.0000 
     22 N22        -1.8477   47.6160   23.5711 N.am      1 UNK         0.0000 
     23 C23        -2.0518   46.7626   22.5394 C.2       1 UNK         0.0000 
     24 O24        -2.6703   45.6959   22.5802 O.2       1 UNK         0.0000 
     25 C25        -1.4080   47.1997   21.3230 C.2       1 UNK         0.0000 
     26 C26        -1.3540   46.6229   20.0589 C.2       1 UNK         0.0000 
     27 C27        -0.5354   47.4387   19.2729 C.2       1 UNK         0.0000 
     28 C28        -0.1190   48.4798   20.0847 C.2       1 UNK         0.0000 
     29 O29        -0.6580   48.3396   21.3212 O.3       1 UNK         0.0000 
     30 Br30        1.0241   49.9708   19.7821 Br        1 UNK         0.0000 
     31 H31         7.6427   55.9368   24.6296 H         1 UNK         0.0000 
     32 H32         6.8160   54.8726   22.5765 H         1 UNK         0.0000 
     33 H33         4.6958   53.6365   22.5884 H         1 UNK         0.0000 
     34 H34         6.4136   55.6870   26.7601 H         1 UNK         0.0000 
     35 H35         3.6727   55.0411   27.6509 H         1 UNK         0.0000 
     36 H36         4.3476   53.4094   27.6155 H         1 UNK         0.0000 
     37 H37         1.9254   54.4933   26.2202 H         1 UNK         0.0000 
     38 H38         2.1549   52.8660   26.7890 H         1 UNK         0.0000 
     39 H39         2.0192   50.1701   23.2682 H         1 UNK         0.0000 
     40 H40         0.7028   48.2890   24.1242 H         1 UNK         0.0000 
     41 H41        -1.7743   51.0134   26.3500 H         1 UNK         0.0000 
     42 H42        -0.4259   52.8977   25.5260 H         1 UNK         0.0000 
     43 H43        -1.6951   48.4952   26.6812 H         1 UNK         0.0000 
     44 H44        -1.3472   48.4514   23.3017 H         1 UNK         0.0000 
     45 H45        -1.8432   45.7104   19.7494 H         1 UNK         0.0000 
     46 H46        -0.2634   47.2876   18.2377 H         1 UNK         0.0000 
@<TRIPOS>BOND
     1    1    6 ar   
     2    1    2 ar   
     3    1   31 1    
     4    2    3 ar   
     5    2   32 1    
     6    3    4 ar   
     7    3   33 1    
     8    4    9 1    
     9    4    5 ar   
    10    5    6 ar   
    11    5    7 1    
    12    6   34 1    
    13    7    8 1    
    14    7   35 1    
    15    7   36 1    
    16    8    9 1    
    17    8   37 1    
    18    8   38 1    
    19    9   10 1    
    20   10   11 2    
    21   10   12 2    
    22   10   13 1    
    23   13   18 ar   
    24   13   14 ar   
    25   14   15 ar   
    26   14   39 1    
    27   15   16 ar   
    28   15   40 1    
    29   16   17 ar   
    30   16   19 1    
    31   17   18 ar   
    32   17   41 1    
    33   18   42 1    
    34   19   20 1    
    35   19   43 1    
    36   20   21 2    
    37   20   22 am   BACKBONE|DICT|INTERRES
    38   22   23 am   BACKBONE|DICT|INTERRES
    39   22   44 1    
    40   23   24 2    
    41   23   25 1    
    42   25   29 1    
    43   25   26 2    
    44   26   27 1    
    45   26   45 1    
    46   27   28 2    
    47   27   46 1    
    48   28   29 1    
    49   28   30 1    
@<TRIPOS>SUBSTRUCTURE
     1 UNK         1 GROUP             0       ****    0 ROOT    
