@<TRIPOS>MOLECULE
ZINC02995015_3404
53   55    1
SMALL
USER_CHARGES


@<TRIPOS>ATOM
      1 C1          6.9065   57.5844   14.2455 C.3       1 UNK         0.0000 
      2 C2          7.5689   58.4217   15.3550 C.3       1 UNK         0.0000 
      3 C3          7.0324   59.8668   15.3615 C.3       1 UNK         0.0000 
      4 C4          7.4439   57.7391   16.7205 C.ar      1 UNK         0.0000 
      5 C5          6.1951   57.6178   17.3356 C.ar      1 UNK         0.0000 
      6 C6          6.0744   56.9617   18.5566 C.ar      1 UNK         0.0000 
      7 C7          7.2051   56.4183   19.1883 C.ar      1 UNK         0.0000 
      8 C8          8.4581   56.5592   18.5755 C.ar      1 UNK         0.0000 
      9 C9          8.5753   57.2132   17.3509 C.ar      1 UNK         0.0000 
     10 C10         7.0963   55.7005   20.5159 C.2       1 UNK         0.0000 
     11 O11         8.0604   55.6951   21.2815 O.2       1 UNK         0.0000 
     12 N12         5.9048   55.0896   20.7361 N.am      1 UNK         0.0000 
     13 C13         5.3755   54.4072   21.8035 C.2       1 UNK         0.0000 
     14 S14         6.1372   54.1023   23.2816 S.2       1 UNK         0.0000 
     15 N15         4.1171   53.9726   21.4811 N.pl3     1 UNK         0.0000 
     16 C16         3.1361   53.2976   22.2233 C.ar      1 UNK         0.0000 
     17 C17         2.4473   52.2607   21.5916 C.ar      1 UNK         0.0000 
     18 C18         1.4636   51.5532   22.2790 C.ar      1 UNK         0.0000 
     19 C19         1.1657   51.8750   23.6016 C.ar      1 UNK         0.0000 
     20 C20         1.8443   52.9126   24.2462 C.ar      1 UNK         0.0000 
     21 C21         2.8038   53.6498   23.5375 C.ar      1 UNK         0.0000 
     22 N22         1.5097   53.1527   25.5871 N.am      1 UNK         0.0000 
     23 C23         2.2788   53.6962   26.5557 C.2       1 UNK         0.0000 
     24 O24         3.4088   54.1533   26.3877 O.2       1 UNK         0.0000 
     25 C25         1.6459   53.7548   27.9237 C.ar      1 UNK         0.0000 
     26 C26         1.7802   54.9400   28.6652 C.ar      1 UNK         0.0000 
     27 C27         1.2402   55.0484   29.9434 C.ar      1 UNK         0.0000 
     28 C28         0.5655   53.9686   30.5026 C.ar      1 UNK         0.0000 
     29 C29         0.4368   52.7776   29.7940 C.ar      1 UNK         0.0000 
     30 C30         0.9830   52.6544   28.5150 C.ar      1 UNK         0.0000 
     31 Cl31        0.8337   51.1118   27.7388 Cl        1 UNK         0.0000 
     32 Cl32       -0.0956   54.0963   32.0854 Cl        1 UNK         0.0000 
     33 H33         7.3127   56.5723   14.2166 H         1 UNK         0.0000 
     34 H34         7.0700   58.0288   13.2619 H         1 UNK         0.0000 
     35 H35         5.8288   57.5039   14.3926 H         1 UNK         0.0000 
     36 H36         8.6298   58.4887   15.1105 H         1 UNK         0.0000 
     37 H37         7.5370   60.4746   16.1106 H         1 UNK         0.0000 
     38 H38         7.1862   60.3518   14.3970 H         1 UNK         0.0000 
     39 H39         5.9640   59.9081   15.5765 H         1 UNK         0.0000 
     40 H40         5.3125   58.0250   16.8653 H         1 UNK         0.0000 
     41 H41         5.0927   56.8963   19.0016 H         1 UNK         0.0000 
     42 H42         9.3500   56.1600   19.0393 H         1 UNK         0.0000 
     43 H43         9.5480   57.3005   16.8897 H         1 UNK         0.0000 
     44 H44         5.2732   55.1833   19.9554 H         1 UNK         0.0000 
     45 H45         3.8758   54.0433   20.5033 H         1 UNK         0.0000 
     46 H46         2.6794   51.9934   20.5709 H         1 UNK         0.0000 
     47 H47         0.9437   50.7446   21.7872 H         1 UNK         0.0000 
     48 H48         0.4184   51.2983   24.1260 H         1 UNK         0.0000 
     49 H49         3.2981   54.4920   23.9964 H         1 UNK         0.0000 
     50 H50         0.6339   52.7594   25.8927 H         1 UNK         0.0000 
     51 H51         2.3030   55.7901   28.2501 H         1 UNK         0.0000 
     52 H52         1.3470   55.9687   30.4987 H         1 UNK         0.0000 
     53 H53        -0.0814   51.9425   30.2442 H         1 UNK         0.0000 
@<TRIPOS>BOND
     1    1    2 1    
     2    1   33 1    
     3    1   34 1    
     4    1   35 1    
     5    2    3 1    
     6    2    4 1    
     7    2   36 1    
     8    3   37 1    
     9    3   38 1    
    10    3   39 1    
    11    4    9 ar   
    12    4    5 ar   
    13    5    6 ar   
    14    5   40 1    
    15    6    7 ar   
    16    6   41 1    
    17    7    8 ar   
    18    7   10 1    
    19    8    9 ar   
    20    8   42 1    
    21    9   43 1    
    22   10   11 2    
    23   10   12 am   BACKBONE|DICT|INTERRES
    24   12   13 am   BACKBONE|DICT|INTERRES
    25   12   44 1    
    26   13   14 2    
    27   13   15 1    
    28   15   16 1    
    29   15   45 1    
    30   16   21 ar   
    31   16   17 ar   
    32   17   18 ar   
    33   17   46 1    
    34   18   19 ar   
    35   18   47 1    
    36   19   20 ar   
    37   19   48 1    
    38   20   21 ar   
    39   20   22 1    
    40   21   49 1    
    41   22   23 am   BACKBONE|DICT|INTERRES
    42   22   50 1    
    43   23   24 2    
    44   23   25 1    
    45   25   30 ar   
    46   25   26 ar   
    47   26   27 ar   
    48   26   51 1    
    49   27   28 ar   
    50   27   52 1    
    51   28   29 ar   
    52   28   32 1    
    53   29   30 ar   
    54   29   53 1    
    55   30   31 1    
@<TRIPOS>SUBSTRUCTURE
     1 UNK         1 GROUP             0       ****    0 ROOT    
