@<TRIPOS>MOLECULE
ZINC35664229_2917
84   86    1
SMALL
USER_CHARGES


@<TRIPOS>ATOM
      1 C1         -0.3575   52.3017   21.3698 C.3       1 UNK         0.0000 
      2 C2          0.9981   52.4414   22.0961 C.3       1 UNK         0.0000 
      3 N3          1.0511   51.8932   23.4798 N.am      1 UNK         0.0000 
      4 C4          1.3930   52.6044   24.6374 C.2       1 UNK         0.0000 
      5 C5          1.0335   52.0980   25.8611 C.2       1 UNK         0.0000 
      6 C6          0.0693   50.8882   25.8765 C.3       1 UNK         0.0000 
      7 H7          0.1569   50.2748   26.7764 H         1 UNK         0.0000 
      8 N8          0.4752   50.0368   24.7370 N.am      1 UNK         0.0000 
      9 C9          0.8618   50.5234   23.5286 C.2       1 UNK         0.0000 
     10 O10         1.0709   49.7283   22.6109 O.2       1 UNK         0.0000 
     11 C11        -1.4156   51.3041   25.9075 C.ar      1 UNK         0.0000 
     12 C12        -2.1134   51.2965   27.1216 C.ar      1 UNK         0.0000 
     13 C13        -3.4462   51.6966   27.1750 C.ar      1 UNK         0.0000 
     14 C14        -4.0983   52.1416   26.0230 C.ar      1 UNK         0.0000 
     15 C15        -3.4064   52.1504   24.8079 C.ar      1 UNK         0.0000 
     16 C16        -2.0812   51.7328   24.7531 C.ar      1 UNK         0.0000 
     17 C17        -5.5537   52.6094   26.1223 C.3       1 UNK         0.0000 
     18 C18        -5.9403   53.6923   25.0936 C.3       1 UNK         0.0000 
     19 C19        -6.5266   51.4183   26.0749 C.3       1 UNK         0.0000 
     20 C20         1.5046   52.5981   27.1858 C.2       1 UNK         0.0000 
     21 O21         2.4646   53.3579   27.3340 O.2       1 UNK         0.0000 
     22 O22         0.7953   52.1107   28.2371 O.3       1 UNK         0.0000 
     23 C23         1.0897   52.4558   29.5881 C.3       1 UNK         0.0000 
     24 C24         0.5325   53.8391   29.9589 C.3       1 UNK         0.0000 
     25 C25         2.2242   53.8999   24.4420 C.3       1 UNK         0.0000 
     26 N26         3.7473   53.6968   24.1820 N.4       1 UNK         0.0000 
     27 C27         4.6625   54.7193   24.9110 C.3       1 UNK         0.0000 
     28 C28         6.1598   54.3654   24.8840 C.3       1 UNK         0.0000 
     29 C29         6.9428   54.7686   23.6085 C.3       1 UNK         0.0000 
     30 N30         6.2884   54.4750   22.3237 N.am      1 UNK         0.0000 
     31 C31         5.4973   53.2332   22.3131 C.3       1 UNK         0.0000 
     32 C32         4.0258   53.4388   22.6800 C.3       1 UNK         0.0000 
     33 C33         6.4321   55.3074   21.2477 C.2       1 UNK         0.0000 
     34 O34         7.1027   56.3401   21.2821 O.2       1 UNK         0.0000 
     35 N35         5.8100   54.9156   20.1128 N.am      1 UNK         0.0000 
     36 C36         6.0416   55.3713   18.7332 C.3       1 UNK         0.0000 
     37 C37         7.5011   55.0966   18.2993 C.3       1 UNK         0.0000 
     38 C38         5.7157   56.8728   18.5562 C.3       1 UNK         0.0000 
     39 C39         5.0983   54.5576   17.8216 C.3       1 UNK         0.0000 
     40 H40        -0.2636   52.6700   20.3474 H         1 UNK         0.0000 
     41 H41        -0.6852   51.2641   21.2932 H         1 UNK         0.0000 
     42 H42        -1.1404   52.8803   21.8601 H         1 UNK         0.0000 
     43 H43         1.2572   53.4960   22.0736 H         1 UNK         0.0000 
     44 H44         1.7604   51.9563   21.4831 H         1 UNK         0.0000 
     45 H45         0.1276   49.0886   24.7239 H         1 UNK         0.0000 
     46 H46        -1.6337   50.9589   28.0305 H         1 UNK         0.0000 
     47 H47        -3.9634   51.6706   28.1231 H         1 UNK         0.0000 
     48 H48        -3.8864   52.4728   23.8968 H         1 UNK         0.0000 
     49 H49        -1.5830   51.7470   23.8000 H         1 UNK         0.0000 
     50 H50        -5.6578   53.0837   27.1003 H         1 UNK         0.0000 
     51 H51        -5.2059   54.4975   25.0648 H         1 UNK         0.0000 
     52 H52        -6.0230   53.2818   24.0857 H         1 UNK         0.0000 
     53 H53        -6.9051   54.1364   25.3389 H         1 UNK         0.0000 
     54 H54        -6.3011   50.6885   26.8534 H         1 UNK         0.0000 
     55 H55        -7.5564   51.7420   26.2242 H         1 UNK         0.0000 
     56 H56        -6.4785   50.9023   25.1142 H         1 UNK         0.0000 
     57 H57         0.6285   51.7010   30.2266 H         1 UNK         0.0000 
     58 H58         2.1637   52.4057   29.7744 H         1 UNK         0.0000 
     59 H59         0.6925   54.0508   31.0159 H         1 UNK         0.0000 
     60 H60         1.0110   54.6316   29.3835 H         1 UNK         0.0000 
     61 H61        -0.5394   53.8898   29.7702 H         1 UNK         0.0000 
     62 H62         2.1693   54.4968   25.3397 H         1 UNK         0.0000 
     63 H63         1.8426   54.5800   23.6817 H         1 UNK         0.0000 
     64 H64         4.3151   54.7064   25.9446 H         1 UNK         0.0000 
     65 H65         4.4872   55.6966   24.4919 H         1 UNK         0.0000 
     66 H66         6.2726   53.2967   25.0619 H         1 UNK         0.0000 
     67 H67         6.6499   54.8273   25.7419 H         1 UNK         0.0000 
     68 H68         7.8442   54.1535   23.6219 H         1 UNK         0.0000 
     69 H69         7.2323   55.8199   23.6715 H         1 UNK         0.0000 
     70 H70         5.5050   52.8142   21.3057 H         1 UNK         0.0000 
     71 H71         5.9748   52.4387   22.8820 H         1 UNK         0.0000 
     72 H72         3.5522   54.2362   22.1025 H         1 UNK         0.0000 
     73 H73         3.5165   52.5019   22.4784 H         1 UNK         0.0000 
     74 H74         5.1973   54.1185   20.1783 H         1 UNK         0.0000 
     75 H75         7.6719   55.3815   17.2599 H         1 UNK         0.0000 
     76 H76         7.7534   54.0390   18.3903 H         1 UNK         0.0000 
     77 H77         8.2173   55.6532   18.9054 H         1 UNK         0.0000 
     78 H78         4.7024   57.1001   18.8796 H         1 UNK         0.0000 
     79 H79         6.3893   57.5148   19.1247 H         1 UNK         0.0000 
     80 H80         5.7973   57.1805   17.5131 H         1 UNK         0.0000 
     81 H81         4.0501   54.7197   18.0795 H         1 UNK         0.0000 
     82 H82         5.2174   54.8325   16.7733 H         1 UNK         0.0000 
     83 H83         5.2885   53.4851   17.8954 H         1 UNK         0.0000 
     84 H84         3.9714   52.8390   24.6722 H         1 UNK         0.0000 
@<TRIPOS>BOND
     1    1    2 1    
     2    1   40 1    
     3    1   41 1    
     4    1   42 1    
     5    2    3 1    
     6    2   43 1    
     7    2   44 1    
     8    3    9 am   BACKBONE|DICT|INTERRES
     9    3    4 1    
    10    4    5 2    
    11    4   25 1    
    12    5    6 1    
    13    5   20 1    
    14    6    7 1    
    15    6    8 1    
    16    6   11 1    
    17    8    9 am   BACKBONE|DICT|INTERRES
    18    8   45 1    
    19    9   10 2    
    20   11   16 ar   
    21   11   12 ar   
    22   12   13 ar   
    23   12   46 1    
    24   13   14 ar   
    25   13   47 1    
    26   14   15 ar   
    27   14   17 1    
    28   15   16 ar   
    29   15   48 1    
    30   16   49 1    
    31   17   18 1    
    32   17   19 1    
    33   17   50 1    
    34   18   51 1    
    35   18   52 1    
    36   18   53 1    
    37   19   54 1    
    38   19   55 1    
    39   19   56 1    
    40   20   21 2    
    41   20   22 1    
    42   22   23 1    
    43   23   24 1    
    44   23   57 1    
    45   23   58 1    
    46   24   59 1    
    47   24   60 1    
    48   24   61 1    
    49   25   26 1    
    50   25   62 1    
    51   25   63 1    
    52   26   32 1    
    53   26   27 1    
    54   26   84 1    
    55   27   28 1    
    56   27   64 1    
    57   27   65 1    
    58   28   29 1    
    59   28   66 1    
    60   28   67 1    
    61   29   30 1    
    62   29   68 1    
    63   29   69 1    
    64   30   31 1    
    65   30   33 am   BACKBONE|DICT|INTERRES
    66   31   32 1    
    67   31   70 1    
    68   31   71 1    
    69   32   72 1    
    70   32   73 1    
    71   33   34 2    
    72   33   35 am   BACKBONE|DICT|INTERRES
    73   35   36 1    
    74   35   74 1    
    75   36   37 1    
    76   36   38 1    
    77   36   39 1    
    78   37   75 1    
    79   37   76 1    
    80   37   77 1    
    81   38   78 1    
    82   38   79 1    
    83   38   80 1    
    84   39   81 1    
    85   39   82 1    
    86   39   83 1    
@<TRIPOS>SUBSTRUCTURE
     1 UNK         1 GROUP             0       ****    0 ROOT    
