ZINC35751029_5160
                    3D
 Schrodinger Suite 2024-2.
 62 66  0  0  1  0            999 V2000
    9.5823   52.5593   12.9144 C   0  0  0  0  0  0
    8.5937   53.4570   13.3132 C   0  0  0  0  0  0
    8.0842   53.3927   14.6075 C   0  0  0  0  0  0
    8.5698   52.4323   15.5009 C   0  0  0  0  0  0
    9.5640   51.5378   15.0943 C   0  0  0  0  0  0
   10.0691   51.5988   13.7982 C   0  0  0  0  0  0
    8.0096   52.3254   16.9142 C   0  0  0  0  0  0
    7.6717   53.5857   17.5912 N   0  0  0  0  0  0
    6.4454   53.7421   18.3440 C   0  0  1  0  0  0
    6.3011   52.8614   18.9735 H   0  0  0  0  0  0
    6.6732   55.0025   19.1857 C   0  0  2  0  0  0
    6.1484   55.8636   18.7660 H   0  0  0  0  0  0
    8.0589   55.2459   18.9981 O   0  0  0  0  0  0
    8.6338   54.4966   18.0253 C   0  0  0  0  0  0
    9.8040   54.6438   17.6815 O   0  0  0  0  0  0
    6.2389   54.8967   20.6532 C   0  0  0  0  0  0
    5.0027   54.3189   20.9627 C   0  0  0  0  0  0
    4.6347   54.1036   22.2861 C   0  0  0  0  0  0
    5.4821   54.4963   23.3233 C   0  0  0  0  0  0
    6.7049   55.1077   23.0198 C   0  0  0  0  0  0
    7.0821   55.3008   21.6935 C   0  0  0  0  0  0
    4.9978   54.2685   24.6205 N   0  0  0  0  0  0
    5.5534   54.5142   25.8276 C   0  0  0  0  0  0
    6.6914   54.9626   25.9956 O   0  0  0  0  0  0
    4.6577   54.2214   27.0192 C   0  0  0  0  0  0
    3.3589   53.6969   26.8665 C   0  0  0  0  0  0
    2.5513   53.4593   27.9748 C   0  0  0  0  0  0
    3.0257   53.7463   29.2489 C   0  0  0  0  0  0
    4.3044   54.2663   29.4210 C   0  0  0  0  0  0
    5.1184   54.4953   28.3155 C   0  0  0  0  0  0
    5.2158   53.9069   17.4293 C   0  0  0  0  0  0
    5.1859   54.8178   16.5991 O   0  0  0  0  0  0
    4.2328   53.0021   17.6071 N   0  0  0  0  0  0
    2.9260   53.0358   17.0918 C   0  0  0  0  0  0
    2.2568   51.8144   16.9968 C   0  0  0  0  0  0
    0.9436   51.7691   16.5368 C   0  0  0  0  0  0
    0.2953   52.9502   16.1835 C   0  0  0  0  0  0
    0.9490   54.1766   16.2860 C   0  0  0  0  0  0
    2.2630   54.2235   16.7432 C   0  0  0  0  0  0
    9.9741   52.6045   11.9082 H   0  0  0  0  0  0
    8.2197   54.1967   12.6206 H   0  0  0  0  0  0
    7.3093   54.0829   14.9113 H   0  0  0  0  0  0
    9.9414   50.7905   15.7773 H   0  0  0  0  0  0
   10.8329   50.9033   13.4764 H   0  0  0  0  0  0
    7.1198   51.6969   16.8672 H   0  0  0  0  0  0
    8.7225   51.7844   17.5390 H   0  0  0  0  0  0
    4.3241   54.0099   20.1818 H   0  0  0  0  0  0
    3.6784   53.6443   22.4918 H   0  0  0  0  0  0
    7.3908   55.4335   23.7855 H   0  0  0  0  0  0
    8.0468   55.7431   21.4883 H   0  0  0  0  0  0
    4.0739   53.8719   24.6472 H   0  0  0  0  0  0
    2.9474   53.4601   25.8973 H   0  0  0  0  0  0
    1.5586   53.0530   27.8480 H   0  0  0  0  0  0
    2.3926   53.5596   30.1037 H   0  0  0  0  0  0
    4.6728   54.4957   30.4094 H   0  0  0  0  0  0
    6.1094   54.8988   28.4782 H   0  0  0  0  0  0
    4.4922   52.1436   18.0815 H   0  0  0  0  0  0
    2.7541   50.8964   17.2730 H   0  0  0  0  0  0
    0.4334   50.8204   16.4564 H   0  0  0  0  0  0
   -0.7242   52.9172   15.8286 H   0  0  0  0  0  0
    0.4374   55.0890   16.0182 H   0  0  0  0  0  0
    2.7454   55.1854   16.8378 H   0  0  0  0  0  0
  1  6  2  0  0  0
  1  2  1  0  0  0
  1 40  1  0  0  0
  2  3  2  0  0  0
  2 41  1  0  0  0
  3  4  1  0  0  0
  3 42  1  0  0  0
  4  5  2  0  0  0
  4  7  1  0  0  0
  5  6  1  0  0  0
  5 43  1  0  0  0
  6 44  1  0  0  0
  7  8  1  0  0  0
  7 45  1  0  0  0
  7 46  1  0  0  0
  8 14  1  0  0  0
  8  9  1  0  0  0
  9 10  1  0  0  0
  9 11  1  0  0  0
  9 31  1  0  0  0
 11 12  1  0  0  0
 11 13  1  0  0  0
 11 16  1  0  0  0
 13 14  1  0  0  0
 14 15  2  0  0  0
 16 21  2  0  0  0
 16 17  1  0  0  0
 17 18  2  0  0  0
 17 47  1  0  0  0
 18 19  1  0  0  0
 18 48  1  0  0  0
 19 20  2  0  0  0
 19 22  1  0  0  0
 20 21  1  0  0  0
 20 49  1  0  0  0
 21 50  1  0  0  0
 22 23  1  0  0  0
 22 51  1  0  0  0
 23 24  2  0  0  0
 23 25  1  0  0  0
 25 30  2  0  0  0
 25 26  1  0  0  0
 26 27  2  0  0  0
 26 52  1  0  0  0
 27 28  1  0  0  0
 27 53  1  0  0  0
 28 29  2  0  0  0
 28 54  1  0  0  0
 29 30  1  0  0  0
 29 55  1  0  0  0
 30 56  1  0  0  0
 31 32  2  0  0  0
 31 33  1  0  0  0
 33 34  1  0  0  0
 33 57  1  0  0  0
 34 39  2  0  0  0
 34 35  1  0  0  0
 35 36  2  0  0  0
 35 58  1  0  0  0
 36 37  1  0  0  0
 36 59  1  0  0  0
 37 38  2  0  0  0
 37 60  1  0  0  0
 38 39  1  0  0  0
 38 61  1  0  0  0
 39 62  1  0  0  0
M  END
> <i_i_glide_confnum>
237

> <i_i_glide_lignum>
5161

> <i_i_glide_posenum>
319

> <i_i_glide_rotatable_bonds>
9

> <i_m_Source_File_Index>
2148

> <b_m_subgroup_collapsed>
0

> <r_i_docking_score>
-5.48928

> <r_i_glide_ecoul>
-4.6194

> <r_i_glide_eff_state_penalty>
0

> <r_i_glide_einternal>
4.43416

> <r_i_glide_emodel>
-62.5757

> <r_i_glide_energy>
-48.2699

> <r_i_glide_erotb>
0.758351

> <r_i_glide_esite>
-0.0985823

> <r_i_glide_evdw>
-43.6505

> <r_i_glide_gscore>
-5.48928

> <r_i_glide_hbond>
-0.403685

> <r_i_glide_ligand_efficiency>
-0.148359

> <r_i_glide_ligand_efficiency_ln>
-1.1905

> <r_i_glide_ligand_efficiency_sa>
-0.494365

> <r_i_glide_lipo>
-2.17704

> <r_i_glide_metal>
0

> <r_i_glide_rewards>
-0.692888

> <s_i_glide_gridfile>
wee1_glide-grid

> <s_m_Source_File>
wee1_decoys_glide_SP.sdf

> <s_m_Source_Path>
/Users/zhangxujun/Desktop

> <s_m_entry_id>
2423

> <s_m_entry_name>
wee1_decoys_glide_SP.2148

> <s_m_subgroup_title>
wee1_decoys_glide_SP

> <s_m_subgroupid>
wee1_decoys_glide_SP


$$$$
