ZINC63373451_505
                    3D
 Schrodinger Suite 2024-2.
 50 54  0  0  1  0            999 V2000
    0.6487   52.4450   28.8420 C   0  0  0  0  0  0
    0.1078   52.1178   27.5654 O   0  0  0  0  0  0
    0.7705   52.4958   26.4360 C   0  0  0  0  0  0
    0.2318   52.0475   25.1565 C   0  0  0  0  0  0
    0.8138   52.3368   23.9631 C   0  0  0  0  0  0
    1.9800   53.1059   23.9184 C   0  0  0  0  0  0
    2.7178   53.4546   22.8845 N   0  3  0  0  0  0
    3.8311   54.3226   23.3162 C   0  0  2  0  0  0
    3.5983   55.2967   22.9125 H   0  0  0  0  0  0
    5.2671   53.9112   22.9012 C   0  0  2  0  0  0
    5.4066   52.8727   23.1967 H   0  0  0  0  0  0
    6.2578   54.6620   23.6878 N   0  0  0  0  0  0
    6.1297   54.3959   25.1222 C   0  0  0  0  0  0
    4.7628   54.8616   25.6766 C   0  0  0  0  0  0
    3.6575   54.2610   24.8215 C   0  0  0  0  0  0
    2.5358   53.5839   25.1081 C   0  0  0  0  0  0
    1.9041   53.2426   26.3903 C   0  0  0  0  0  0
    5.4327   53.9875   21.3648 C   0  0  0  0  0  0
    5.1044   52.9455   20.5649 C   0  0  0  0  0  0
    5.2936   52.8970   19.2290 N   0  0  0  0  0  0
    5.9019   53.9068   18.5516 C   0  0  0  0  0  0
    6.2373   55.0042   19.3335 N   0  0  0  0  0  0
    6.0154   55.1657   20.6949 C   0  0  0  0  0  0
    6.3048   56.2112   21.2838 O   0  0  0  0  0  0
    6.9211   56.0667   18.6894 C   0  0  0  0  0  0
    6.2182   57.2016   18.2630 C   0  0  0  0  0  0
    6.9157   58.3002   17.7662 C   0  0  0  0  0  0
    8.3072   58.2598   17.6918 C   0  0  0  0  0  0
    9.0087   57.1208   18.0839 C   0  0  0  0  0  0
    8.3176   56.0212   18.5842 C   0  0  0  0  0  0
    9.2636   59.7879   17.0819 Br  0  0  0  0  0  0
    6.1096   53.7891   17.3439 O   0  0  0  0  0  0
    4.6104   51.8336   20.9786 O   0  5  0  0  0  0
    0.0024   52.0340   29.6184 H   0  0  0  0  0  0
    1.6410   52.0128   28.9805 H   0  0  0  0  0  0
    0.6986   53.5243   28.9932 H   0  0  0  0  0  0
   -0.6654   51.4452   25.1674 H   0  0  0  0  0  0
    0.3625   51.9569   23.0575 H   0  0  0  0  0  0
    7.1859   54.4233   23.3612 H   0  0  0  0  0  0
    6.2718   53.3316   25.3208 H   0  0  0  0  0  0
    6.9502   54.8855   25.6475 H   0  0  0  0  0  0
    4.6690   54.5585   26.7191 H   0  0  0  0  0  0
    4.7177   55.9495   25.6805 H   0  0  0  0  0  0
    2.3444   53.5919   27.3107 H   0  0  0  0  0  0
    5.1424   57.2470   18.3545 H   0  0  0  0  0  0
    6.3826   59.1918   17.4627 H   0  0  0  0  0  0
   10.0872   57.0980   18.0269 H   0  0  0  0  0  0
    8.8672   55.1540   18.9227 H   0  0  0  0  0  0
    5.1707   52.0083   18.7410 H   0  0  0  0  0  0
    2.5509   53.1956   21.9140 H   0  0  0  0  0  0
  1  2  1  0  0  0
  1 34  1  0  0  0
  1 35  1  0  0  0
  1 36  1  0  0  0
  2  3  1  0  0  0
  3 17  2  0  0  0
  3  4  1  0  0  0
  4  5  2  0  0  0
  4 37  1  0  0  0
  5  6  1  0  0  0
  5 38  1  0  0  0
  6 16  1  0  0  0
  6  7  2  0  0  0
  7  8  1  0  0  0
  7 50  1  0  0  0
  8  9  1  0  0  0
  8 15  1  0  0  0
  8 10  1  0  0  0
 10 11  1  0  0  0
 10 12  1  0  0  0
 10 18  1  0  0  0
 12 13  1  0  0  0
 12 39  1  0  0  0
 13 14  1  0  0  0
 13 40  1  0  0  0
 13 41  1  0  0  0
 14 15  1  0  0  0
 14 42  1  0  0  0
 14 43  1  0  0  0
 15 16  2  0  0  0
 16 17  1  0  0  0
 17 44  1  0  0  0
 18 23  1  0  0  0
 18 19  2  0  0  0
 19 33  1  0  0  0
 19 20  1  0  0  0
 20 49  1  0  0  0
 20 21  1  0  0  0
 21 32  2  0  0  0
 21 22  1  0  0  0
 22 23  1  0  0  0
 22 25  1  0  0  0
 23 24  2  0  0  0
 25 30  2  0  0  0
 25 26  1  0  0  0
 26 27  2  0  0  0
 26 45  1  0  0  0
 27 28  1  0  0  0
 27 46  1  0  0  0
 28 29  2  0  0  0
 28 31  1  0  0  0
 29 30  1  0  0  0
 29 47  1  0  0  0
 30 48  1  0  0  0
M  CHG  2   7   1  33  -1
M  END
> <i_i_glide_confnum>
4

> <i_i_glide_lignum>
506

> <i_i_glide_posenum>
5

> <i_i_glide_rotatable_bonds>
3

> <i_m_Source_File_Index>
2026

> <b_m_subgroup_collapsed>
0

> <r_i_docking_score>
-5.81435

> <r_i_glide_ecoul>
-6.19512

> <r_i_glide_eff_state_penalty>
0

> <r_i_glide_einternal>
5.16685

> <r_i_glide_emodel>
-55.7804

> <r_i_glide_energy>
-43.7246

> <r_i_glide_erotb>
0.173805

> <r_i_glide_esite>
-0.116639

> <r_i_glide_evdw>
-37.5294

> <r_i_glide_gscore>
-5.81435

> <r_i_glide_hbond>
-0.16

> <r_i_glide_ligand_efficiency>
-0.18756

> <r_i_glide_ligand_efficiency_ln>
-1.31132

> <r_i_glide_ligand_efficiency_sa>
-0.589197

> <r_i_glide_lipo>
-2.69511

> <r_i_glide_metal>
0

> <r_i_glide_rewards>
-0.210673

> <s_i_glide_gridfile>
wee1_glide-grid

> <s_m_Source_File>
wee1_decoys_glide_SP.sdf

> <s_m_Source_Path>
/Users/zhangxujun/Desktop

> <s_m_entry_id>
2301

> <s_m_entry_name>
wee1_decoys_glide_SP.2026

> <s_m_subgroup_title>
wee1_decoys_glide_SP

> <s_m_subgroupid>
wee1_decoys_glide_SP


$$$$
