@<TRIPOS>MOLECULE
ZINC49223815_6167
35   36    1
SMALL
USER_CHARGES


@<TRIPOS>ATOM
      1 C1          0.3085   53.2212   31.3318 C.3       1 UNK         0.0000 
      2 C2          1.0811   54.1623   30.4397 C.2       1 UNK         0.0000 
      3 C3          1.1162   55.5373   30.2853 C.2       1 UNK         0.0000 
      4 C4          2.0426   55.8104   29.2817 C.2       1 UNK         0.0000 
      5 C5          2.5716   54.5951   28.8742 C.2       1 UNK         0.0000 
      6 O6          1.9762   53.5986   29.5883 O.3       1 UNK         0.0000 
      7 C7          3.6385   54.1918   27.8595 C.3       1 UNK         0.0000 
      8 H8          4.3261   55.0350   27.8068 H         1 UNK         0.0000 
      9 C9          4.4608   52.9709   28.3186 C.3       1 UNK         0.0000 
     10 N10         3.1322   53.9630   26.4828 N.pl3     1 UNK         0.0000 
     11 C11         3.7878   54.3540   25.3226 C.ar      1 UNK         0.0000 
     12 C12         3.0180   53.9940   24.2177 C.ar      1 UNK         0.0000 
     13 C13         1.8704   53.3525   24.7121 C.ar      1 UNK         0.0000 
     14 C14         1.9753   53.2968   26.0983 C.ar      1 UNK         0.0000 
     15 N15         1.1285   52.7089   27.0045 N.pl3     1 UNK         0.0000 
     16 C16         0.7674   52.8298   23.9145 C.1       1 UNK         0.0000 
     17 N17        -0.1100   52.4191   23.2815 N.1       1 UNK         0.0000 
     18 C18         3.3823   54.2341   22.7638 C.3       1 UNK         0.0000 
     19 C19         5.1366   55.0552   25.3480 C.3       1 UNK         0.0000 
     20 H20        -0.3059   53.7543   32.0570 H         1 UNK         0.0000 
     21 H21        -0.3596   52.5773   30.7605 H         1 UNK         0.0000 
     22 H22         0.9678   52.5673   31.9024 H         1 UNK         0.0000 
     23 H23         0.5501   56.2659   30.8411 H         1 UNK         0.0000 
     24 H24         2.3044   56.7890   28.9100 H         1 UNK         0.0000 
     25 H25         4.9482   53.1605   29.2754 H         1 UNK         0.0000 
     26 H26         3.8251   52.0958   28.4427 H         1 UNK         0.0000 
     27 H27         5.2415   52.7140   27.6010 H         1 UNK         0.0000 
     28 H28         0.3199   52.1762   26.7129 H         1 UNK         0.0000 
     29 H29         1.2828   52.7866   28.0024 H         1 UNK         0.0000 
     30 H30         3.4822   55.2958   22.5443 H         1 UNK         0.0000 
     31 H31         4.3565   53.8033   22.5317 H         1 UNK         0.0000 
     32 H32         2.6667   53.8158   22.0556 H         1 UNK         0.0000 
     33 H33         5.5973   55.0859   24.3606 H         1 UNK         0.0000 
     34 H34         5.0533   56.0887   25.6816 H         1 UNK         0.0000 
     35 H35         5.8520   54.5543   26.0003 H         1 UNK         0.0000 
@<TRIPOS>BOND
     1    1    2 1    
     2    1   20 1    
     3    1   21 1    
     4    1   22 1    
     5    2    6 1    
     6    2    3 2    
     7    3    4 1    
     8    3   23 1    
     9    4    5 2    
    10    4   24 1    
    11    5    6 1    
    12    5    7 1    
    13    7    8 1    
    14    7    9 1    
    15    7   10 1    
    16    9   25 1    
    17    9   26 1    
    18    9   27 1    
    19   10   14 ar   
    20   10   11 ar   
    21   11   12 ar   
    22   11   19 1    
    23   12   13 ar   
    24   12   18 1    
    25   13   14 ar   
    26   13   16 1    
    27   14   15 1    
    28   15   28 1    
    29   15   29 1    
    30   16   17 3    
    31   18   30 1    
    32   18   31 1    
    33   18   32 1    
    34   19   33 1    
    35   19   34 1    
    36   19   35 1    
@<TRIPOS>SUBSTRUCTURE
     1 UNK         1 GROUP             0       ****    0 ROOT    
