@<TRIPOS>MOLECULE
ZINC63572987_1155
61   65    1
SMALL
USER_CHARGES


@<TRIPOS>ATOM
      1 C1          1.5118   47.1673   17.5409 C.3       1 UNK         0.0000 
      2 C2          1.0911   47.9099   18.7965 C.ar      1 UNK         0.0000 
      3 C3         -0.1772   47.7057   19.3446 C.ar      1 UNK         0.0000 
      4 C4         -0.5731   48.4073   20.4839 C.ar      1 UNK         0.0000 
      5 C5          0.2907   49.3317   21.0788 C.ar      1 UNK         0.0000 
      6 C6          1.5842   49.5160   20.5457 C.ar      1 UNK         0.0000 
      7 C7          1.9648   48.8169   19.3997 C.ar      1 UNK         0.0000 
      8 Cl8         2.7466   50.5703   21.2803 Cl        1 UNK         0.0000 
      9 N9         -0.1552   49.9957   22.2344 N.am      1 UNK         0.0000 
     10 C10        -0.2216   51.3394   22.3613 C.2       1 UNK         0.0000 
     11 O11        -0.2328   52.0966   21.3878 O.2       1 UNK         0.0000 
     12 N12        -0.1591   51.7863   23.6423 N.am      1 UNK         0.0000 
     13 C13         0.3903   53.1473   23.8914 C.3       1 UNK         0.0000 
     14 C14         1.3819   53.0676   25.0753 C.3       1 UNK         0.0000 
     15 C15         0.7041   52.3948   26.2514 C.2       1 UNK         0.0000 
     16 C16         0.5368   52.7137   27.5460 C.2       1 UNK         0.0000 
     17 C17         0.9730   53.8703   28.3447 C.2       1 UNK         0.0000 
     18 C18         0.6730   53.9681   29.6667 C.2       1 UNK         0.0000 
     19 C19        -0.0893   52.8633   30.2458 C.2       1 UNK         0.0000 
     20 C20        -0.4956   51.7867   29.5218 C.2       1 UNK         0.0000 
     21 C21        -0.1947   51.6968   28.1588 C.2       1 UNK         0.0000 
     22 N22        -0.4975   50.7497   27.2959 N.pl3     1 UNK         0.0000 
     23 C23         0.0162   51.0772   25.9536 C.3       1 UNK         0.0000 
     24 H24         0.7425   50.2969   25.7310 H         1 UNK         0.0000 
     25 C25        -0.9745   51.1680   24.7351 C.3       1 UNK         0.0000 
     26 H26        -1.2367   50.1437   24.4682 H         1 UNK         0.0000 
     27 C27        -2.3580   51.7991   25.0387 C.ar      1 UNK         0.0000 
     28 C28        -2.8457   52.8967   24.3155 C.ar      1 UNK         0.0000 
     29 C29        -4.0741   53.4711   24.6299 C.ar      1 UNK         0.0000 
     30 C30        -4.8663   52.9397   25.6442 C.ar      1 UNK         0.0000 
     31 C31        -4.4237   51.7938   26.3221 C.ar      1 UNK         0.0000 
     32 C32        -3.1921   51.2242   26.0085 C.ar      1 UNK         0.0000 
     33 O33        -6.0569   53.5940   25.8994 O.3       1 UNK         0.0000 
     34 C34        -6.9294   53.0796   26.8996 C.3       1 UNK         0.0000 
     35 O35         1.0024   55.0125   30.4813 O.3       1 UNK         0.0000 
     36 C36         1.6786   56.1470   29.9394 C.3       1 UNK         0.0000 
     37 H37         1.8592   46.1627   17.7822 H         1 UNK         0.0000 
     38 H38         0.6741   47.0839   16.8472 H         1 UNK         0.0000 
     39 H39         2.3041   47.6969   17.0099 H         1 UNK         0.0000 
     40 H40        -0.8611   47.0086   18.8837 H         1 UNK         0.0000 
     41 H41        -1.5592   48.2385   20.8928 H         1 UNK         0.0000 
     42 H42         2.9490   48.9777   18.9773 H         1 UNK         0.0000 
     43 H43        -0.2620   49.4268   23.0596 H         1 UNK         0.0000 
     44 H44         0.9299   53.5339   23.0219 H         1 UNK         0.0000 
     45 H45        -0.4007   53.8537   24.1295 H         1 UNK         0.0000 
     46 H46         2.2641   52.4996   24.7741 H         1 UNK         0.0000 
     47 H47         1.7390   54.0646   25.3310 H         1 UNK         0.0000 
     48 H48         1.5274   54.6629   27.8687 H         1 UNK         0.0000 
     49 H49        -0.3373   52.8964   31.2985 H         1 UNK         0.0000 
     50 H50        -1.0587   51.0076   30.0194 H         1 UNK         0.0000 
     51 H51        -2.2910   53.3283   23.4981 H         1 UNK         0.0000 
     52 H52        -4.4192   54.3351   24.0810 H         1 UNK         0.0000 
     53 H53        -5.0209   51.3301   27.0928 H         1 UNK         0.0000 
     54 H54        -2.8945   50.3306   26.5374 H         1 UNK         0.0000 
     55 H55        -7.2715   52.0724   26.6534 H         1 UNK         0.0000 
     56 H56        -6.4534   53.0662   27.8829 H         1 UNK         0.0000 
     57 H57        -7.8115   53.7186   26.9723 H         1 UNK         0.0000 
     58 H58         1.1053   56.6229   29.1429 H         1 UNK         0.0000 
     59 H59         1.8212   56.8901   30.7238 H         1 UNK         0.0000 
     60 H60         2.6658   55.8833   29.5582 H         1 UNK         0.0000 
     61 H61        -0.9909   49.8828   27.5356 H         1 UNK         0.0000 
@<TRIPOS>BOND
     1    1    2 1    
     2    1   37 1    
     3    1   38 1    
     4    1   39 1    
     5    2    7 ar   
     6    2    3 ar   
     7    3    4 ar   
     8    3   40 1    
     9    4    5 ar   
    10    4   41 1    
    11    5    6 ar   
    12    5    9 1    
    13    6    7 ar   
    14    6    8 1    
    15    7   42 1    
    16    9   10 am   BACKBONE|DICT|INTERRES
    17    9   43 1    
    18   10   11 2    
    19   10   12 am   BACKBONE|DICT|INTERRES
    20   12   25 1    
    21   12   13 1    
    22   13   14 1    
    23   13   44 1    
    24   13   45 1    
    25   14   15 1    
    26   14   46 1    
    27   14   47 1    
    28   15   23 1    
    29   15   16 2    
    30   16   21 1    
    31   16   17 1    
    32   17   18 2    
    33   17   48 1    
    34   18   19 1    
    35   18   35 1    
    36   19   20 2    
    37   19   49 1    
    38   20   21 1    
    39   20   50 1    
    40   21   22 2    
    41   22   23 1    
    42   22   61 1    
    43   23   24 1    
    44   23   25 1    
    45   25   26 1    
    46   25   27 1    
    47   27   32 ar   
    48   27   28 ar   
    49   28   29 ar   
    50   28   51 1    
    51   29   30 ar   
    52   29   52 1    
    53   30   31 ar   
    54   30   33 1    
    55   31   32 ar   
    56   31   53 1    
    57   32   54 1    
    58   33   34 1    
    59   34   55 1    
    60   34   56 1    
    61   34   57 1    
    62   35   36 1    
    63   36   58 1    
    64   36   59 1    
    65   36   60 1    
@<TRIPOS>SUBSTRUCTURE
     1 UNK         1 GROUP             0       ****    0 ROOT    
