@<TRIPOS>MOLECULE
ZINC08895625_4009
57   61    1
SMALL
USER_CHARGES


@<TRIPOS>ATOM
      1 C1         -0.0308   52.3599   24.5668 C.ar      1 UNK         0.0000 
      2 C2          0.2042   52.8321   23.2815 C.ar      1 UNK         0.0000 
      3 C3          1.4551   53.3441   22.9428 C.ar      1 UNK         0.0000 
      4 C4          2.4963   53.3887   23.8840 C.ar      1 UNK         0.0000 
      5 C5          2.2404   52.8726   25.1595 C.ar      1 UNK         0.0000 
      6 C6          0.9888   52.3744   25.5089 C.ar      1 UNK         0.0000 
      7 C7          3.8634   53.9260   23.5067 C.2       1 UNK         0.0000 
      8 C8          4.9334   54.3243   24.3519 C.2       1 UNK         0.0000 
      9 S9          6.3080   54.7708   23.3666 S.3       1 UNK         0.0000 
     10 C10         5.3367   54.4967   21.9574 C.2       1 UNK         0.0000 
     11 N11         4.1408   54.0442   22.2140 N.2       1 UNK         0.0000 
     12 N12         5.7314   54.7424   20.6505 N.am      1 UNK         0.0000 
     13 C13         6.8814   55.2968   20.2044 C.2       1 UNK         0.0000 
     14 O14         7.7543   55.7684   20.9338 O.2       1 UNK         0.0000 
     15 C15         7.0605   55.4050   18.6702 C.3       1 UNK         0.0000 
     16 H16         6.9562   56.4686   18.4494 H         1 UNK         0.0000 
     17 C17         8.4373   54.8855   18.2011 C.3       1 UNK         0.0000 
     18 C18         8.1584   54.1601   16.8967 C.3       1 UNK         0.0000 
     19 C19         6.7946   53.5199   17.1249 C.3       1 UNK         0.0000 
     20 N20         6.0817   54.5686   17.9006 N.pl3     1 UNK         0.0000 
     21 S21         4.6688   55.3687   17.1957 S.o2      1 UNK         0.0000 
     22 O22         4.9454   55.6166   15.7769 O.2       1 UNK         0.0000 
     23 O23         4.3022   56.4785   18.0817 O.2       1 UNK         0.0000 
     24 C24         3.3025   54.2140   17.2695 C.ar      1 UNK         0.0000 
     25 C25         3.4703   52.8971   17.7123 C.ar      1 UNK         0.0000 
     26 C26         2.3731   52.0423   17.7605 C.ar      1 UNK         0.0000 
     27 C27         1.1163   52.5038   17.3744 C.ar      1 UNK         0.0000 
     28 C28         0.9463   53.8132   16.9328 C.ar      1 UNK         0.0000 
     29 C29         2.0418   54.6712   16.8814 C.ar      1 UNK         0.0000 
     30 F30         0.0492   51.6755   17.4290 F         1 UNK         0.0000 
     31 C31         5.0827   54.4284   25.8358 C.ar      1 UNK         0.0000 
     32 C32         4.0215   54.8962   26.6136 C.ar      1 UNK         0.0000 
     33 C33         4.1109   54.8963   28.0012 C.ar      1 UNK         0.0000 
     34 C34         5.2956   54.4965   28.6080 C.ar      1 UNK         0.0000 
     35 C35         6.3823   54.0789   27.8456 C.ar      1 UNK         0.0000 
     36 C36         6.2727   54.0377   26.4603 C.ar      1 UNK         0.0000 
     37 H37        -1.0009   51.9599   24.8257 H         1 UNK         0.0000 
     38 H38        -0.5829   52.7966   22.5448 H         1 UNK         0.0000 
     39 H39         1.6051   53.6969   21.9321 H         1 UNK         0.0000 
     40 H40         3.0254   52.7853   25.8904 H         1 UNK         0.0000 
     41 H41         0.8205   51.9763   26.4991 H         1 UNK         0.0000 
     42 H42         5.0568   54.4984   19.9394 H         1 UNK         0.0000 
     43 H43         8.8961   54.2001   18.9176 H         1 UNK         0.0000 
     44 H44         9.1464   55.7008   18.0500 H         1 UNK         0.0000 
     45 H45         8.9239   53.4233   16.6514 H         1 UNK         0.0000 
     46 H46         8.1043   54.8650   16.0648 H         1 UNK         0.0000 
     47 H47         6.9265   52.6373   17.7541 H         1 UNK         0.0000 
     48 H48         6.2433   53.1582   16.2555 H         1 UNK         0.0000 
     49 H49         4.4335   52.5128   18.0168 H         1 UNK         0.0000 
     50 H50         2.5066   51.0199   18.0896 H         1 UNK         0.0000 
     51 H51        -0.0323   54.1605   16.6369 H         1 UNK         0.0000 
     52 H52         1.9139   55.6911   16.5450 H         1 UNK         0.0000 
     53 H53         3.1057   55.2225   26.1456 H         1 UNK         0.0000 
     54 H54         3.2761   55.2305   28.5993 H         1 UNK         0.0000 
     55 H55         5.3756   54.5206   29.6821 H         1 UNK         0.0000 
     56 H56         7.2988   53.7712   28.3302 H         1 UNK         0.0000 
     57 H57         7.1033   53.6724   25.8752 H         1 UNK         0.0000 
@<TRIPOS>BOND
     1    1    6 ar   
     2    1    2 ar   
     3    1   37 1    
     4    2    3 ar   
     5    2   38 1    
     6    3    4 ar   
     7    3   39 1    
     8    4    5 ar   
     9    4    7 1    
    10    5    6 ar   
    11    5   40 1    
    12    6   41 1    
    13    7   11 1    
    14    7    8 2    
    15    8    9 1    
    16    8   31 1    
    17    9   10 1    
    18   10   11 2    
    19   10   12 am   BACKBONE|DICT|INTERRES
    20   12   13 am   BACKBONE|DICT|INTERRES
    21   12   42 1    
    22   13   14 2    
    23   13   15 1    
    24   15   16 1    
    25   15   20 1    
    26   15   17 1    
    27   17   18 1    
    28   17   43 1    
    29   17   44 1    
    30   18   19 1    
    31   18   45 1    
    32   18   46 1    
    33   19   20 1    
    34   19   47 1    
    35   19   48 1    
    36   20   21 1    
    37   21   22 2    
    38   21   23 2    
    39   21   24 1    
    40   24   29 ar   
    41   24   25 ar   
    42   25   26 ar   
    43   25   49 1    
    44   26   27 ar   
    45   26   50 1    
    46   27   28 ar   
    47   27   30 1    
    48   28   29 ar   
    49   28   51 1    
    50   29   52 1    
    51   31   36 ar   
    52   31   32 ar   
    53   32   33 ar   
    54   32   53 1    
    55   33   34 ar   
    56   33   54 1    
    57   34   35 ar   
    58   34   55 1    
    59   35   36 ar   
    60   35   56 1    
    61   36   57 1    
@<TRIPOS>SUBSTRUCTURE
     1 UNK         1 GROUP             0       ****    0 ROOT    
