ZINC39666155_4900
                    3D
 Schrodinger Suite 2024-2.
 74 76  0  0  1  0            999 V2000
    6.3233   53.6639   28.2603 C   0  0  0  0  0  0
    6.8233   54.6630   27.2124 C   0  0  0  0  0  0
    6.4901   54.2897   25.7572 C   0  0  0  0  0  0
    4.9804   54.2993   25.4495 C   0  0  0  0  0  0
    4.6578   54.0573   23.9609 C   0  0  0  0  0  0
    3.1755   54.2454   23.5502 C   0  0  0  0  0  0
    2.1166   53.4431   24.3431 C   0  0  0  0  0  0
    1.9656   53.6924   25.5410 O   0  0  0  0  0  0
    1.3235   52.5452   23.7106 N   0  0  0  0  0  0
    1.5003   52.0713   22.3379 C   0  0  0  0  0  0
    0.3068   51.1117   22.1440 C   0  0  2  0  0  0
   -0.5317   51.6874   21.7484 H   0  0  0  0  0  0
   -0.0412   50.5835   23.5673 C   0  0  0  0  0  0
    0.2361   51.8521   24.4081 C   0  0  0  0  0  0
   -1.4916   50.0467   23.6732 C   0  0  0  0  0  0
   -1.8802   49.7410   25.1361 C   0  0  0  0  0  0
   -0.9168   48.6618   25.6817 N   0  3  0  0  0  0
    0.5823   48.9994   25.5117 C   0  0  0  0  0  0
    0.8511   49.3940   24.0439 C   0  0  0  0  0  0
    0.6897   50.0256   21.1087 C   0  0  0  0  0  0
    1.8211   49.5398   21.0711 O   0  0  0  0  0  0
   -0.2629   49.7166   20.2139 N   0  0  0  0  0  0
   -0.1353   48.7297   19.1392 C   0  0  0  0  0  0
   -0.0249   47.2581   19.6282 C   0  0  2  0  0  0
    0.9672   47.1690   20.0749 H   0  0  0  0  0  0
   -0.0457   46.2136   18.4966 C   0  0  0  0  0  0
   -0.8971   46.8939   20.7092 O   0  0  0  0  0  0
   -2.2720   47.0282   20.6841 C   0  0  0  0  0  0
   -3.0438   47.3488   19.5586 C   0  0  0  0  0  0
   -4.4256   47.4888   19.6720 C   0  0  0  0  0  0
   -5.0483   47.2968   20.9051 C   0  0  0  0  0  0
   -4.2893   46.9660   22.0263 C   0  0  0  0  0  0
   -2.9084   46.8260   21.9085 C   0  0  0  0  0  0
   -6.5495   47.4756   21.0284 C   0  0  0  0  0  0
    6.6602   53.9720   29.2493 H   0  0  0  0  0  0
    6.7110   52.6624   28.0765 H   0  0  0  0  0  0
    5.2365   53.6081   28.2864 H   0  0  0  0  0  0
    6.4294   55.6545   27.4403 H   0  0  0  0  0  0
    7.9032   54.7391   27.3217 H   0  0  0  0  0  0
    6.9975   54.9917   25.0938 H   0  0  0  0  0  0
    6.9067   53.3075   25.5270 H   0  0  0  0  0  0
    4.4965   53.5319   26.0538 H   0  0  0  0  0  0
    4.5506   55.2535   25.7584 H   0  0  0  0  0  0
    5.2504   54.7553   23.3655 H   0  0  0  0  0  0
    5.0112   53.0737   23.6552 H   0  0  0  0  0  0
    2.9254   55.2946   23.6916 H   0  0  0  0  0  0
    3.0866   54.0838   22.4778 H   0  0  0  0  0  0
    1.4910   52.8722   21.5965 H   0  0  0  0  0  0
    2.4511   51.5333   22.3329 H   0  0  0  0  0  0
    0.3920   51.6580   25.4684 H   0  0  0  0  0  0
   -0.6446   52.4923   24.3291 H   0  0  0  0  0  0
   -2.1840   50.8090   23.3118 H   0  0  0  0  0  0
   -1.6482   49.1840   23.0211 H   0  0  0  0  0  0
   -1.7944   50.6010   25.8044 H   0  0  0  0  0  0
   -2.8838   49.3234   25.2270 H   0  0  0  0  0  0
   -1.1140   48.4979   26.6751 H   0  0  0  0  0  0
    0.8159   49.7711   26.2455 H   0  0  0  0  0  0
    1.1277   48.0969   25.7764 H   0  0  0  0  0  0
    0.7461   48.5202   23.3981 H   0  0  0  0  0  0
    1.9039   49.6768   23.9682 H   0  0  0  0  0  0
   -1.1632   50.1619   20.2997 H   0  0  0  0  0  0
   -0.9888   48.8618   18.4802 H   0  0  0  0  0  0
    0.7293   48.9730   18.5174 H   0  0  0  0  0  0
    0.6762   46.4668   17.7157 H   0  0  0  0  0  0
    0.2246   45.2281   18.8770 H   0  0  0  0  0  0
   -1.0191   46.1206   18.0179 H   0  0  0  0  0  0
   -2.6039   47.4910   18.5867 H   0  0  0  0  0  0
   -5.0098   47.7458   18.7993 H   0  0  0  0  0  0
   -4.7657   46.8239   22.9862 H   0  0  0  0  0  0
   -2.3197   46.5768   22.7784 H   0  0  0  0  0  0
   -6.8883   48.3216   20.4251 H   0  0  0  0  0  0
   -7.0736   46.5846   20.6856 H   0  0  0  0  0  0
   -6.8421   47.6895   22.0558 H   0  0  0  0  0  0
   -1.1030   47.7834   25.2203 H   0  0  0  0  0  0
  1  2  1  0  0  0
  1 35  1  0  0  0
  1 36  1  0  0  0
  1 37  1  0  0  0
  2  3  1  0  0  0
  2 38  1  0  0  0
  2 39  1  0  0  0
  3  4  1  0  0  0
  3 40  1  0  0  0
  3 41  1  0  0  0
  4  5  1  0  0  0
  4 42  1  0  0  0
  4 43  1  0  0  0
  5  6  1  0  0  0
  5 44  1  0  0  0
  5 45  1  0  0  0
  6  7  1  0  0  0
  6 46  1  0  0  0
  6 47  1  0  0  0
  7  8  2  0  0  0
  7  9  1  0  0  0
  9 14  1  0  0  0
  9 10  1  0  0  0
 10 11  1  0  0  0
 10 48  1  0  0  0
 10 49  1  0  0  0
 11 12  1  0  0  0
 11 13  1  0  0  0
 11 20  1  0  0  0
 13 19  1  0  0  0
 13 14  1  0  0  0
 13 15  1  0  0  0
 14 50  1  0  0  0
 14 51  1  0  0  0
 15 16  1  0  0  0
 15 52  1  0  0  0
 15 53  1  0  0  0
 16 17  1  0  0  0
 16 54  1  0  0  0
 16 55  1  0  0  0
 17 18  1  0  0  0
 17 56  1  0  0  0
 17 74  1  0  0  0
 18 19  1  0  0  0
 18 57  1  0  0  0
 18 58  1  0  0  0
 19 59  1  0  0  0
 19 60  1  0  0  0
 20 21  2  0  0  0
 20 22  1  0  0  0
 22 23  1  0  0  0
 22 61  1  0  0  0
 23 24  1  0  0  0
 23 62  1  0  0  0
 23 63  1  0  0  0
 24 25  1  0  0  0
 24 26  1  0  0  0
 24 27  1  0  0  0
 26 64  1  0  0  0
 26 65  1  0  0  0
 26 66  1  0  0  0
 27 28  1  0  0  0
 28 33  2  0  0  0
 28 29  1  0  0  0
 29 30  2  0  0  0
 29 67  1  0  0  0
 30 31  1  0  0  0
 30 68  1  0  0  0
 31 32  2  0  0  0
 31 34  1  0  0  0
 32 33  1  0  0  0
 32 69  1  0  0  0
 33 70  1  0  0  0
 34 71  1  0  0  0
 34 72  1  0  0  0
 34 73  1  0  0  0
M  CHG  1  17   1
M  END
> <i_i_glide_confnum>
236

> <i_i_glide_lignum>
4901

> <i_i_glide_posenum>
235

> <i_i_glide_rotatable_bonds>
12

> <i_m_Source_File_Index>
5467

> <b_m_subgroup_collapsed>
0

> <r_i_docking_score>
-4.03324

> <r_i_glide_ecoul>
-4.84091

> <r_i_glide_eff_state_penalty>
0

> <r_i_glide_einternal>
3.08886

> <r_i_glide_emodel>
-45.232

> <r_i_glide_energy>
-34.5501

> <r_i_glide_erotb>
1.11291

> <r_i_glide_esite>
-0.100506

> <r_i_glide_evdw>
-29.7092

> <r_i_glide_gscore>
-4.03324

> <r_i_glide_hbond>
-0.2

> <r_i_glide_ligand_efficiency>
-0.126039

> <r_i_glide_ligand_efficiency_ln>
-0.903152

> <r_i_glide_ligand_efficiency_sa>
-0.400148

> <r_i_glide_lipo>
-1.70347

> <r_i_glide_metal>
0

> <r_i_glide_rewards>
-0.930568

> <s_i_glide_gridfile>
wee1_glide-grid

> <s_m_Source_File>
wee1_decoys_glide_SP.sdf

> <s_m_Source_Path>
/Users/zhangxujun/Desktop

> <s_m_entry_id>
5742

> <s_m_entry_name>
wee1_decoys_glide_SP.5467

> <s_m_subgroup_title>
wee1_decoys_glide_SP

> <s_m_subgroupid>
wee1_decoys_glide_SP


$$$$
