ZINC35022863_3736
                    3D
 Schrodinger Suite 2024-2.
 40 41  0  0  1  0            999 V2000
   -1.3588   48.0952   23.9420 C   0  0  0  0  0  0
   -2.4380   48.7047   23.3103 C   0  0  0  0  0  0
   -2.9260   49.9217   23.7822 C   0  0  0  0  0  0
   -2.3497   50.5640   24.8926 C   0  0  0  0  0  0
   -1.2264   49.9461   25.5010 C   0  0  0  0  0  0
   -0.7596   48.7121   25.0356 C   0  0  0  0  0  0
   -0.5022   50.4969   26.5730 N   0  0  0  0  0  0
    0.3847   51.5410   26.5744 C   0  0  0  0  0  0
    0.6546   52.4913   25.2099 S   0  0  0  0  0  0
    1.0122   51.6522   27.7929 N   0  0  0  0  0  0
    2.0237   52.6341   28.2794 C   0  0  2  0  0  0
    2.6114   52.0331   28.9779 H   0  0  0  0  0  0
    1.4244   53.7926   29.1351 C   0  0  0  0  0  0
    0.1910   53.1889   30.2796 Cl  0  0  0  0  0  0
    2.7036   54.5969   30.0815 Cl  0  0  0  0  0  0
    0.7045   55.0272   28.0824 Cl  0  0  0  0  0  0
    2.9612   53.1299   27.2693 N   0  0  0  0  0  0
    4.2738   53.3899   27.3529 C   0  0  0  0  0  0
    4.9341   53.1869   28.3730 O   0  0  0  0  0  0
    4.9009   53.9424   26.0893 C   0  0  0  0  0  0
    4.1620   54.0968   24.8998 C   0  0  0  0  0  0
    4.7768   54.4960   23.7210 C   0  0  0  0  0  0
    6.1322   54.7885   23.7216 C   0  0  0  0  0  0
    6.8631   54.6843   24.8965 C   0  0  0  0  0  0
    6.2626   54.2610   26.0763 C   0  0  0  0  0  0
    6.8996   55.2981   22.2628 Cl  0  0  0  0  0  0
   -2.9451   51.8453   25.3677 N   0  3  0  0  0  0
   -2.6801   52.2658   26.4885 O   0  0  0  0  0  0
   -3.7155   52.4400   24.6166 O   0  5  0  0  0  0
   -0.9814   47.1496   23.5826 H   0  0  0  0  0  0
   -2.9035   48.2314   22.4581 H   0  0  0  0  0  0
   -3.7773   50.3590   23.2800 H   0  0  0  0  0  0
    0.0832   48.2314   25.5150 H   0  0  0  0  0  0
   -0.5853   49.9520   27.4237 H   0  0  0  0  0  0
    0.7467   50.9631   28.4819 H   0  0  0  0  0  0
    2.5052   53.4156   26.4158 H   0  0  0  0  0  0
    3.1098   53.8849   24.8428 H   0  0  0  0  0  0
    4.1994   54.5831   22.8115 H   0  0  0  0  0  0
    7.9043   54.9160   24.8819 H   0  0  0  0  0  0
    6.8664   54.1600   26.9683 H   0  0  0  0  0  0
  1  6  2  0  0  0
  1  2  1  0  0  0
  1 30  1  0  0  0
  2  3  2  0  0  0
  2 31  1  0  0  0
  3  4  1  0  0  0
  3 32  1  0  0  0
  4  5  2  0  0  0
  4 27  1  0  0  0
  5  6  1  0  0  0
  5  7  1  0  0  0
  6 33  1  0  0  0
  7  8  1  0  0  0
  7 34  1  0  0  0
  8  9  2  0  0  0
  8 10  1  0  0  0
 10 11  1  0  0  0
 10 35  1  0  0  0
 11 12  1  0  0  0
 11 13  1  0  0  0
 11 17  1  0  0  0
 13 14  1  0  0  0
 13 15  1  0  0  0
 13 16  1  0  0  0
 17 18  1  0  0  0
 17 36  1  0  0  0
 18 19  2  0  0  0
 18 20  1  0  0  0
 20 25  2  0  0  0
 20 21  1  0  0  0
 21 22  2  0  0  0
 21 37  1  0  0  0
 22 23  1  0  0  0
 22 38  1  0  0  0
 23 24  2  0  0  0
 23 26  1  0  0  0
 24 25  1  0  0  0
 24 39  1  0  0  0
 25 40  1  0  0  0
 27 28  2  0  0  0
 27 29  1  0  0  0
M  CHG  2  27   1  29  -1
M  END
> <i_i_glide_confnum>
24

> <i_i_glide_lignum>
3737

> <i_i_glide_posenum>
271

> <i_i_glide_rotatable_bonds>
9

> <i_m_Source_File_Index>
1294

> <b_m_subgroup_collapsed>
0

> <r_i_docking_score>
-4.69239

> <r_i_glide_ecoul>
-3.38423

> <r_i_glide_eff_state_penalty>
0

> <r_i_glide_einternal>
8.44233

> <r_i_glide_emodel>
-48.0438

> <r_i_glide_energy>
-40.3734

> <r_i_glide_erotb>
0.523685

> <r_i_glide_esite>
-0.102756

> <r_i_glide_evdw>
-36.9892

> <r_i_glide_gscore>
-4.69239

> <r_i_glide_hbond>
-0.149273

> <r_i_glide_ligand_efficiency>
-0.167585

> <r_i_glide_ligand_efficiency_ln>
-1.08314

> <r_i_glide_ligand_efficiency_sa>
-0.508888

> <r_i_glide_lipo>
-1.82191

> <r_i_glide_metal>
0

> <r_i_glide_rewards>
-0.78504

> <s_i_glide_gridfile>
wee1_glide-grid

> <s_m_Source_File>
wee1_decoys_glide_SP.sdf

> <s_m_Source_Path>
/Users/zhangxujun/Desktop

> <s_m_entry_id>
1569

> <s_m_entry_name>
wee1_decoys_glide_SP.1294

> <s_m_subgroup_title>
wee1_decoys_glide_SP

> <s_m_subgroupid>
wee1_decoys_glide_SP


$$$$
