@<TRIPOS>MOLECULE
ZINC16572344_4482
52   54    1
SMALL
USER_CHARGES


@<TRIPOS>ATOM
      1 C1          8.4537   59.0692   17.5698 C.3       1 UNK         0.0000 
      2 C2          7.5729   57.9952   18.2278 C.3       1 UNK         0.0000 
      3 C3          8.1298   56.5567   18.0751 C.3       1 UNK         0.0000 
      4 H4          8.3281   56.4466   17.0081 H         1 UNK         0.0000 
      5 C5          9.5046   56.3955   18.7643 C.3       1 UNK         0.0000 
      6 C6          7.0958   55.4232   18.4250 C.3       1 UNK         0.0000 
      7 H7          6.2056   55.5945   17.8155 H         1 UNK         0.0000 
      8 C8          6.6176   55.4381   19.9099 C.2       1 UNK         0.0000 
      9 O9          7.1012   56.2341   20.7196 O.2       1 UNK         0.0000 
     10 N10         5.6684   54.5264   20.2225 N.am      1 UNK         0.0000 
     11 C11         5.1236   54.3231   21.4825 C.2       1 UNK         0.0000 
     12 N12         3.9007   53.8890   21.6448 N.2       1 UNK         0.0000 
     13 N13         3.5461   53.7887   22.9844 N.2       1 UNK         0.0000 
     14 C14         4.5211   54.0965   23.8138 C.2       1 UNK         0.0000 
     15 S15         6.0077   54.4967   22.9860 S.3       1 UNK         0.0000 
     16 C16         4.3936   54.0973   25.3126 C.ar      1 UNK         0.0000 
     17 C17         5.4652   54.4623   26.1409 C.ar      1 UNK         0.0000 
     18 C18         5.3252   54.4463   27.5282 C.ar      1 UNK         0.0000 
     19 C19         4.1111   54.0651   28.0958 C.ar      1 UNK         0.0000 
     20 C20         3.0378   53.7040   27.2873 C.ar      1 UNK         0.0000 
     21 C21         3.1787   53.7228   25.9037 C.ar      1 UNK         0.0000 
     22 Br22        3.9043   54.0337   29.9880 Br        1 UNK         0.0000 
     23 N23         7.6199   54.0912   18.0880 N.am      1 UNK         0.0000 
     24 C24         7.8073   53.5808   16.8622 C.2       1 UNK         0.0000 
     25 O25         7.4057   54.1251   15.8339 O.2       1 UNK         0.0000 
     26 N26         8.5238   52.4407   16.9284 N.am      1 UNK         0.0000 
     27 C27         8.9396   51.5743   15.9030 C.ar      1 UNK         0.0000 
     28 C28         9.8888   50.6080   16.2567 C.ar      1 UNK         0.0000 
     29 C29        10.3624   49.6975   15.3102 C.ar      1 UNK         0.0000 
     30 C30         9.8814   49.7419   14.0019 C.ar      1 UNK         0.0000 
     31 C31         8.9246   50.6899   13.6419 C.ar      1 UNK         0.0000 
     32 C32         8.4541   51.6063   14.5845 C.ar      1 UNK         0.0000 
     33 F33         8.4460   50.7189   12.3770 F         1 UNK         0.0000 
     34 H34         7.8999   59.9961   17.4240 H         1 UNK         0.0000 
     35 H35         9.3196   59.3009   18.1903 H         1 UNK         0.0000 
     36 H36         8.8159   58.7503   16.5925 H         1 UNK         0.0000 
     37 H37         6.5755   58.0472   17.7886 H         1 UNK         0.0000 
     38 H38         7.4505   58.2546   19.2791 H         1 UNK         0.0000 
     39 H39         9.4586   56.5720   19.8380 H         1 UNK         0.0000 
     40 H40         9.9043   55.3922   18.6149 H         1 UNK         0.0000 
     41 H41        10.2409   57.0880   18.3569 H         1 UNK         0.0000 
     42 H42         5.2366   54.0208   19.4618 H         1 UNK         0.0000 
     43 H43         6.4143   54.7570   25.7210 H         1 UNK         0.0000 
     44 H44         6.1533   54.7282   28.1625 H         1 UNK         0.0000 
     45 H45         2.0995   53.4066   27.7310 H         1 UNK         0.0000 
     46 H46         2.3356   53.4365   25.2926 H         1 UNK         0.0000 
     47 H47         7.8702   53.5277   18.8840 H         1 UNK         0.0000 
     48 H48         8.8584   52.1732   17.8424 H         1 UNK         0.0000 
     49 H49        10.2697   50.5594   17.2683 H         1 UNK         0.0000 
     50 H50        11.1023   48.9617   15.5877 H         1 UNK         0.0000 
     51 H51        10.2539   49.0476   13.2615 H         1 UNK         0.0000 
     52 H52         7.7060   52.3174   14.2736 H         1 UNK         0.0000 
@<TRIPOS>BOND
     1    1    2 1    
     2    1   34 1    
     3    1   35 1    
     4    1   36 1    
     5    2    3 1    
     6    2   37 1    
     7    2   38 1    
     8    3    4 1    
     9    3    5 1    
    10    3    6 1    
    11    5   39 1    
    12    5   40 1    
    13    5   41 1    
    14    6    7 1    
    15    6    8 1    
    16    6   23 1    
    17    8    9 2    
    18    8   10 am   BACKBONE|DICT|INTERRES
    19   10   11 am   BACKBONE|DICT|INTERRES
    20   10   42 1    
    21   11   15 1    
    22   11   12 2    
    23   12   13 1    
    24   13   14 2    
    25   14   15 1    
    26   14   16 1    
    27   16   21 ar   
    28   16   17 ar   
    29   17   18 ar   
    30   17   43 1    
    31   18   19 ar   
    32   18   44 1    
    33   19   20 ar   
    34   19   22 1    
    35   20   21 ar   
    36   20   45 1    
    37   21   46 1    
    38   23   24 am   BACKBONE|DICT|INTERRES
    39   23   47 1    
    40   24   25 2    
    41   24   26 am   BACKBONE|DICT|INTERRES
    42   26   27 1    
    43   26   48 1    
    44   27   32 ar   
    45   27   28 ar   
    46   28   29 ar   
    47   28   49 1    
    48   29   30 ar   
    49   29   50 1    
    50   30   31 ar   
    51   30   51 1    
    52   31   32 ar   
    53   31   33 1    
    54   32   52 1    
@<TRIPOS>SUBSTRUCTURE
     1 UNK         1 GROUP             0       ****    0 ROOT    
