ZINC09236266_4162
                    3D
 Schrodinger Suite 2024-2.
 58 62  0  0  1  0            999 V2000
   -4.9981   45.0887   23.6303 C   0  0  0  0  0  0
   -4.2237   46.2662   24.1924 C   0  0  0  0  0  0
   -3.6377   47.1881   23.3235 C   0  0  0  0  0  0
   -2.9343   48.2757   23.8325 C   0  0  0  0  0  0
   -2.8157   48.4474   25.2190 C   0  0  0  0  0  0
   -3.3829   47.5086   26.0818 C   0  0  0  0  0  0
   -4.0874   46.4213   25.5728 C   0  0  0  0  0  0
   -2.0985   49.5106   25.7953 N   0  0  0  0  0  0
   -2.0067   50.7781   25.3276 C   0  0  0  0  0  0
   -2.6621   51.1950   24.3691 O   0  0  0  0  0  0
   -1.0180   51.7569   26.0108 C   0  0  2  0  0  0
   -1.3169   52.7500   25.6745 H   0  0  0  0  0  0
    0.4602   51.4589   25.6002 C   0  0  2  0  0  0
    0.7564   50.5182   26.0687 H   0  0  0  0  0  0
    1.3214   52.5164   26.1196 N   0  0  0  0  0  0
    1.2944   52.6505   27.4964 N   0  0  0  0  0  0
    2.3153   53.1230   28.2972 C   0  0  0  0  0  0
    1.9243   53.1031   29.5512 N   0  0  0  0  0  0
    0.6286   52.5957   29.5892 N   0  0  0  0  0  0
    0.2678   52.3397   28.3575 C   0  0  0  0  0  0
   -1.2945   51.6956   27.8274 S   0  0  0  0  0  0
    3.6340   53.6864   27.8292 C   0  0  0  0  0  0
    3.7939   54.2784   26.5661 C   0  0  0  0  0  0
    5.0370   54.7361   26.1483 C   0  0  0  0  0  0
    6.1333   54.6240   26.9994 C   0  0  0  0  0  0
    5.9855   54.0757   28.2663 C   0  0  0  0  0  0
    4.7411   53.6057   28.6817 C   0  0  0  0  0  0
    0.6899   51.3082   24.0957 C   0  0  0  0  0  0
    0.5726   52.4172   23.2529 C   0  0  0  0  0  0
    0.7857   52.2795   21.8864 C   0  0  0  0  0  0
    1.1043   51.0310   21.3386 C   0  0  0  0  0  0
    1.2251   49.9219   22.1935 C   0  0  0  0  0  0
    1.0172   50.0623   23.5619 C   0  0  0  0  0  0
    1.2890   50.9163   19.8567 C   0  0  0  0  0  0
    1.1116   51.8600   19.0796 O   0  0  0  0  0  0
    1.6679   49.6782   19.4595 O   0  0  0  0  0  0
    1.9045   49.4100   18.0858 C   0  0  0  0  0  0
   -5.0742   44.2715   24.3475 H   0  0  0  0  0  0
   -4.5060   44.6926   22.7418 H   0  0  0  0  0  0
   -6.0029   45.4002   23.3462 H   0  0  0  0  0  0
   -3.7314   47.0699   22.2529 H   0  0  0  0  0  0
   -2.4792   48.9766   23.1466 H   0  0  0  0  0  0
   -3.2976   47.6251   27.1546 H   0  0  0  0  0  0
   -4.5356   45.7140   26.2548 H   0  0  0  0  0  0
   -1.6947   49.3027   26.7070 H   0  0  0  0  0  0
    2.2711   52.2690   25.8724 H   0  0  0  0  0  0
    2.9583   54.4052   25.8950 H   0  0  0  0  0  0
    5.1500   55.1857   25.1723 H   0  0  0  0  0  0
    7.0991   54.9804   26.6823 H   0  0  0  0  0  0
    6.8402   54.0045   28.9240 H   0  0  0  0  0  0
    4.6453   53.1605   29.6621 H   0  0  0  0  0  0
    0.3212   53.3877   23.6547 H   0  0  0  0  0  0
    0.7040   53.1577   21.2617 H   0  0  0  0  0  0
    1.4773   48.9414   21.8123 H   0  0  0  0  0  0
    1.1108   49.1982   24.2046 H   0  0  0  0  0  0
    2.3045   48.4045   17.9610 H   0  0  0  0  0  0
    0.9888   49.4889   17.5023 H   0  0  0  0  0  0
    2.6326   50.1158   17.6816 H   0  0  0  0  0  0
  1  2  1  0  0  0
  1 38  1  0  0  0
  1 39  1  0  0  0
  1 40  1  0  0  0
  2  7  2  0  0  0
  2  3  1  0  0  0
  3  4  2  0  0  0
  3 41  1  0  0  0
  4  5  1  0  0  0
  4 42  1  0  0  0
  5  6  2  0  0  0
  5  8  1  0  0  0
  6  7  1  0  0  0
  6 43  1  0  0  0
  7 44  1  0  0  0
  8  9  1  0  0  0
  8 45  1  0  0  0
  9 10  2  0  0  0
  9 11  1  0  0  0
 11 12  1  0  0  0
 11 21  1  0  0  0
 11 13  1  0  0  0
 13 14  1  0  0  0
 13 15  1  0  0  0
 13 28  1  0  0  0
 15 16  1  0  0  0
 15 46  1  0  0  0
 16 20  1  0  0  0
 16 17  1  0  0  0
 17 18  2  0  0  0
 17 22  1  0  0  0
 18 19  1  0  0  0
 19 20  2  0  0  0
 20 21  1  0  0  0
 22 27  2  0  0  0
 22 23  1  0  0  0
 23 24  2  0  0  0
 23 47  1  0  0  0
 24 25  1  0  0  0
 24 48  1  0  0  0
 25 26  2  0  0  0
 25 49  1  0  0  0
 26 27  1  0  0  0
 26 50  1  0  0  0
 27 51  1  0  0  0
 28 33  2  0  0  0
 28 29  1  0  0  0
 29 30  2  0  0  0
 29 52  1  0  0  0
 30 31  1  0  0  0
 30 53  1  0  0  0
 31 32  2  0  0  0
 31 34  1  0  0  0
 32 33  1  0  0  0
 32 54  1  0  0  0
 33 55  1  0  0  0
 34 35  2  0  0  0
 34 36  1  0  0  0
 36 37  1  0  0  0
 37 56  1  0  0  0
 37 57  1  0  0  0
 37 58  1  0  0  0
M  END
> <i_i_glide_confnum>
146

> <i_i_glide_lignum>
4163

> <i_i_glide_posenum>
185

> <i_i_glide_rotatable_bonds>
7

> <i_m_Source_File_Index>
3005

> <b_m_subgroup_collapsed>
0

> <r_i_docking_score>
-5.28657

> <r_i_glide_ecoul>
-4.73996

> <r_i_glide_eff_state_penalty>
0

> <r_i_glide_einternal>
4.75505

> <r_i_glide_emodel>
-60.467

> <r_i_glide_energy>
-47.3088

> <r_i_glide_erotb>
0.517018

> <r_i_glide_esite>
-0.139921

> <r_i_glide_evdw>
-42.5688

> <r_i_glide_gscore>
-5.28657

> <r_i_glide_hbond>
-0.16

> <r_i_glide_ligand_efficiency>
-0.151045

> <r_i_glide_ligand_efficiency_ln>
-1.16052

> <r_i_glide_ligand_efficiency_sa>
-0.494078

> <r_i_glide_lipo>
-1.99731

> <r_i_glide_metal>
0

> <r_i_glide_rewards>
-0.666919

> <s_i_glide_gridfile>
wee1_glide-grid

> <s_m_Source_File>
wee1_decoys_glide_SP.sdf

> <s_m_Source_Path>
/Users/zhangxujun/Desktop

> <s_m_entry_id>
3280

> <s_m_entry_name>
wee1_decoys_glide_SP.3005

> <s_m_subgroup_title>
wee1_decoys_glide_SP

> <s_m_subgroupid>
wee1_decoys_glide_SP


$$$$
