ZINC22744656_4410
                    3D
 Schrodinger Suite 2024-2.
 65 68  0  0  1  0            999 V2000
   -0.0890   53.4348   31.2773 C   0  0  0  0  0  0
    1.0445   53.7254   30.3129 C   0  0  0  0  0  0
    1.4594   55.0391   30.0781 C   0  0  0  0  0  0
    2.5728   55.2808   29.2794 C   0  0  0  0  0  0
    3.2634   54.2118   28.7003 C   0  0  0  0  0  0
    2.8163   52.9025   28.9034 C   0  0  0  0  0  0
    1.7085   52.6601   29.7065 C   0  0  0  0  0  0
    4.5296   54.4570   27.9206 C   0  0  0  0  0  0
    5.5005   54.8928   28.5384 O   0  0  0  0  0  0
    4.5628   54.1499   26.5950 N   0  0  0  0  0  0
    5.8578   54.2061   25.8937 C   0  0  0  0  0  0
    5.7003   54.7169   24.4460 C   0  0  0  0  0  0
    4.5714   54.1469   23.6978 N   0  0  0  0  0  0
    3.3190   54.2191   24.4589 C   0  0  0  0  0  0
    3.3942   53.6081   25.8740 C   0  0  0  0  0  0
    4.6024   53.9138   22.3264 C   0  0  0  0  0  0
    3.8137   52.8928   21.7768 C   0  0  0  0  0  0
    3.8899   52.5799   20.4238 C   0  0  0  0  0  0
    4.7384   53.3116   19.5983 C   0  0  0  0  0  0
    5.5081   54.3537   20.1196 C   0  0  0  0  0  0
    5.4444   54.6433   21.4791 C   0  0  0  0  0  0
    4.8835   52.8974   18.2676 N   0  0  0  0  0  0
    4.7734   53.5802   17.0886 C   0  0  0  0  0  0
    4.2446   55.1781   16.9855 S   0  0  0  0  0  0
    5.1446   52.7687   16.0464 N   0  0  0  0  0  0
    5.5046   53.0294   14.7647 C   0  0  0  0  0  0
    5.6293   54.1521   14.2696 O   0  0  0  0  0  0
    5.8455   51.8103   13.9426 C   0  0  0  0  0  0
    6.9152   51.8619   13.0380 C   0  0  0  0  0  0
    7.2783   50.7403   12.2882 C   0  0  0  0  0  0
    6.5438   49.5628   12.4129 C   0  0  0  0  0  0
    5.4538   49.4989   13.2842 C   0  0  0  0  0  0
    5.1131   50.6176   14.0601 C   0  0  0  0  0  0
    4.6809   48.2006   13.4280 C   0  0  0  0  0  0
    8.4587   50.7994   11.3315 C   0  0  0  0  0  0
    0.2880   52.8015   32.0859 H   0  0  0  0  0  0
   -0.4953   54.3415   31.7269 H   0  0  0  0  0  0
   -0.8938   52.8889   30.7813 H   0  0  0  0  0  0
    0.9517   55.8737   30.5450 H   0  0  0  0  0  0
    2.9125   56.2969   29.1447 H   0  0  0  0  0  0
    3.3424   52.0660   28.4630 H   0  0  0  0  0  0
    1.3818   51.6451   29.8812 H   0  0  0  0  0  0
    6.2398   53.1889   25.8372 H   0  0  0  0  0  0
    6.5989   54.8291   26.3970 H   0  0  0  0  0  0
    6.6320   54.5689   23.9006 H   0  0  0  0  0  0
    5.5144   55.7903   24.4818 H   0  0  0  0  0  0
    3.0919   55.2851   24.5436 H   0  0  0  0  0  0
    2.4900   53.7833   23.9064 H   0  0  0  0  0  0
    2.4438   53.8212   26.3650 H   0  0  0  0  0  0
    3.5021   52.5267   25.7704 H   0  0  0  0  0  0
    3.1650   52.3024   22.4054 H   0  0  0  0  0  0
    3.3075   51.7642   20.0205 H   0  0  0  0  0  0
    6.1827   54.9120   19.4866 H   0  0  0  0  0  0
    6.0649   55.4341   21.8699 H   0  0  0  0  0  0
    5.0909   51.9009   18.1812 H   0  0  0  0  0  0
    5.1492   51.7853   16.2751 H   0  0  0  0  0  0
    7.4887   52.7723   12.9294 H   0  0  0  0  0  0
    6.8214   48.6940   11.8356 H   0  0  0  0  0  0
    4.2781   50.5483   14.7457 H   0  0  0  0  0  0
    4.2692   48.0936   14.4340 H   0  0  0  0  0  0
    3.8649   48.1508   12.7077 H   0  0  0  0  0  0
    5.3384   47.3434   13.2748 H   0  0  0  0  0  0
    8.2073   50.3072   10.3912 H   0  0  0  0  0  0
    9.3281   50.2877   11.7552 H   0  0  0  0  0  0
    8.7293   51.8258   11.0855 H   0  0  0  0  0  0
  1  2  1  0  0  0
  1 36  1  0  0  0
  1 37  1  0  0  0
  1 38  1  0  0  0
  2  7  2  0  0  0
  2  3  1  0  0  0
  3  4  2  0  0  0
  3 39  1  0  0  0
  4  5  1  0  0  0
  4 40  1  0  0  0
  5  6  2  0  0  0
  5  8  1  0  0  0
  6  7  1  0  0  0
  6 41  1  0  0  0
  7 42  1  0  0  0
  8  9  2  0  0  0
  8 10  1  0  0  0
 10 15  1  0  0  0
 10 11  1  0  0  0
 11 12  1  0  0  0
 11 43  1  0  0  0
 11 44  1  0  0  0
 12 13  1  0  0  0
 12 45  1  0  0  0
 12 46  1  0  0  0
 13 14  1  0  0  0
 13 16  1  0  0  0
 14 15  1  0  0  0
 14 47  1  0  0  0
 14 48  1  0  0  0
 15 49  1  0  0  0
 15 50  1  0  0  0
 16 21  2  0  0  0
 16 17  1  0  0  0
 17 18  2  0  0  0
 17 51  1  0  0  0
 18 19  1  0  0  0
 18 52  1  0  0  0
 19 20  2  0  0  0
 19 22  1  0  0  0
 20 21  1  0  0  0
 20 53  1  0  0  0
 21 54  1  0  0  0
 22 23  1  0  0  0
 22 55  1  0  0  0
 23 24  2  0  0  0
 23 25  1  0  0  0
 25 26  1  0  0  0
 25 56  1  0  0  0
 26 27  2  0  0  0
 26 28  1  0  0  0
 28 33  2  0  0  0
 28 29  1  0  0  0
 29 30  2  0  0  0
 29 57  1  0  0  0
 30 31  1  0  0  0
 30 35  1  0  0  0
 31 32  2  0  0  0
 31 58  1  0  0  0
 32 33  1  0  0  0
 32 34  1  0  0  0
 33 59  1  0  0  0
 34 60  1  0  0  0
 34 61  1  0  0  0
 34 62  1  0  0  0
 35 63  1  0  0  0
 35 64  1  0  0  0
 35 65  1  0  0  0
M  END
> <i_i_glide_confnum>
6

> <i_i_glide_lignum>
4411

> <i_i_glide_posenum>
311

> <i_i_glide_rotatable_bonds>
8

> <i_m_Source_File_Index>
179

> <b_m_subgroup_collapsed>
0

> <r_i_docking_score>
-5.69336

> <r_i_glide_ecoul>
-4.0469

> <r_i_glide_eff_state_penalty>
0

> <r_i_glide_einternal>
6.36314

> <r_i_glide_emodel>
-58.9094

> <r_i_glide_energy>
-46.1716

> <r_i_glide_erotb>
0.686584

> <r_i_glide_esite>
-0.195752

> <r_i_glide_evdw>
-42.1247

> <r_i_glide_gscore>
-5.69336

> <r_i_glide_hbond>
-0.199337

> <r_i_glide_ligand_efficiency>
-0.162667

> <r_i_glide_ligand_efficiency_ln>
-1.24982

> <r_i_glide_ligand_efficiency_sa>
-0.532096

> <r_i_glide_lipo>
-2.76712

> <r_i_glide_metal>
0

> <r_i_glide_rewards>
-0.50446

> <s_i_glide_gridfile>
wee1_glide-grid

> <s_m_Source_File>
wee1_decoys_glide_SP.sdf

> <s_m_Source_Path>
/Users/zhangxujun/Desktop

> <s_m_entry_id>
454

> <s_m_entry_name>
wee1_decoys_glide_SP.179

> <s_m_subgroup_title>
wee1_decoys_glide_SP

> <s_m_subgroupid>
wee1_decoys_glide_SP


$$$$
