ZINC33781679_3317
                    3D
 Schrodinger Suite 2024-2.
 59 61  0  0  1  0            999 V2000
    3.3316   54.1250   26.2194 C   0  0  0  0  0  0
    2.0586   53.2966   26.1943 C   0  0  0  0  0  0
    1.4735   52.9459   24.9795 C   0  0  0  0  0  0
    0.3028   52.1910   24.9589 C   0  0  0  0  0  0
   -0.3169   51.7761   26.1485 C   0  0  0  0  0  0
    0.2878   52.1240   27.3745 C   0  0  0  0  0  0
    1.4634   52.8845   27.3869 C   0  0  0  0  0  0
   -0.3127   51.6978   28.7100 C   0  0  0  0  0  0
   -1.5143   51.0235   26.1678 N   0  0  0  0  0  0
   -2.2981   50.6852   24.9746 C   0  0  0  0  0  0
   -3.2282   50.2847   25.3833 H   0  0  0  0  0  0
   -2.7490   51.8804   24.0961 C   0  0  0  0  0  0
   -2.4754   51.9513   22.7719 C   0  0  0  0  0  0
   -1.7364   50.9318   22.0380 C   0  0  0  0  0  0
   -1.3977   49.7255   22.7927 C   0  0  0  0  0  0
   -1.6676   49.5730   24.1083 C   0  0  0  0  0  0
   -1.4561   48.2549   24.7313 N   0  3  0  0  0  0
   -0.4950   47.5933   24.3461 O   0  0  0  0  0  0
   -2.2962   47.8885   25.5428 O   0  5  0  0  0  0
   -1.4241   51.1074   20.7244 C   0  0  0  0  0  0
   -1.7122   52.0966   19.9417 O   0  5  0  0  0  0
   -0.6850   50.1706   19.9968 N   0  0  0  0  0  0
    0.7052   50.3511   20.0235 C   0  0  0  0  0  0
    1.5350   49.4326   19.4973 C   0  0  0  0  0  0
    1.0526   48.1835   18.9674 C   0  0  0  0  0  0
    1.8730   47.2972   18.7193 O   0  0  0  0  0  0
   -0.3282   48.0857   18.8557 N   0  0  0  0  0  0
   -1.2403   49.0481   19.3496 C   0  0  0  0  0  0
   -2.9304   48.8699   19.2244 S   0  0  0  0  0  0
   -0.8109   46.7969   18.2227 C   0  0  0  0  0  0
   -0.3910   46.6038   16.7432 C   0  0  0  0  0  0
   -0.6013   45.5346   19.0964 C   0  0  0  0  0  0
    1.3113   51.6308   20.6226 C   0  0  0  0  0  0
   -3.5372   52.9629   24.7306 N   0  3  0  0  0  0
   -3.6957   54.0052   24.0945 O   0  0  0  0  0  0
   -3.9948   52.7532   25.8495 O   0  5  0  0  0  0
    3.3440   54.7897   27.0854 H   0  0  0  0  0  0
    4.2078   53.4766   26.2609 H   0  0  0  0  0  0
    3.4053   54.7600   25.3350 H   0  0  0  0  0  0
    1.9259   53.2527   24.0471 H   0  0  0  0  0  0
   -0.1001   51.9248   23.9986 H   0  0  0  0  0  0
    1.9205   53.1553   28.3272 H   0  0  0  0  0  0
    0.2776   52.0238   29.5671 H   0  0  0  0  0  0
   -1.3221   52.0935   28.8171 H   0  0  0  0  0  0
   -0.3889   50.6125   28.7489 H   0  0  0  0  0  0
   -1.3980   50.2260   26.7850 H   0  0  0  0  0  0
   -2.8312   52.8048   22.2132 H   0  0  0  0  0  0
   -0.9846   48.8797   22.2596 H   0  0  0  0  0  0
    2.6059   49.5908   19.4885 H   0  0  0  0  0  0
   -1.8918   46.8031   18.1126 H   0  0  0  0  0  0
   -0.7628   45.6527   16.3603 H   0  0  0  0  0  0
   -0.8170   47.3832   16.1093 H   0  0  0  0  0  0
    0.6905   46.5917   16.5991 H   0  0  0  0  0  0
   -1.0066   44.6518   18.5979 H   0  0  0  0  0  0
    0.4515   45.3174   19.2799 H   0  0  0  0  0  0
   -1.1193   45.6256   20.0544 H   0  0  0  0  0  0
    2.4009   51.6335   20.5559 H   0  0  0  0  0  0
    1.0605   51.7298   21.6780 H   0  0  0  0  0  0
    0.9602   52.5188   20.0948 H   0  0  0  0  0  0
  1  2  1  0  0  0
  1 37  1  0  0  0
  1 38  1  0  0  0
  1 39  1  0  0  0
  2  7  2  0  0  0
  2  3  1  0  0  0
  3  4  2  0  0  0
  3 40  1  0  0  0
  4  5  1  0  0  0
  4 41  1  0  0  0
  5  6  2  0  0  0
  5  9  1  0  0  0
  6  7  1  0  0  0
  6  8  1  0  0  0
  7 42  1  0  0  0
  8 43  1  0  0  0
  8 44  1  0  0  0
  8 45  1  0  0  0
  9 10  1  0  0  0
  9 46  1  0  0  0
 10 11  1  0  0  0
 10 16  1  0  0  0
 10 12  1  0  0  0
 12 13  2  0  0  0
 12 34  1  0  0  0
 13 14  1  0  0  0
 13 47  1  0  0  0
 14 15  1  0  0  0
 14 20  2  0  0  0
 15 16  2  0  0  0
 15 48  1  0  0  0
 16 17  1  0  0  0
 17 18  2  0  0  0
 17 19  1  0  0  0
 20 21  1  0  0  0
 20 22  1  0  0  0
 22 28  1  0  0  0
 22 23  1  0  0  0
 23 24  2  0  0  0
 23 33  1  0  0  0
 24 25  1  0  0  0
 24 49  1  0  0  0
 25 26  2  0  0  0
 25 27  1  0  0  0
 27 28  1  0  0  0
 27 30  1  0  0  0
 28 29  2  0  0  0
 30 31  1  0  0  0
 30 32  1  0  0  0
 30 50  1  0  0  0
 31 51  1  0  0  0
 31 52  1  0  0  0
 31 53  1  0  0  0
 32 54  1  0  0  0
 32 55  1  0  0  0
 32 56  1  0  0  0
 33 57  1  0  0  0
 33 58  1  0  0  0
 33 59  1  0  0  0
 34 35  2  0  0  0
 34 36  1  0  0  0
M  CHG  5  17   1  19  -1  21  -1  34   1  36  -1
M  END
> <i_i_glide_confnum>
4

> <i_i_glide_lignum>
3318

> <i_i_glide_posenum>
383

> <i_i_glide_rotatable_bonds>
6

> <i_m_Source_File_Index>
1150

> <b_m_subgroup_collapsed>
0

> <r_i_docking_score>
-2.73205

> <r_i_glide_ecoul>
0.663467

> <r_i_glide_eff_state_penalty>
0

> <r_i_glide_einternal>
2.11637

> <r_i_glide_emodel>
-38.5135

> <r_i_glide_energy>
-33.0261

> <r_i_glide_erotb>
0.246324

> <r_i_glide_esite>
-0.2658

> <r_i_glide_evdw>
-33.6896

> <r_i_glide_gscore>
-2.73205

> <r_i_glide_hbond>
-0.0924205

> <r_i_glide_ligand_efficiency>
-0.0780585

> <r_i_glide_ligand_efficiency_ln>
-0.599745

> <r_i_glide_ligand_efficiency_sa>
-0.255335

> <r_i_glide_lipo>
-0.858829

> <r_i_glide_metal>
0

> <r_i_glide_rewards>
-0.176364

> <s_i_glide_gridfile>
wee1_glide-grid

> <s_m_Source_File>
wee1_decoys_glide_SP.sdf

> <s_m_Source_Path>
/Users/zhangxujun/Desktop

> <s_m_entry_id>
1425

> <s_m_entry_name>
wee1_decoys_glide_SP.1150

> <s_m_subgroup_title>
wee1_decoys_glide_SP

> <s_m_subgroupid>
wee1_decoys_glide_SP


$$$$
