ZINC23590743_3622
                    3D
 Schrodinger Suite 2024-2.
 55 59  0  0  1  0            999 V2000
   -1.0837   49.8150   23.2283 C   0  0  0  0  0  0
   -1.3956   51.1257   22.4745 C   0  0  2  0  0  0
   -2.4796   51.1555   22.3469 H   0  0  0  0  0  0
   -0.8025   51.1923   21.0492 C   0  0  0  0  0  0
    0.7430   51.1221   21.0555 C   0  0  0  0  0  0
    1.2876   52.1093   22.0900 C   0  0  0  0  0  0
    0.4824   52.6588   23.0942 C   0  0  0  0  0  0
    1.3248   53.7891   24.1184 S   0  0  0  0  0  0
    2.8072   53.5043   23.2590 C   0  0  0  0  0  0
    2.6481   52.5586   22.2070 C   0  0  0  0  0  0
    3.8409   52.2586   21.5057 C   0  0  0  0  0  0
    5.0271   52.8303   21.8345 N   0  0  0  0  0  0
    5.0305   53.6979   22.8749 C   0  0  0  0  0  0
    3.9547   54.0954   23.5979 N   0  0  0  0  0  0
    6.6154   54.3119   23.3643 S   0  0  0  0  0  0
    6.4180   55.3973   24.8152 C   0  0  0  0  0  0
    6.1557   54.6693   26.1398 C   0  0  0  0  0  0
    7.1043   54.4194   26.8818 O   0  0  0  0  0  0
    4.8627   54.4110   26.4178 N   0  0  0  0  0  0
    4.2763   53.8093   27.5440 C   0  0  0  0  0  0
    4.9790   53.1813   28.5806 C   0  0  0  0  0  0
    4.2858   52.5942   29.6415 C   0  0  0  0  0  0
    2.8947   52.6255   29.6999 C   0  0  0  0  0  0
    2.1757   53.2473   28.6492 C   0  0  0  0  0  0
    2.8823   53.8261   27.5933 C   0  0  0  0  0  0
    0.8010   53.2611   28.5432 O   0  0  0  0  0  0
    0.0888   52.1363   29.0443 C   0  0  0  0  0  0
   -0.1259   52.2405   30.5543 C   0  0  0  0  0  0
    1.1172   52.6770   31.3274 C   0  0  0  0  0  0
    2.3191   52.0965   30.8365 O   0  0  0  0  0  0
    3.8693   51.3321   20.4662 N   0  0  0  0  0  0
   -1.0100   52.3953   23.2714 C   0  0  0  0  0  0
   -0.0219   49.7270   23.4625 H   0  0  0  0  0  0
   -1.6306   49.7618   24.1711 H   0  0  0  0  0  0
   -1.3661   48.9427   22.6367 H   0  0  0  0  0  0
   -1.1773   50.3617   20.4501 H   0  0  0  0  0  0
   -1.1223   52.1095   20.5530 H   0  0  0  0  0  0
    1.1070   51.3542   20.0528 H   0  0  0  0  0  0
    1.0815   50.1104   21.2828 H   0  0  0  0  0  0
    5.6170   56.1069   24.6274 H   0  0  0  0  0  0
    7.3315   55.9848   24.9044 H   0  0  0  0  0  0
    4.2077   54.6556   25.6880 H   0  0  0  0  0  0
    6.0543   53.1242   28.5794 H   0  0  0  0  0  0
    4.8306   52.0973   30.4268 H   0  0  0  0  0  0
    2.3193   54.2870   26.7984 H   0  0  0  0  0  0
   -0.8804   52.0955   28.5440 H   0  0  0  0  0  0
    0.5828   51.2024   28.7697 H   0  0  0  0  0  0
   -0.8957   52.9759   30.7577 H   0  0  0  0  0  0
   -0.5135   51.2978   30.9394 H   0  0  0  0  0  0
    1.2000   53.7652   31.3255 H   0  0  0  0  0  0
    1.0081   52.4033   32.3770 H   0  0  0  0  0  0
    3.0067   50.9143   20.1560 H   0  0  0  0  0  0
    4.7044   51.2193   19.8942 H   0  0  0  0  0  0
   -1.2496   52.2618   24.3282 H   0  0  0  0  0  0
   -1.5995   53.2546   22.9373 H   0  0  0  0  0  0
  1  2  1  0  0  0
  1 33  1  0  0  0
  1 34  1  0  0  0
  1 35  1  0  0  0
  2  3  1  0  0  0
  2 32  1  0  0  0
  2  4  1  0  0  0
  4  5  1  0  0  0
  4 36  1  0  0  0
  4 37  1  0  0  0
  5  6  1  0  0  0
  5 38  1  0  0  0
  5 39  1  0  0  0
  6 10  1  0  0  0
  6  7  2  0  0  0
  7  8  1  0  0  0
  7 32  1  0  0  0
  8  9  1  0  0  0
  9 14  2  0  0  0
  9 10  1  0  0  0
 10 11  2  0  0  0
 11 12  1  0  0  0
 11 31  1  0  0  0
 12 13  2  0  0  0
 13 14  1  0  0  0
 13 15  1  0  0  0
 15 16  1  0  0  0
 16 17  1  0  0  0
 16 40  1  0  0  0
 16 41  1  0  0  0
 17 18  2  0  0  0
 17 19  1  0  0  0
 19 20  1  0  0  0
 19 42  1  0  0  0
 20 25  2  0  0  0
 20 21  1  0  0  0
 21 22  2  0  0  0
 21 43  1  0  0  0
 22 23  1  0  0  0
 22 44  1  0  0  0
 23 30  1  0  0  0
 23 24  2  0  0  0
 24 25  1  0  0  0
 24 26  1  0  0  0
 25 45  1  0  0  0
 26 27  1  0  0  0
 27 28  1  0  0  0
 27 46  1  0  0  0
 27 47  1  0  0  0
 28 29  1  0  0  0
 28 48  1  0  0  0
 28 49  1  0  0  0
 29 30  1  0  0  0
 29 50  1  0  0  0
 29 51  1  0  0  0
 31 52  1  0  0  0
 31 53  1  0  0  0
 32 54  1  0  0  0
 32 55  1  0  0  0
M  END
> <i_i_glide_confnum>
154

> <i_i_glide_lignum>
3623

> <i_i_glide_posenum>
388

> <i_i_glide_rotatable_bonds>
5

> <i_m_Source_File_Index>
2592

> <b_m_subgroup_collapsed>
0

> <r_i_docking_score>
-7.06054

> <r_i_glide_ecoul>
-3.58189

> <r_i_glide_eff_state_penalty>
0

> <r_i_glide_einternal>
1.59594

> <r_i_glide_emodel>
-75.269

> <r_i_glide_energy>
-54.8167

> <r_i_glide_erotb>
0.385635

> <r_i_glide_esite>
-0.058588

> <r_i_glide_evdw>
-51.2348

> <r_i_glide_gscore>
-7.06054

> <r_i_glide_hbond>
-0.579026

> <r_i_glide_ligand_efficiency>
-0.227759

> <r_i_glide_ligand_efficiency_ln>
-1.59237

> <r_i_glide_ligand_efficiency_sa>
-0.715479

> <r_i_glide_lipo>
-2.64667

> <r_i_glide_metal>
0

> <r_i_glide_rewards>
-1.06287

> <s_i_glide_gridfile>
wee1_glide-grid

> <s_m_Source_File>
wee1_decoys_glide_SP.sdf

> <s_m_Source_Path>
/Users/zhangxujun/Desktop

> <s_m_entry_id>
2867

> <s_m_entry_name>
wee1_decoys_glide_SP.2592

> <s_m_subgroup_title>
wee1_decoys_glide_SP

> <s_m_subgroupid>
wee1_decoys_glide_SP


$$$$
