@<TRIPOS>MOLECULE
ZINC20106298_935
68   73    1
SMALL
USER_CHARGES


@<TRIPOS>ATOM
      1 C1          1.8689   54.8438   29.6203 C.3       1 UNK         0.0000 
      2 O2          2.2229   54.7106   28.2505 O.3       1 UNK         0.0000 
      3 C3          3.5447   54.4972   27.9143 C.ar      1 UNK         0.0000 
      4 C4          4.5980   54.3770   28.8340 C.ar      1 UNK         0.0000 
      5 C5          5.9045   54.1746   28.3870 C.ar      1 UNK         0.0000 
      6 C6          6.1745   54.1004   27.0240 C.ar      1 UNK         0.0000 
      7 C7          5.1447   54.2217   26.0892 C.ar      1 UNK         0.0000 
      8 C8          3.8309   54.4155   26.5504 C.ar      1 UNK         0.0000 
      9 N9          5.5183   54.0967   24.7372 N.am      1 UNK         0.0000 
     10 C10         4.7491   54.0965   23.6283 C.2       1 UNK         0.0000 
     11 O11         3.5513   54.3806   23.6078 O.2       1 UNK         0.0000 
     12 C12         5.4690   53.6865   22.3207 C.3       1 UNK         0.0000 
     13 H13         6.5450   53.6952   22.5030 H         1 UNK         0.0000 
     14 C14         5.0248   52.2770   21.8077 C.3       1 UNK         0.0000 
     15 H15         5.5047   51.4241   22.2849 H         1 UNK         0.0000 
     16 C16         3.5283   52.1456   21.5318 C.2       1 UNK         0.0000 
     17 C17         3.2948   52.8960   20.4433 C.2       1 UNK         0.0000 
     18 C18         4.6416   53.5233   20.1266 C.3       1 UNK         0.0000 
     19 C19         5.0996   54.5810   21.1080 C.3       1 UNK         0.0000 
     20 H20         4.3089   55.2962   21.3180 H         1 UNK         0.0000 
     21 C21         6.2622   55.2973   20.4063 C.2       1 UNK         0.0000 
     22 O22         7.0829   56.0265   20.9659 O.2       1 UNK         0.0000 
     23 N23         6.1907   54.9267   19.0949 N.am      1 UNK         0.0000 
     24 C24         5.0694   54.0224   18.7539 C.3       1 UNK         0.0000 
     25 H25         5.3993   53.1903   18.1310 H         1 UNK         0.0000 
     26 C26         3.9193   54.7337   17.9954 C.2       1 UNK         0.0000 
     27 O27         3.8710   55.9626   17.9154 O.2       1 UNK         0.0000 
     28 N28         3.0002   53.9283   17.4364 N.am      1 UNK         0.0000 
     29 C29         1.8135   54.3654   16.6962 C.3       1 UNK         0.0000 
     30 C30         1.9963   54.1624   15.1713 C.3       1 UNK         0.0000 
     31 C31         2.1532   52.6751   14.7810 C.3       1 UNK         0.0000 
     32 C32         0.9714   51.8274   15.2923 C.3       1 UNK         0.0000 
     33 C33         0.6873   52.0479   16.7906 C.3       1 UNK         0.0000 
     34 C34         0.5686   53.5529   17.1283 C.3       1 UNK         0.0000 
     35 C35         7.2518   55.1777   18.1086 C.3       1 UNK         0.0000 
     36 C36         7.7955   56.5911   18.0786 C.2       1 UNK         0.0000 
     37 C37         9.1104   57.0263   18.2231 C.2       1 UNK         0.0000 
     38 C38         9.2792   58.4054   18.0823 C.2       1 UNK         0.0000 
     39 C39         8.0838   59.0575   17.8395 C.2       1 UNK         0.0000 
     40 S40         6.7512   57.9571   17.7842 S.3       1 UNK         0.0000 
     41 O41         5.4716   52.4377   20.4874 O.3       1 UNK         0.0000 
     42 H42         0.7962   55.0177   29.6977 H         1 UNK         0.0000 
     43 H43         2.0967   53.9368   30.1807 H         1 UNK         0.0000 
     44 H44         2.3726   55.6945   30.0823 H         1 UNK         0.0000 
     45 H45         4.4244   54.4462   29.8953 H         1 UNK         0.0000 
     46 H46         6.7117   54.0903   29.1014 H         1 UNK         0.0000 
     47 H47         7.1931   53.9354   26.7069 H         1 UNK         0.0000 
     48 H48         2.9984   54.5000   25.8717 H         1 UNK         0.0000 
     49 H49         6.4989   53.9113   24.5988 H         1 UNK         0.0000 
     50 H50         2.8361   51.5741   22.1318 H         1 UNK         0.0000 
     51 H51         2.3603   53.1128   19.9465 H         1 UNK         0.0000 
     52 H52         3.1633   52.9325   17.4613 H         1 UNK         0.0000 
     53 H53         1.6203   55.4220   16.8973 H         1 UNK         0.0000 
     54 H54         1.1433   54.5915   14.6434 H         1 UNK         0.0000 
     55 H55         2.8653   54.7285   14.8293 H         1 UNK         0.0000 
     56 H56         2.2369   52.5821   13.6993 H         1 UNK         0.0000 
     57 H57         3.0875   52.2815   15.1883 H         1 UNK         0.0000 
     58 H58         0.0773   52.0791   14.7192 H         1 UNK         0.0000 
     59 H59         1.1638   50.7704   15.1035 H         1 UNK         0.0000 
     60 H60        -0.2267   51.5291   17.0780 H         1 UNK         0.0000 
     61 H61         1.4857   51.5965   17.3844 H         1 UNK         0.0000 
     62 H62         0.4014   53.6807   18.1993 H         1 UNK         0.0000 
     63 H63        -0.3201   53.9642   16.6455 H         1 UNK         0.0000 
     64 H64         8.0391   54.4349   18.2463 H         1 UNK         0.0000 
     65 H65         6.8306   54.9701   17.1240 H         1 UNK         0.0000 
     66 H66         9.9321   56.3519   18.4189 H         1 UNK         0.0000 
     67 H67        10.2348   58.9049   18.1556 H         1 UNK         0.0000 
     68 H68         7.9046   60.1110   17.6829 H         1 UNK         0.0000 
@<TRIPOS>BOND
     1    1    2 1    
     2    1   42 1    
     3    1   43 1    
     4    1   44 1    
     5    2    3 1    
     6    3    8 ar   
     7    3    4 ar   
     8    4    5 ar   
     9    4   45 1    
    10    5    6 ar   
    11    5   46 1    
    12    6    7 ar   
    13    6   47 1    
    14    7    8 ar   
    15    7    9 1    
    16    8   48 1    
    17    9   10 am   BACKBONE|DICT|INTERRES
    18    9   49 1    
    19   10   11 2    
    20   10   12 1    
    21   12   13 1    
    22   12   19 1    
    23   12   14 1    
    24   14   15 1    
    25   14   41 1    
    26   14   16 1    
    27   16   17 2    
    28   16   50 1    
    29   17   18 1    
    30   17   51 1    
    31   18   24 1    
    32   18   19 1    
    33   18   41 1    
    34   19   20 1    
    35   19   21 1    
    36   21   22 2    
    37   21   23 am   BACKBONE|DICT|INTERRES
    38   23   24 1    
    39   23   35 1    
    40   24   25 1    
    41   24   26 1    
    42   26   27 2    
    43   26   28 am   BACKBONE|DICT|INTERRES
    44   28   29 1    
    45   28   52 1    
    46   29   34 1    
    47   29   30 1    
    48   29   53 1    
    49   30   31 1    
    50   30   54 1    
    51   30   55 1    
    52   31   32 1    
    53   31   56 1    
    54   31   57 1    
    55   32   33 1    
    56   32   58 1    
    57   32   59 1    
    58   33   34 1    
    59   33   60 1    
    60   33   61 1    
    61   34   62 1    
    62   34   63 1    
    63   35   36 1    
    64   35   64 1    
    65   35   65 1    
    66   36   40 1    
    67   36   37 2    
    68   37   38 1    
    69   37   66 1    
    70   38   39 2    
    71   38   67 1    
    72   39   40 1    
    73   39   68 1    
@<TRIPOS>SUBSTRUCTURE
     1 UNK         1 GROUP             0       ****    0 ROOT    
