@<TRIPOS>MOLECULE
ZINC37525355_4290
65   67    1
SMALL
USER_CHARGES


@<TRIPOS>ATOM
      1 C1          2.2438   53.7932   22.0830 C.3       1 UNK         0.0000 
      2 C2          3.3281   53.3590   23.0855 C.3       1 UNK         0.0000 
      3 H3          3.4968   52.3119   22.8504 H         1 UNK         0.0000 
      4 C4          4.6819   54.0526   22.8187 C.ar      1 UNK         0.0000 
      5 C5          5.5026   54.4920   23.8711 C.ar      1 UNK         0.0000 
      6 C6          6.7050   55.1376   23.6043 C.ar      1 UNK         0.0000 
      7 C7          7.0979   55.3517   22.2869 C.ar      1 UNK         0.0000 
      8 C8          6.3109   54.9127   21.2325 C.ar      1 UNK         0.0000 
      9 C9          5.1200   54.2498   21.4979 C.ar      1 UNK         0.0000 
     10 N10         2.9040   53.4105   24.5030 N.am      1 UNK         0.0000 
     11 C11         1.6611   53.3510   25.0181 C.2       1 UNK         0.0000 
     12 O12         0.6280   53.3830   24.3505 O.2       1 UNK         0.0000 
     13 C13         1.5678   53.1953   26.5173 C.ar      1 UNK         0.0000 
     14 C14         2.2639   54.0757   27.3596 C.ar      1 UNK         0.0000 
     15 C15         2.0933   54.0168   28.7421 C.ar      1 UNK         0.0000 
     16 C16         1.2292   53.0770   29.3012 C.ar      1 UNK         0.0000 
     17 C17         0.5440   52.1862   28.4769 C.ar      1 UNK         0.0000 
     18 C18         0.7052   52.2298   27.0857 C.ar      1 UNK         0.0000 
     19 N19         0.0926   51.2737   26.2862 N.pl3     1 UNK         0.0000 
     20 C20        -1.3476   51.3316   25.9876 C.3       1 UNK         0.0000 
     21 C21        -1.6880   50.5150   24.7104 C.3       1 UNK         0.0000 
     22 C22        -1.1911   49.0456   24.7329 C.3       1 UNK         0.0000 
     23 C23         0.2891   49.0896   25.1603 C.3       1 UNK         0.0000 
     24 C24         0.4834   49.8802   26.4746 C.3       1 UNK         0.0000 
     25 N25        -1.9362   48.2198   25.6823 N.am      1 UNK         0.0000 
     26 C26        -2.9670   47.4044   25.4334 C.2       1 UNK         0.0000 
     27 O27        -3.2547   46.9569   24.3214 O.2       1 UNK         0.0000 
     28 N28        -3.6455   47.1607   26.5673 N.am      1 UNK         0.0000 
     29 C29        -4.8627   46.3658   26.7694 C.3       1 UNK         0.0000 
     30 C30        -5.1957   46.4163   28.2738 C.3       1 UNK         0.0000 
     31 C31        -4.6398   44.8897   26.3704 C.3       1 UNK         0.0000 
     32 C32        -6.0531   46.9533   25.9783 C.3       1 UNK         0.0000 
     33 H33         2.5689   53.6903   21.0527 H         1 UNK         0.0000 
     34 H34         1.3578   53.1629   22.1201 H         1 UNK         0.0000 
     35 H35         1.9470   54.8247   22.2650 H         1 UNK         0.0000 
     36 H36         5.2235   54.3472   24.9028 H         1 UNK         0.0000 
     37 H37         7.3325   55.4762   24.4152 H         1 UNK         0.0000 
     38 H38         8.0322   55.8532   22.0808 H         1 UNK         0.0000 
     39 H39         6.6305   55.0663   20.2123 H         1 UNK         0.0000 
     40 H40         4.5592   53.8944   20.6484 H         1 UNK         0.0000 
     41 H41         3.6535   53.2916   25.1666 H         1 UNK         0.0000 
     42 H42         2.9207   54.8318   26.9491 H         1 UNK         0.0000 
     43 H43         2.6237   54.7103   29.3782 H         1 UNK         0.0000 
     44 H44         1.0925   53.0334   30.3716 H         1 UNK         0.0000 
     45 H45        -0.1069   51.4449   28.9208 H         1 UNK         0.0000 
     46 H46        -1.6197   52.3742   25.8147 H         1 UNK         0.0000 
     47 H47        -1.9249   50.9879   26.8480 H         1 UNK         0.0000 
     48 H48        -1.3002   51.0390   23.8359 H         1 UNK         0.0000 
     49 H49        -2.7696   50.5218   24.5675 H         1 UNK         0.0000 
     50 H50        -1.2663   48.6046   23.7361 H         1 UNK         0.0000 
     51 H51         0.6799   48.0801   25.2794 H         1 UNK         0.0000 
     52 H52         0.8951   49.5373   24.3703 H         1 UNK         0.0000 
     53 H53         1.5014   49.7749   26.8435 H         1 UNK         0.0000 
     54 H54        -0.1580   49.5438   27.2780 H         1 UNK         0.0000 
     55 H55        -1.6902   48.3545   26.6633 H         1 UNK         0.0000 
     56 H56        -3.2197   47.5200   27.4127 H         1 UNK         0.0000 
     57 H57        -6.0849   45.8303   28.5068 H         1 UNK         0.0000 
     58 H58        -5.3811   47.4363   28.6118 H         1 UNK         0.0000 
     59 H59        -4.3739   46.0231   28.8743 H         1 UNK         0.0000 
     60 H60        -4.4943   44.7808   25.2968 H         1 UNK         0.0000 
     61 H61        -3.7657   44.4753   26.8730 H         1 UNK         0.0000 
     62 H62        -5.4940   44.2695   26.6387 H         1 UNK         0.0000 
     63 H63        -5.8816   46.9261   24.9015 H         1 UNK         0.0000 
     64 H64        -6.9735   46.4013   26.1720 H         1 UNK         0.0000 
     65 H65        -6.2315   47.9951   26.2525 H         1 UNK         0.0000 
@<TRIPOS>BOND
     1    1    2 1    
     2    1   33 1    
     3    1   34 1    
     4    1   35 1    
     5    2    3 1    
     6    2    4 1    
     7    2   10 1    
     8    4    9 ar   
     9    4    5 ar   
    10    5    6 ar   
    11    5   36 1    
    12    6    7 ar   
    13    6   37 1    
    14    7    8 ar   
    15    7   38 1    
    16    8    9 ar   
    17    8   39 1    
    18    9   40 1    
    19   10   11 am   BACKBONE|DICT|INTERRES
    20   10   41 1    
    21   11   12 2    
    22   11   13 1    
    23   13   18 ar   
    24   13   14 ar   
    25   14   15 ar   
    26   14   42 1    
    27   15   16 ar   
    28   15   43 1    
    29   16   17 ar   
    30   16   44 1    
    31   17   18 ar   
    32   17   45 1    
    33   18   19 1    
    34   19   24 1    
    35   19   20 1    
    36   20   21 1    
    37   20   46 1    
    38   20   47 1    
    39   21   22 1    
    40   21   48 1    
    41   21   49 1    
    42   22   23 1    
    43   22   25 1    
    44   22   50 1    
    45   23   24 1    
    46   23   51 1    
    47   23   52 1    
    48   24   53 1    
    49   24   54 1    
    50   25   26 am   BACKBONE|DICT|INTERRES
    51   25   55 1    
    52   26   27 2    
    53   26   28 am   BACKBONE|DICT|INTERRES
    54   28   29 1    
    55   28   56 1    
    56   29   30 1    
    57   29   31 1    
    58   29   32 1    
    59   30   57 1    
    60   30   58 1    
    61   30   59 1    
    62   31   60 1    
    63   31   61 1    
    64   31   62 1    
    65   32   63 1    
    66   32   64 1    
    67   32   65 1    
@<TRIPOS>SUBSTRUCTURE
     1 UNK         1 GROUP             0       ****    0 ROOT    
