ZINC35513904_507
                    3D
 Schrodinger Suite 2024-2.
 56 58  0  0  1  0            999 V2000
    3.8325   54.4352   28.2512 C   0  0  0  0  0  0
    3.9402   54.6544   26.7306 C   0  0  0  0  0  0
    5.3040   54.3050   26.0962 C   0  0  2  0  0  0
    5.4360   53.2277   26.2224 H   0  0  0  0  0  0
    6.5220   54.9953   26.7564 C   0  0  0  0  0  0
    5.2298   54.5475   24.6549 N   0  0  0  0  0  0
    6.1443   54.1973   23.7395 C   0  0  0  0  0  0
    7.2254   53.6965   24.0192 O   0  0  0  0  0  0
    5.8082   54.5156   22.3119 C   0  0  0  0  0  0
    6.5537   55.5109   21.6697 C   0  0  0  0  0  0
    6.3355   55.8381   20.3313 C   0  0  0  0  0  0
    5.3441   55.0967   19.6711 C   0  0  0  0  0  0
    4.6212   54.1088   20.2492 N   0  0  0  0  0  0
    4.8505   53.8068   21.5535 C   0  0  0  0  0  0
    4.0531   52.7981   22.0814 N   0  0  0  0  0  0
    2.9313   53.1353   22.9801 C   0  0  0  0  0  0
    1.5049   52.9377   22.4110 C   0  0  0  0  0  0
    1.3833   51.6019   21.6620 N   0  3  0  0  0  0
    2.4901   51.4808   20.6081 C   0  0  0  0  0  0
    3.8368   51.5435   21.3419 C   0  0  0  0  0  0
    7.1040   56.8385   19.7903 N   0  5  0  0  0  0
    7.2146   57.1334   18.2504 S   0  0  0  0  0  0
    8.2679   58.1045   17.9378 O   0  0  0  0  0  0
    5.9188   57.2970   17.5826 O   0  0  0  0  0  0
    7.8792   55.5636   17.6602 C   0  0  0  0  0  0
    9.1470   55.1532   18.0788 C   0  0  0  0  0  0
    9.6396   53.9137   17.6814 C   0  0  0  0  0  0
    8.8607   53.0810   16.8824 C   0  0  0  0  0  0
    7.6066   53.4936   16.4443 C   0  0  0  0  0  0
    7.1184   54.7403   16.8242 C   0  0  0  0  0  0
    9.5048   51.3565   16.4006 Br  0  0  0  0  0  0
    2.8056   54.5774   28.5861 H   0  0  0  0  0  0
    4.1342   53.4244   28.5307 H   0  0  0  0  0  0
    4.4487   55.1372   28.8117 H   0  0  0  0  0  0
    3.6735   55.6826   26.4815 H   0  0  0  0  0  0
    3.1714   54.0412   26.2551 H   0  0  0  0  0  0
    6.4784   54.9400   27.8421 H   0  0  0  0  0  0
    7.4518   54.4983   26.4830 H   0  0  0  0  0  0
    6.6007   56.0461   26.4813 H   0  0  0  0  0  0
    4.3864   54.9850   24.3246 H   0  0  0  0  0  0
    7.3245   56.0362   22.2167 H   0  0  0  0  0  0
    5.0827   55.2913   18.6438 H   0  0  0  0  0  0
    3.0610   52.4966   23.8513 H   0  0  0  0  0  0
    3.0127   54.1634   23.3275 H   0  0  0  0  0  0
    1.2419   53.6968   21.6808 H   0  0  0  0  0  0
    0.7449   52.9057   23.1928 H   0  0  0  0  0  0
    0.4770   51.5275   21.2210 H   0  0  0  0  0  0
    2.3564   52.2877   19.8830 H   0  0  0  0  0  0
    2.3387   50.5225   20.1072 H   0  0  0  0  0  0
    4.6464   51.3877   20.6244 H   0  0  0  0  0  0
    3.8923   50.7336   22.0694 H   0  0  0  0  0  0
    9.7380   55.7856   18.7262 H   0  0  0  0  0  0
   10.6090   53.5844   18.0206 H   0  0  0  0  0  0
    7.0092   52.8424   15.8248 H   0  0  0  0  0  0
    6.1397   55.0517   16.4893 H   0  0  0  0  0  0
    1.4660   50.8371   22.3168 H   0  0  0  0  0  0
  1  2  1  0  0  0
  1 32  1  0  0  0
  1 33  1  0  0  0
  1 34  1  0  0  0
  2  3  1  0  0  0
  2 35  1  0  0  0
  2 36  1  0  0  0
  3  4  1  0  0  0
  3  5  1  0  0  0
  3  6  1  0  0  0
  5 37  1  0  0  0
  5 38  1  0  0  0
  5 39  1  0  0  0
  6  7  1  0  0  0
  6 40  1  0  0  0
  7  8  2  0  0  0
  7  9  1  0  0  0
  9 14  2  0  0  0
  9 10  1  0  0  0
 10 11  2  0  0  0
 10 41  1  0  0  0
 11 12  1  0  0  0
 11 21  1  0  0  0
 12 13  2  0  0  0
 12 42  1  0  0  0
 13 14  1  0  0  0
 14 15  1  0  0  0
 15 20  1  0  0  0
 15 16  1  0  0  0
 16 17  1  0  0  0
 16 43  1  0  0  0
 16 44  1  0  0  0
 17 18  1  0  0  0
 17 45  1  0  0  0
 17 46  1  0  0  0
 18 19  1  0  0  0
 18 47  1  0  0  0
 18 56  1  0  0  0
 19 20  1  0  0  0
 19 48  1  0  0  0
 19 49  1  0  0  0
 20 50  1  0  0  0
 20 51  1  0  0  0
 21 22  1  0  0  0
 22 23  2  0  0  0
 22 24  2  0  0  0
 22 25  1  0  0  0
 25 30  2  0  0  0
 25 26  1  0  0  0
 26 27  2  0  0  0
 26 52  1  0  0  0
 27 28  1  0  0  0
 27 53  1  0  0  0
 28 29  2  0  0  0
 28 31  1  0  0  0
 29 30  1  0  0  0
 29 54  1  0  0  0
 30 55  1  0  0  0
M  CHG  2  18   1  21  -1
M  END
> <i_i_glide_confnum>
20

> <i_i_glide_lignum>
508

> <i_i_glide_posenum>
46

> <i_i_glide_rotatable_bonds>
8

> <i_m_Source_File_Index>
5921

> <b_m_subgroup_collapsed>
0

> <r_i_docking_score>
-3.83859

> <r_i_glide_ecoul>
-0.0689695

> <r_i_glide_eff_state_penalty>
0

> <r_i_glide_einternal>
14.3691

> <r_i_glide_emodel>
-41.3122

> <r_i_glide_energy>
-38.7508

> <r_i_glide_erotb>
0.579241

> <r_i_glide_esite>
-0.0165925

> <r_i_glide_evdw>
-38.6818

> <r_i_glide_gscore>
-3.83859

> <r_i_glide_hbond>
-0.124592

> <r_i_glide_ligand_efficiency>
-0.127953

> <r_i_glide_ligand_efficiency_ln>
-0.87217

> <r_i_glide_ligand_efficiency_sa>
-0.39758

> <r_i_glide_lipo>
-2.42939

> <r_i_glide_metal>
0

> <r_i_glide_rewards>
0.0971767

> <s_i_glide_gridfile>
wee1_glide-grid

> <s_m_Source_File>
wee1_decoys_glide_SP.sdf

> <s_m_Source_Path>
/Users/zhangxujun/Desktop

> <s_m_entry_id>
6196

> <s_m_entry_name>
wee1_decoys_glide_SP.5921

> <s_m_subgroup_title>
wee1_decoys_glide_SP

> <s_m_subgroupid>
wee1_decoys_glide_SP


$$$$
