ZINC39448905_4997
                    3D
 Schrodinger Suite 2024-2.
 56 60  0  0  1  0            999 V2000
   -0.5416   52.0643   29.1295 C   0  0  0  0  0  0
    0.0190   51.2964   28.1189 C   0  0  0  0  0  0
    1.0589   51.8009   27.3496 C   0  0  0  0  0  0
    1.5122   53.1155   27.5067 C   0  0  0  0  0  0
    0.9025   53.9044   28.5064 C   0  0  0  0  0  0
   -0.0952   53.3634   29.3219 C   0  0  0  0  0  0
    1.3976   55.3137   28.7436 C   0  0  0  0  0  0
    2.8303   55.3789   29.2694 C   0  0  0  0  0  0
    3.9534   54.6179   28.5534 C   0  0  0  0  0  0
    5.2175   54.6806   29.1438 C   0  0  0  0  0  0
    6.3345   54.0964   28.5557 C   0  0  0  0  0  0
    6.2283   53.4750   27.3361 C   0  0  0  0  0  0
    4.9833   53.3866   26.7478 C   0  0  0  0  0  0
    3.8137   53.9057   27.3315 C   0  0  0  0  0  0
    2.5444   53.6971   26.7253 N   0  0  0  0  0  0
    2.4180   53.8595   25.3651 C   0  0  0  0  0  0
    3.2480   54.4961   24.7061 O   0  0  0  0  0  0
    1.2170   53.2601   24.6103 C   0  0  0  0  0  0
    1.1062   53.8035   22.8815 S   0  0  0  0  0  0
    1.9482   52.4919   21.9897 C   0  0  0  0  0  0
    2.4442   52.8966   20.7723 N   0  0  0  0  0  0
    2.7982   52.0175   19.6469 C   0  0  1  0  0  0
    3.7793   52.3151   19.2698 H   0  0  0  0  0  0
    2.9699   50.6930   20.2646 N   0  3  0  0  0  0
    2.5696   50.4266   21.5211 C   0  0  0  0  0  0
    2.0249   51.2900   22.3804 N   0  0  0  0  0  0
    2.7023   49.1986   21.9777 N   0  0  0  0  0  0
    1.8288   52.0194   18.4699 C   0  0  0  0  0  0
    0.4703   52.3254   18.6332 C   0  0  0  0  0  0
   -0.3919   52.3191   17.5355 C   0  0  0  0  0  0
    0.0958   52.0011   16.2689 C   0  0  0  0  0  0
    1.4426   51.6865   16.0982 C   0  0  0  0  0  0
    2.3046   51.6961   17.1943 C   0  0  0  0  0  0
    2.1035   51.2351   14.3726 Br  0  0  0  0  0  0
   -1.3101   51.6459   29.7625 H   0  0  0  0  0  0
   -0.3320   50.2915   27.9471 H   0  0  0  0  0  0
    1.5028   51.1616   26.6089 H   0  0  0  0  0  0
   -0.5233   53.9560   30.1178 H   0  0  0  0  0  0
    0.7454   55.8234   29.4548 H   0  0  0  0  0  0
    1.3001   55.8663   27.8176 H   0  0  0  0  0  0
    2.8143   55.0280   30.2999 H   0  0  0  0  0  0
    3.1039   56.4341   29.2992 H   0  0  0  0  0  0
    5.3568   55.2012   30.0799 H   0  0  0  0  0  0
    7.2930   54.1001   29.0525 H   0  0  0  0  0  0
    7.0932   53.0319   26.8656 H   0  0  0  0  0  0
    4.9301   52.8968   25.7932 H   0  0  0  0  0  0
    1.2256   52.1737   24.6696 H   0  0  0  0  0  0
    0.3090   53.6116   25.0812 H   0  0  0  0  0  0
    3.2313   48.5119   21.4544 H   0  0  0  0  0  0
    2.4206   49.0139   22.9311 H   0  0  0  0  0  0
    0.0771   52.5648   19.6097 H   0  0  0  0  0  0
   -1.4366   52.5560   17.6639 H   0  0  0  0  0  0
   -0.5706   51.9893   15.4192 H   0  0  0  0  0  0
    3.3453   51.4381   17.0490 H   0  0  0  0  0  0
    2.2384   53.8521   20.4818 H   0  0  0  0  0  0
    3.3485   49.9512   19.6935 H   0  0  0  0  0  0
  1  6  2  0  0  0
  1  2  1  0  0  0
  1 35  1  0  0  0
  2  3  2  0  0  0
  2 36  1  0  0  0
  3  4  1  0  0  0
  3 37  1  0  0  0
  4 15  1  0  0  0
  4  5  2  0  0  0
  5  6  1  0  0  0
  5  7  1  0  0  0
  6 38  1  0  0  0
  7  8  1  0  0  0
  7 39  1  0  0  0
  7 40  1  0  0  0
  8  9  1  0  0  0
  8 41  1  0  0  0
  8 42  1  0  0  0
  9 14  2  0  0  0
  9 10  1  0  0  0
 10 11  2  0  0  0
 10 43  1  0  0  0
 11 12  1  0  0  0
 11 44  1  0  0  0
 12 13  2  0  0  0
 12 45  1  0  0  0
 13 14  1  0  0  0
 13 46  1  0  0  0
 14 15  1  0  0  0
 15 16  1  0  0  0
 16 17  2  0  0  0
 16 18  1  0  0  0
 18 19  1  0  0  0
 18 47  1  0  0  0
 18 48  1  0  0  0
 19 20  1  0  0  0
 20 26  2  0  0  0
 20 21  1  0  0  0
 21 22  1  0  0  0
 21 55  1  0  0  0
 22 23  1  0  0  0
 22 24  1  0  0  0
 22 28  1  0  0  0
 24 25  2  0  0  0
 24 56  1  0  0  0
 25 26  1  0  0  0
 25 27  1  0  0  0
 27 49  1  0  0  0
 27 50  1  0  0  0
 28 33  2  0  0  0
 28 29  1  0  0  0
 29 30  2  0  0  0
 29 51  1  0  0  0
 30 31  1  0  0  0
 30 52  1  0  0  0
 31 32  2  0  0  0
 31 53  1  0  0  0
 32 33  1  0  0  0
 32 34  1  0  0  0
 33 54  1  0  0  0
M  CHG  1  24   1
M  END
> <i_i_glide_confnum>
33

> <i_i_glide_lignum>
4998

> <i_i_glide_posenum>
191

> <i_i_glide_rotatable_bonds>
5

> <i_m_Source_File_Index>
2107

> <b_m_subgroup_collapsed>
0

> <r_i_docking_score>
-5.91766

> <r_i_glide_ecoul>
-7.79619

> <r_i_glide_eff_state_penalty>
0

> <r_i_glide_einternal>
1.46867

> <r_i_glide_emodel>
-51.3726

> <r_i_glide_energy>
-34.7817

> <r_i_glide_erotb>
0.302414

> <r_i_glide_esite>
-0.116032

> <r_i_glide_evdw>
-26.9855

> <r_i_glide_gscore>
-5.91766

> <r_i_glide_hbond>
-0.32

> <r_i_glide_ligand_efficiency>
-0.179323

> <r_i_glide_ligand_efficiency_ln>
-1.31606

> <r_i_glide_ligand_efficiency_sa>
-0.575185

> <r_i_glide_lipo>
-2.42021

> <r_i_glide_metal>
0

> <r_i_glide_rewards>
-0.84513

> <s_i_glide_gridfile>
wee1_glide-grid

> <s_m_Source_File>
wee1_decoys_glide_SP.sdf

> <s_m_Source_Path>
/Users/zhangxujun/Desktop

> <s_m_entry_id>
2382

> <s_m_entry_name>
wee1_decoys_glide_SP.2107

> <s_m_subgroup_title>
wee1_decoys_glide_SP

> <s_m_subgroupid>
wee1_decoys_glide_SP


$$$$
