ZINC39637232_3669
                    3D
 Schrodinger Suite 2024-2.
 68 71  0  0  1  0            999 V2000
    3.3991   52.3601   30.6147 C   0  0  0  0  0  0
    3.0975   53.1247   29.3077 C   0  0  1  0  0  0
    2.6011   54.0605   29.5727 H   0  0  0  0  0  0
    4.4291   53.4659   28.6006 C   0  0  0  0  0  0
    4.1965   54.3671   27.3876 C   0  0  0  0  0  0
    3.2357   53.7257   26.3751 C   0  0  0  0  0  0
    1.9189   53.2192   27.0149 C   0  0  2  0  0  0
    1.4069   54.1243   27.3532 H   0  0  0  0  0  0
    2.1756   52.3571   28.3037 C   0  0  2  0  0  0
    2.7604   51.4941   27.9955 H   0  0  0  0  0  0
    0.8835   51.8360   28.9681 C   0  0  0  0  0  0
    1.0709   52.6442   25.9634 N   0  0  0  0  0  0
   -0.2653   52.4967   25.9268 C   0  0  0  0  0  0
   -1.0154   52.8451   26.8415 O   0  0  0  0  0  0
   -0.8405   51.9103   24.6117 C   0  0  2  0  0  0
   -0.0027   51.7394   23.9392 H   0  0  0  0  0  0
   -1.8253   52.8587   23.9036 C   0  0  0  0  0  0
   -3.1321   52.4638   24.4394 N   0  0  0  0  0  0
   -3.0796   51.1456   25.0873 C   0  0  0  0  0  0
   -1.6504   50.6065   24.8423 C   0  0  0  0  0  0
   -1.2219   49.6559   25.9785 C   0  0  0  0  0  0
    0.2280   49.1811   25.7977 C   0  0  0  0  0  0
    0.3044   48.3858   24.4818 N   0  3  0  0  0  0
   -0.2627   49.1258   23.2443 C   0  0  0  0  0  0
   -1.6668   49.6956   23.5796 C   0  0  0  0  0  0
   -4.1414   53.3642   24.5675 C   0  0  0  0  0  0
   -4.0917   54.4967   24.0836 O   0  0  0  0  0  0
   -5.3622   52.9913   25.3683 C   0  0  0  0  0  0
   -5.7586   53.8061   26.4341 C   0  0  0  0  0  0
   -6.8941   53.4951   27.1796 C   0  0  0  0  0  0
   -7.6649   52.3694   26.8637 C   0  0  0  0  0  0
   -7.2800   51.5630   25.7848 C   0  0  0  0  0  0
   -6.1402   51.8732   25.0429 C   0  0  0  0  0  0
   -8.0104   50.4766   25.4453 F   0  0  0  0  0  0
   -8.9124   52.0185   27.6736 C   0  0  0  0  0  0
   -9.1298   52.8825   28.6680 F   0  0  0  0  0  0
   -9.9815   52.0268   26.8773 F   0  0  0  0  0  0
   -8.7786   50.8023   28.2027 F   0  0  0  0  0  0
    3.8248   51.3777   30.4082 H   0  0  0  0  0  0
    4.1186   52.8975   31.2331 H   0  0  0  0  0  0
    2.5115   52.2288   31.2332 H   0  0  0  0  0  0
    5.1004   53.9803   29.2886 H   0  0  0  0  0  0
    4.9668   52.5560   28.3259 H   0  0  0  0  0  0
    3.7611   55.2968   27.7382 H   0  0  0  0  0  0
    5.1445   54.6200   26.9101 H   0  0  0  0  0  0
    3.0197   54.4468   25.5840 H   0  0  0  0  0  0
    3.7606   52.8967   25.9048 H   0  0  0  0  0  0
    0.2027   52.6514   29.2140 H   0  0  0  0  0  0
    1.0800   51.2968   29.8876 H   0  0  0  0  0  0
    0.3578   51.1342   28.3236 H   0  0  0  0  0  0
    1.5883   52.2567   25.1898 H   0  0  0  0  0  0
   -1.5340   53.8961   24.0781 H   0  0  0  0  0  0
   -1.7710   52.6294   22.8392 H   0  0  0  0  0  0
   -3.8628   50.4308   24.8334 H   0  0  0  0  0  0
   -3.1706   51.3293   26.1607 H   0  0  0  0  0  0
   -1.2925   50.1574   26.9433 H   0  0  0  0  0  0
   -1.9032   48.8081   26.0785 H   0  0  0  0  0  0
    0.9625   49.9786   25.7282 H   0  0  0  0  0  0
    0.5299   48.4969   26.5906 H   0  0  0  0  0  0
    1.2696   48.0990   24.3317 H   0  0  0  0  0  0
    0.4742   49.8817   22.9748 H   0  0  0  0  0  0
   -0.3042   48.3928   22.4375 H   0  0  0  0  0  0
   -2.3848   48.8808   23.6979 H   0  0  0  0  0  0
   -2.0301   50.2562   22.7169 H   0  0  0  0  0  0
   -5.1801   54.6806   26.6997 H   0  0  0  0  0  0
   -7.1670   54.1370   28.0038 H   0  0  0  0  0  0
   -5.8829   51.2461   24.2022 H   0  0  0  0  0  0
   -0.2267   47.5395   24.6292 H   0  0  0  0  0  0
  1  2  1  0  0  0
  1 39  1  0  0  0
  1 40  1  0  0  0
  1 41  1  0  0  0
  2  3  1  0  0  0
  2  9  1  0  0  0
  2  4  1  0  0  0
  4  5  1  0  0  0
  4 42  1  0  0  0
  4 43  1  0  0  0
  5  6  1  0  0  0
  5 44  1  0  0  0
  5 45  1  0  0  0
  6  7  1  0  0  0
  6 46  1  0  0  0
  6 47  1  0  0  0
  7  8  1  0  0  0
  7  9  1  0  0  0
  7 12  1  0  0  0
  9 10  1  0  0  0
  9 11  1  0  0  0
 11 48  1  0  0  0
 11 49  1  0  0  0
 11 50  1  0  0  0
 12 13  1  0  0  0
 12 51  1  0  0  0
 13 14  2  0  0  0
 13 15  1  0  0  0
 15 16  1  0  0  0
 15 20  1  0  0  0
 15 17  1  0  0  0
 17 18  1  0  0  0
 17 52  1  0  0  0
 17 53  1  0  0  0
 18 19  1  0  0  0
 18 26  1  0  0  0
 19 20  1  0  0  0
 19 54  1  0  0  0
 19 55  1  0  0  0
 20 25  1  0  0  0
 20 21  1  0  0  0
 21 22  1  0  0  0
 21 56  1  0  0  0
 21 57  1  0  0  0
 22 23  1  0  0  0
 22 58  1  0  0  0
 22 59  1  0  0  0
 23 24  1  0  0  0
 23 60  1  0  0  0
 23 68  1  0  0  0
 24 25  1  0  0  0
 24 61  1  0  0  0
 24 62  1  0  0  0
 25 63  1  0  0  0
 25 64  1  0  0  0
 26 27  2  0  0  0
 26 28  1  0  0  0
 28 33  2  0  0  0
 28 29  1  0  0  0
 29 30  2  0  0  0
 29 65  1  0  0  0
 30 31  1  0  0  0
 30 66  1  0  0  0
 31 32  2  0  0  0
 31 35  1  0  0  0
 32 33  1  0  0  0
 32 34  1  0  0  0
 33 67  1  0  0  0
 35 36  1  0  0  0
 35 37  1  0  0  0
 35 38  1  0  0  0
M  CHG  1  23   1
M  END
> <i_i_glide_confnum>
153

> <i_i_glide_lignum>
3670

> <i_i_glide_posenum>
167

> <i_i_glide_rotatable_bonds>
6

> <i_m_Source_File_Index>
1368

> <b_m_subgroup_collapsed>
0

> <r_i_docking_score>
-4.00763

> <r_i_glide_ecoul>
-3.90625

> <r_i_glide_eff_state_penalty>
0

> <r_i_glide_einternal>
5.48635

> <r_i_glide_emodel>
-45.4525

> <r_i_glide_energy>
-36.2658

> <r_i_glide_erotb>
0.43249

> <r_i_glide_esite>
-0.0524084

> <r_i_glide_evdw>
-32.3595

> <r_i_glide_gscore>
-4.00763

> <r_i_glide_hbond>
0

> <r_i_glide_ligand_efficiency>
-0.117872

> <r_i_glide_ligand_efficiency_ln>
-0.885399

> <r_i_glide_ligand_efficiency_sa>
-0.381858

> <r_i_glide_lipo>
-1.81671

> <r_i_glide_metal>
0

> <r_i_glide_rewards>
-0.367088

> <s_i_glide_gridfile>
wee1_glide-grid

> <s_m_Source_File>
wee1_decoys_glide_SP.sdf

> <s_m_Source_Path>
/Users/zhangxujun/Desktop

> <s_m_entry_id>
1643

> <s_m_entry_name>
wee1_decoys_glide_SP.1368

> <s_m_subgroup_title>
wee1_decoys_glide_SP

> <s_m_subgroupid>
wee1_decoys_glide_SP


$$$$
