@<TRIPOS>MOLECULE
ZINC19800814_3925
38   39    1
SMALL
USER_CHARGES


@<TRIPOS>ATOM
      1 C1          0.6567   51.7733   24.5395 C.3       1 UNK         0.0000 
      2 C2          1.6491   52.9387   24.6778 C.2       1 UNK         0.0000 
      3 N3          2.4607   53.3526   23.7821 N.2       1 UNK         0.0000 
      4 N4          2.5330   52.6594   22.6257 N.am      1 UNK         0.0000 
      5 C5          3.4776   52.8312   21.6722 C.2       1 UNK         0.0000 
      6 O6          3.3725   52.2023   20.6205 O.2       1 UNK         0.0000 
      7 C7          4.6790   53.7536   21.8829 C.ar      1 UNK         0.0000 
      8 C8          5.2852   53.8463   23.1488 C.ar      1 UNK         0.0000 
      9 C9          6.3919   54.6534   23.3726 C.ar      1 UNK         0.0000 
     10 C10         6.9537   55.3610   22.3186 C.ar      1 UNK         0.0000 
     11 C11         6.3853   55.2967   21.0498 C.ar      1 UNK         0.0000 
     12 C12         5.2522   54.4967   20.8206 C.ar      1 UNK         0.0000 
     13 N13         4.7158   54.4693   19.5294 N.pl3     1 UNK         0.0000 
     14 Br14        7.1897   56.3350   19.6635 Br        1 UNK         0.0000 
     15 Br15        7.1043   54.8070   25.1305 Br        1 UNK         0.0000 
     16 C16         1.7318   53.6213   25.9426 C.2       1 UNK         0.0000 
     17 C17         1.1045   53.2966   27.0959 C.2       1 UNK         0.0000 
     18 C18         1.1624   54.0752   28.3568 C.ar      1 UNK         0.0000 
     19 C19         0.3891   53.6550   29.4448 C.ar      1 UNK         0.0000 
     20 C20         0.3650   54.4004   30.6216 C.ar      1 UNK         0.0000 
     21 C21         1.1043   55.5791   30.7051 C.ar      1 UNK         0.0000 
     22 C22         1.8989   55.9958   29.6460 C.ar      1 UNK         0.0000 
     23 C23         1.9336   55.2410   28.4817 C.ar      1 UNK         0.0000 
     24 H24        -0.2756   51.9726   25.0686 H         1 UNK         0.0000 
     25 H25         0.3718   51.5839   23.5044 H         1 UNK         0.0000 
     26 H26         1.0821   50.8524   24.9398 H         1 UNK         0.0000 
     27 H27         1.8132   51.9658   22.4916 H         1 UNK         0.0000 
     28 H28         4.9134   53.2967   23.9987 H         1 UNK         0.0000 
     29 H29         7.8245   55.9779   22.4903 H         1 UNK         0.0000 
     30 H30         5.3116   54.8025   18.7860 H         1 UNK         0.0000 
     31 H31         4.0839   53.6992   19.3430 H         1 UNK         0.0000 
     32 H32         2.3612   54.4967   25.9077 H         1 UNK         0.0000 
     33 H33         0.4901   52.4075   27.1328 H         1 UNK         0.0000 
     34 H34        -0.2039   52.7531   29.3830 H         1 UNK         0.0000 
     35 H35        -0.2216   54.0640   31.4647 H         1 UNK         0.0000 
     36 H36         1.1039   56.1589   31.6175 H         1 UNK         0.0000 
     37 H37         2.4880   56.8969   29.7254 H         1 UNK         0.0000 
     38 H38         2.5615   55.5947   27.6816 H         1 UNK         0.0000 
@<TRIPOS>BOND
     1    1    2 1    
     2    1   24 1    
     3    1   25 1    
     4    1   26 1    
     5    2    3 2    
     6    2   16 1    
     7    3    4 1    
     8    4    5 am   BACKBONE|DICT|INTERRES
     9    4   27 1    
    10    5    6 2    
    11    5    7 1    
    12    7   12 ar   
    13    7    8 ar   
    14    8    9 ar   
    15    8   28 1    
    16    9   10 ar   
    17    9   15 1    
    18   10   11 ar   
    19   10   29 1    
    20   11   12 ar   
    21   11   14 1    
    22   12   13 1    
    23   13   30 1    
    24   13   31 1    
    25   16   17 2    
    26   16   32 1    
    27   17   18 1    
    28   17   33 1    
    29   18   23 ar   
    30   18   19 ar   
    31   19   20 ar   
    32   19   34 1    
    33   20   21 ar   
    34   20   35 1    
    35   21   22 ar   
    36   21   36 1    
    37   22   23 ar   
    38   22   37 1    
    39   23   38 1    
@<TRIPOS>SUBSTRUCTURE
     1 UNK         1 GROUP             0       ****    0 ROOT    
