@<TRIPOS>MOLECULE
ZINC36066228_1042
79   83    1
SMALL
USER_CHARGES


@<TRIPOS>ATOM
      1 C1          3.6037   60.8265   12.0051 C.3       1 UNK         0.0000 
      2 C2          3.1614   59.9154   13.1673 C.3       1 UNK         0.0000 
      3 H3          4.0128   59.8281   13.8440 H         1 UNK         0.0000 
      4 C4          2.0080   60.5567   13.9773 C.3       1 UNK         0.0000 
      5 C5          1.5694   59.6938   15.1791 C.3       1 UNK         0.0000 
      6 C6          1.2533   58.2457   14.7413 C.3       1 UNK         0.0000 
      7 C7          2.4278   57.5989   13.9665 C.3       1 UNK         0.0000 
      8 H8          2.1010   56.6236   13.5940 H         1 UNK         0.0000 
      9 C9          2.7601   58.4717   12.7227 C.3       1 UNK         0.0000 
     10 H10         1.8304   58.5887   12.1636 H         1 UNK         0.0000 
     11 C11         3.7575   57.7792   11.7711 C.3       1 UNK         0.0000 
     12 N12         3.6136   57.3369   14.7875 N.am      1 UNK         0.0000 
     13 C13         3.7649   56.3317   15.6647 C.2       1 UNK         0.0000 
     14 O14         2.8983   55.4697   15.8073 O.2       1 UNK         0.0000 
     15 C15         5.1104   56.2845   16.4481 C.3       1 UNK         0.0000 
     16 H16         5.8806   56.1113   15.6966 H         1 UNK         0.0000 
     17 C17         5.1921   55.2383   17.5672 C.3       1 UNK         0.0000 
     18 C18         3.9539   54.9719   18.4287 C.2       1 UNK         0.0000 
     19 C19         4.2346   53.8735   19.1366 C.2       1 UNK         0.0000 
     20 C20         5.6826   53.5755   18.8070 C.3       1 UNK         0.0000 
     21 H21         5.9997   52.5429   18.9636 H         1 UNK         0.0000 
     22 O22         5.6773   53.9246   17.4143 O.3       1 UNK         0.0000 
     23 C23         6.6441   54.6974   19.3742 C.3       1 UNK         0.0000 
     24 H24         7.6748   54.3464   19.3429 H         1 UNK         0.0000 
     25 C25         6.4404   55.7404   18.2494 C.3       1 UNK         0.0000 
     26 H26         7.3323   55.6562   17.6194 H         1 UNK         0.0000 
     27 C27         6.2053   57.2438   18.3511 C.2       1 UNK         0.0000 
     28 O28         6.7046   58.0273   19.1645 O.2       1 UNK         0.0000 
     29 N29         5.4467   57.5041   17.2467 N.am      1 UNK         0.0000 
     30 C30         5.3467   58.8966   16.7853 C.3       1 UNK         0.0000 
     31 C31         6.3799   59.2868   15.7133 C.3       1 UNK         0.0000 
     32 O32         6.2411   58.4830   14.5479 O.3       1 UNK         0.0000 
     33 C33         7.1508   58.8408   13.5170 C.3       1 UNK         0.0000 
     34 C34         6.4549   55.1694   20.8504 C.2       1 UNK         0.0000 
     35 O35         7.1031   56.1325   21.2600 O.2       1 UNK         0.0000 
     36 N36         5.6510   54.4338   21.6484 N.am      1 UNK         0.0000 
     37 C37         5.5019   54.4966   23.0421 C.ar      1 UNK         0.0000 
     38 C38         4.2763   54.0942   23.5733 C.ar      1 UNK         0.0000 
     39 C39         4.0740   54.0982   24.9528 C.ar      1 UNK         0.0000 
     40 C40         5.0943   54.5226   25.8127 C.ar      1 UNK         0.0000 
     41 C41         6.3204   54.9223   25.2745 C.ar      1 UNK         0.0000 
     42 C42         6.5319   54.9034   23.9013 C.ar      1 UNK         0.0000 
     43 C43         4.9343   54.5527   27.3375 C.3       1 UNK         0.0000 
     44 C44         3.4755   54.5262   27.8399 C.3       1 UNK         0.0000 
     45 C45         5.7690   53.4554   28.0101 C.3       1 UNK         0.0000 
     46 H46         2.8313   60.8990   11.2391 H         1 UNK         0.0000 
     47 H47         3.8153   61.8355   12.3597 H         1 UNK         0.0000 
     48 H48         4.5150   60.4608   11.5321 H         1 UNK         0.0000 
     49 H49         1.1581   60.7352   13.3201 H         1 UNK         0.0000 
     50 H50         2.3077   61.5467   14.3260 H         1 UNK         0.0000 
     51 H51         0.6931   60.1369   15.6534 H         1 UNK         0.0000 
     52 H52         2.3507   59.6957   15.9395 H         1 UNK         0.0000 
     53 H53         0.3563   58.2426   14.1204 H         1 UNK         0.0000 
     54 H54         1.0054   57.6427   15.6155 H         1 UNK         0.0000 
     55 H55         4.7444   57.7046   12.2257 H         1 UNK         0.0000 
     56 H56         3.4292   56.7673   11.5310 H         1 UNK         0.0000 
     57 H57         3.8600   58.3133   10.8273 H         1 UNK         0.0000 
     58 H58         4.4214   57.9224   14.6121 H         1 UNK         0.0000 
     59 H59         3.0463   55.5591   18.4197 H         1 UNK         0.0000 
     60 H60         3.6202   53.3399   19.8446 H         1 UNK         0.0000 
     61 H61         4.3495   59.0218   16.3731 H         1 UNK         0.0000 
     62 H62         5.4005   59.5799   17.6262 H         1 UNK         0.0000 
     63 H63         6.2493   60.3411   15.4596 H         1 UNK         0.0000 
     64 H64         7.3858   59.1730   16.1241 H         1 UNK         0.0000 
     65 H65         7.0563   58.1467   12.6828 H         1 UNK         0.0000 
     66 H66         6.9465   59.8444   13.1416 H         1 UNK         0.0000 
     67 H67         8.1844   58.8013   13.8641 H         1 UNK         0.0000 
     68 H68         5.0535   53.7659   21.1863 H         1 UNK         0.0000 
     69 H69         3.4770   53.7691   22.9208 H         1 UNK         0.0000 
     70 H70         3.1199   53.7705   25.3373 H         1 UNK         0.0000 
     71 H71         7.1089   55.2443   25.9325 H         1 UNK         0.0000 
     72 H72         7.4996   55.1977   23.5194 H         1 UNK         0.0000 
     73 H73         5.3571   55.4983   27.6667 H         1 UNK         0.0000 
     74 H74         2.8722   55.2958   27.3607 H         1 UNK         0.0000 
     75 H75         3.4314   54.7079   28.9139 H         1 UNK         0.0000 
     76 H76         3.0052   53.5590   27.6547 H         1 UNK         0.0000 
     77 H77         6.8285   53.5256   27.7564 H         1 UNK         0.0000 
     78 H78         5.6845   53.5007   29.0965 H         1 UNK         0.0000 
     79 H79         5.4145   52.4856   27.6907 H         1 UNK         0.0000 
@<TRIPOS>BOND
     1    1    2 1    
     2    1   46 1    
     3    1   47 1    
     4    1   48 1    
     5    2    3 1    
     6    2    9 1    
     7    2    4 1    
     8    4    5 1    
     9    4   49 1    
    10    4   50 1    
    11    5    6 1    
    12    5   51 1    
    13    5   52 1    
    14    6    7 1    
    15    6   53 1    
    16    6   54 1    
    17    7    8 1    
    18    7    9 1    
    19    7   12 1    
    20    9   10 1    
    21    9   11 1    
    22   11   55 1    
    23   11   56 1    
    24   11   57 1    
    25   12   13 am   BACKBONE|DICT|INTERRES
    26   12   58 1    
    27   13   14 2    
    28   13   15 1    
    29   15   16 1    
    30   15   29 1    
    31   15   17 1    
    32   17   22 1    
    33   17   25 1    
    34   17   18 1    
    35   18   19 2    
    36   18   59 1    
    37   19   20 1    
    38   19   60 1    
    39   20   21 1    
    40   20   22 1    
    41   20   23 1    
    42   23   24 1    
    43   23   25 1    
    44   23   34 1    
    45   25   26 1    
    46   25   27 1    
    47   27   28 2    
    48   27   29 am   BACKBONE|DICT|INTERRES
    49   29   30 1    
    50   30   31 1    
    51   30   61 1    
    52   30   62 1    
    53   31   32 1    
    54   31   63 1    
    55   31   64 1    
    56   32   33 1    
    57   33   65 1    
    58   33   66 1    
    59   33   67 1    
    60   34   35 2    
    61   34   36 am   BACKBONE|DICT|INTERRES
    62   36   37 1    
    63   36   68 1    
    64   37   42 ar   
    65   37   38 ar   
    66   38   39 ar   
    67   38   69 1    
    68   39   40 ar   
    69   39   70 1    
    70   40   41 ar   
    71   40   43 1    
    72   41   42 ar   
    73   41   71 1    
    74   42   72 1    
    75   43   44 1    
    76   43   45 1    
    77   43   73 1    
    78   44   74 1    
    79   44   75 1    
    80   44   76 1    
    81   45   77 1    
    82   45   78 1    
    83   45   79 1    
@<TRIPOS>SUBSTRUCTURE
     1 UNK         1 GROUP             0       ****    0 ROOT    
