ZINC20720968_195
                    3D
 Schrodinger Suite 2024-2.
 48 51  0  0  1  0            999 V2000
    4.5927   53.4507   28.2653 C   0  0  0  0  0  0
    4.4915   53.6732   26.8641 O   0  0  0  0  0  0
    5.4355   54.3854   26.2092 C   0  0  0  0  0  0
    6.4032   54.8973   26.7849 O   0  0  0  0  0  0
    5.2668   54.4145   24.7065 C   0  0  0  0  0  0
    6.3967   54.8487   23.9846 C   0  0  0  0  0  0
    6.4104   54.8937   22.5957 C   0  0  0  0  0  0
    5.2890   54.4965   21.8831 C   0  0  0  0  0  0
    4.1510   54.0811   22.5648 C   0  0  0  0  0  0
    4.0998   54.0463   23.9741 C   0  0  0  0  0  0
    2.9154   53.5791   24.6142 N   0  0  0  0  0  0
    1.6405   53.6990   24.1593 C   0  0  0  0  0  0
    1.3726   54.4966   23.2651 O   0  0  0  0  0  0
    0.6577   52.9473   24.7442 N   0  0  0  0  0  0
   -0.7314   53.0326   24.2181 C   0  0  0  0  0  0
   -1.0187   51.7666   23.3637 C   0  0  0  0  0  0
   -0.7020   50.5473   24.2143 C   0  0  0  0  0  0
    0.1287   50.6429   25.3244 C   0  0  0  0  0  0
    0.2104   49.3628   25.8041 N   0  0  0  0  0  0
    0.7246   49.0368   26.6114 H   0  0  0  0  0  0
   -0.6012   48.6139   24.9949 C   0  0  0  0  0  0
   -1.1567   49.3163   24.0345 N   0  0  0  0  0  0
    0.8525   51.9105   25.7955 C   0  0  2  0  0  0
    1.9046   51.6999   25.8103 H   0  0  0  0  0  0
    0.6054   52.3824   27.2373 C   0  0  0  0  0  0
   -0.1773   51.6463   28.1380 C   0  0  0  0  0  0
   -0.2924   52.0514   29.4643 C   0  0  0  0  0  0
    0.3741   53.1943   29.8931 C   0  0  0  0  0  0
    1.1164   53.9619   29.0037 C   0  0  0  0  0  0
    1.2334   53.5527   27.6817 C   0  0  0  0  0  0
    0.3043   53.6970   31.7185 Br  0  0  0  0  0  0
    4.4766   54.3832   28.8184 H   0  0  0  0  0  0
    3.8142   52.7608   28.5876 H   0  0  0  0  0  0
    5.5550   53.0084   28.5260 H   0  0  0  0  0  0
    7.3076   55.1474   24.4860 H   0  0  0  0  0  0
    7.2998   55.2229   22.0773 H   0  0  0  0  0  0
    5.2958   54.5134   20.8030 H   0  0  0  0  0  0
    3.3068   53.7701   21.9672 H   0  0  0  0  0  0
    3.0660   53.0879   25.4823 H   0  0  0  0  0  0
   -1.4034   53.0662   25.0770 H   0  0  0  0  0  0
   -0.9413   53.9743   23.7085 H   0  0  0  0  0  0
   -2.0607   51.7624   23.0442 H   0  0  0  0  0  0
   -0.4139   51.7822   22.4561 H   0  0  0  0  0  0
   -0.7338   47.5618   25.1986 H   0  0  0  0  0  0
   -0.6906   50.7446   27.8372 H   0  0  0  0  0  0
   -0.8757   51.4652   30.1624 H   0  0  0  0  0  0
    1.6196   54.8555   29.3414 H   0  0  0  0  0  0
    1.8334   54.1482   27.0123 H   0  0  0  0  0  0
  1  2  1  0  0  0
  1 32  1  0  0  0
  1 33  1  0  0  0
  1 34  1  0  0  0
  2  3  1  0  0  0
  3  4  2  0  0  0
  3  5  1  0  0  0
  5 10  2  0  0  0
  5  6  1  0  0  0
  6  7  2  0  0  0
  6 35  1  0  0  0
  7  8  1  0  0  0
  7 36  1  0  0  0
  8  9  2  0  0  0
  8 37  1  0  0  0
  9 10  1  0  0  0
  9 38  1  0  0  0
 10 11  1  0  0  0
 11 12  1  0  0  0
 11 39  1  0  0  0
 12 13  2  0  0  0
 12 14  1  0  0  0
 14 23  1  0  0  0
 14 15  1  0  0  0
 15 16  1  0  0  0
 15 40  1  0  0  0
 15 41  1  0  0  0
 16 17  1  0  0  0
 16 42  1  0  0  0
 16 43  1  0  0  0
 17 22  1  0  0  0
 17 18  2  0  0  0
 18 19  1  0  0  0
 18 23  1  0  0  0
 19 20  1  0  0  0
 19 21  1  0  0  0
 21 22  2  0  0  0
 21 44  1  0  0  0
 23 24  1  0  0  0
 23 25  1  0  0  0
 25 30  2  0  0  0
 25 26  1  0  0  0
 26 27  2  0  0  0
 26 45  1  0  0  0
 27 28  1  0  0  0
 27 46  1  0  0  0
 28 29  2  0  0  0
 28 31  1  0  0  0
 29 30  1  0  0  0
 29 47  1  0  0  0
 30 48  1  0  0  0
M  END
> <i_i_glide_confnum>
188

> <i_i_glide_lignum>
196

> <i_i_glide_posenum>
120

> <i_i_glide_rotatable_bonds>
6

> <i_m_Source_File_Index>
4662

> <b_m_subgroup_collapsed>
0

> <r_i_docking_score>
-6.28719

> <r_i_glide_ecoul>
-3.17019

> <r_i_glide_eff_state_penalty>
0

> <r_i_glide_einternal>
6.24897

> <r_i_glide_emodel>
-63.4949

> <r_i_glide_energy>
-49.9206

> <r_i_glide_erotb>
0.48451

> <r_i_glide_esite>
-0.135618

> <r_i_glide_evdw>
-46.7504

> <r_i_glide_gscore>
-6.28719

> <r_i_glide_hbond>
0

> <r_i_glide_ligand_efficiency>
-0.2168

> <r_i_glide_ligand_efficiency_ln>
-1.43961

> <r_i_glide_ligand_efficiency_sa>
-0.666077

> <r_i_glide_lipo>
-2.50659

> <r_i_glide_metal>
0

> <r_i_glide_rewards>
-1.31645

> <s_i_glide_gridfile>
wee1_glide-grid

> <s_m_Source_File>
wee1_decoys_glide_SP.sdf

> <s_m_Source_Path>
/Users/zhangxujun/Desktop

> <s_m_entry_id>
4937

> <s_m_entry_name>
wee1_decoys_glide_SP.4662

> <s_m_subgroup_title>
wee1_decoys_glide_SP

> <s_m_subgroupid>
wee1_decoys_glide_SP


$$$$
