ZINC36210555_3184
                    3D
 Schrodinger Suite 2024-2.
 69 71  0  0  1  0            999 V2000
   -6.0281   50.1796   27.5492 C   0  0  0  0  0  0
   -4.9859   50.5445   28.6287 C   0  0  1  0  0  0
   -5.1872   51.5806   28.9133 H   0  0  0  0  0  0
   -5.1459   49.6873   29.9187 C   0  0  0  0  0  0
   -4.7734   48.2008   29.7211 C   0  0  0  0  0  0
   -4.3689   50.2783   31.1130 C   0  0  0  0  0  0
   -3.6204   50.4965   28.1021 N   0  0  0  0  0  0
   -3.0831   51.3223   27.1886 C   0  0  0  0  0  0
   -3.6668   52.2986   26.7164 O   0  0  0  0  0  0
   -1.6259   51.0090   26.7880 C   0  0  2  0  0  0
   -1.3527   50.0968   27.2896 H   0  0  0  0  0  0
   -0.5558   52.0201   27.3092 C   0  0  0  0  0  0
   -0.2289   51.8974   28.8098 C   0  0  0  0  0  0
    0.6391   53.1047   29.2785 C   0  0  0  0  0  0
    1.8141   53.2967   28.3635 N   0  0  0  0  0  0
    1.6488   53.1023   26.8984 C   0  0  0  0  0  0
    0.8427   51.8285   26.6926 C   0  0  0  0  0  0
    3.0269   53.6555   28.8850 C   0  0  0  0  0  0
    3.2355   53.7268   30.0962 O   0  0  0  0  0  0
    4.1747   53.9855   27.9487 C   0  0  0  0  0  0
    4.0064   54.8947   26.8966 C   0  0  0  0  0  0
    5.0026   55.0689   25.9488 C   0  0  0  0  0  0
    6.2165   54.4237   26.1100 C   0  0  0  0  0  0
    6.4499   53.6078   27.2127 C   0  0  0  0  0  0
    5.4179   53.3673   28.1169 C   0  0  0  0  0  0
    7.4028   54.6125   24.8898 Cl  0  0  0  0  0  0
   -1.4443   50.5894   25.3964 N   0  0  0  0  0  0
   -1.4439   51.3517   24.2873 C   0  0  0  0  0  0
   -1.8931   52.4976   24.2400 O   0  0  0  0  0  0
   -0.6609   50.7763   23.1244 C   0  0  0  0  0  0
   -0.7065   51.4034   21.8723 C   0  0  0  0  0  0
    0.1418   50.9954   20.8434 C   0  0  0  0  0  0
    1.0534   49.9511   21.0554 C   0  0  0  0  0  0
    1.0711   49.2988   22.2812 C   0  0  0  0  0  0
    0.2264   49.6997   23.3069 C   0  0  0  0  0  0
    1.9773   49.5122   20.1322 O   0  0  0  0  0  0
    2.2103   50.2856   18.9633 C   0  0  0  0  0  0
   -7.0308   50.1327   27.9749 H   0  0  0  0  0  0
   -6.0637   50.9274   26.7554 H   0  0  0  0  0  0
   -5.8260   49.2055   27.1018 H   0  0  0  0  0  0
   -6.1993   49.7145   30.2017 H   0  0  0  0  0  0
   -3.7176   48.0778   29.4667 H   0  0  0  0  0  0
   -4.9541   47.6272   30.6298 H   0  0  0  0  0  0
   -5.3611   47.7372   28.9291 H   0  0  0  0  0  0
   -3.2935   50.3011   30.9274 H   0  0  0  0  0  0
   -4.6869   51.2965   31.3296 H   0  0  0  0  0  0
   -4.5297   49.7003   32.0249 H   0  0  0  0  0  0
   -3.0371   49.7420   28.4542 H   0  0  0  0  0  0
   -0.9385   53.0166   27.0781 H   0  0  0  0  0  0
   -1.1550   51.9029   29.3859 H   0  0  0  0  0  0
    0.2007   50.9168   29.0517 H   0  0  0  0  0  0
    0.0421   54.0186   29.2732 H   0  0  0  0  0  0
    0.9561   52.8576   30.2944 H   0  0  0  0  0  0
    1.1227   53.9532   26.4663 H   0  0  0  0  0  0
    2.5831   52.9008   26.3736 H   0  0  0  0  0  0
    1.3440   50.9230   27.0453 H   0  0  0  0  0  0
    0.8037   51.7104   25.6143 H   0  0  0  0  0  0
    3.0793   55.4150   26.7719 H   0  0  0  0  0  0
    4.8337   55.6952   25.0889 H   0  0  0  0  0  0
    7.3977   53.1035   27.3291 H   0  0  0  0  0  0
    5.5724   52.6580   28.9124 H   0  0  0  0  0  0
   -1.1841   49.6218   25.2995 H   0  0  0  0  0  0
   -1.3681   52.2405   21.7012 H   0  0  0  0  0  0
    0.1013   51.5158   19.8986 H   0  0  0  0  0  0
    1.7840   48.5054   22.4530 H   0  0  0  0  0  0
    0.3319   49.1916   24.2550 H   0  0  0  0  0  0
    3.1035   49.8981   18.4817 H   0  0  0  0  0  0
    2.3962   51.3368   19.1919 H   0  0  0  0  0  0
    1.3814   50.2082   18.2577 H   0  0  0  0  0  0
  1  2  1  0  0  0
  1 38  1  0  0  0
  1 39  1  0  0  0
  1 40  1  0  0  0
  2  3  1  0  0  0
  2  4  1  0  0  0
  2  7  1  0  0  0
  4  5  1  0  0  0
  4  6  1  0  0  0
  4 41  1  0  0  0
  5 42  1  0  0  0
  5 43  1  0  0  0
  5 44  1  0  0  0
  6 45  1  0  0  0
  6 46  1  0  0  0
  6 47  1  0  0  0
  7  8  1  0  0  0
  7 48  1  0  0  0
  8  9  2  0  0  0
  8 10  1  0  0  0
 10 11  1  0  0  0
 10 12  1  0  0  0
 10 27  1  0  0  0
 12 17  1  0  0  0
 12 13  1  0  0  0
 12 49  1  0  0  0
 13 14  1  0  0  0
 13 50  1  0  0  0
 13 51  1  0  0  0
 14 15  1  0  0  0
 14 52  1  0  0  0
 14 53  1  0  0  0
 15 16  1  0  0  0
 15 18  1  0  0  0
 16 17  1  0  0  0
 16 54  1  0  0  0
 16 55  1  0  0  0
 17 56  1  0  0  0
 17 57  1  0  0  0
 18 19  2  0  0  0
 18 20  1  0  0  0
 20 25  2  0  0  0
 20 21  1  0  0  0
 21 22  2  0  0  0
 21 58  1  0  0  0
 22 23  1  0  0  0
 22 59  1  0  0  0
 23 24  2  0  0  0
 23 26  1  0  0  0
 24 25  1  0  0  0
 24 60  1  0  0  0
 25 61  1  0  0  0
 27 28  1  0  0  0
 27 62  1  0  0  0
 28 29  2  0  0  0
 28 30  1  0  0  0
 30 35  2  0  0  0
 30 31  1  0  0  0
 31 32  2  0  0  0
 31 63  1  0  0  0
 32 33  1  0  0  0
 32 64  1  0  0  0
 33 34  2  0  0  0
 33 36  1  0  0  0
 34 35  1  0  0  0
 34 65  1  0  0  0
 35 66  1  0  0  0
 36 37  1  0  0  0
 37 67  1  0  0  0
 37 68  1  0  0  0
 37 69  1  0  0  0
M  END
> <i_i_glide_confnum>
205

> <i_i_glide_lignum>
3185

> <i_i_glide_posenum>
390

> <i_i_glide_rotatable_bonds>
11

> <i_m_Source_File_Index>
1405

> <b_m_subgroup_collapsed>
0

> <r_i_docking_score>
-5.85942

> <r_i_glide_ecoul>
-8.19875

> <r_i_glide_eff_state_penalty>
0

> <r_i_glide_einternal>
11.5631

> <r_i_glide_emodel>
-60.5916

> <r_i_glide_energy>
-47.906

> <r_i_glide_erotb>
0.734921

> <r_i_glide_esite>
-0.192431

> <r_i_glide_evdw>
-39.7072

> <r_i_glide_gscore>
-5.85942

> <r_i_glide_hbond>
-0.447812

> <r_i_glide_ligand_efficiency>
-0.167412

> <r_i_glide_ligand_efficiency_ln>
-1.28627

> <r_i_glide_ligand_efficiency_sa>
-0.547616

> <r_i_glide_lipo>
-2.20726

> <r_i_glide_metal>
0

> <r_i_glide_rewards>
-0.531667

> <s_i_glide_gridfile>
wee1_glide-grid

> <s_m_Source_File>
wee1_decoys_glide_SP.sdf

> <s_m_Source_Path>
/Users/zhangxujun/Desktop

> <s_m_entry_id>
1680

> <s_m_entry_name>
wee1_decoys_glide_SP.1405

> <s_m_subgroup_title>
wee1_decoys_glide_SP

> <s_m_subgroupid>
wee1_decoys_glide_SP


$$$$
