ZINC39779853_2683
                    3D
 Schrodinger Suite 2024-2.
 48 51  0  0  1  0            999 V2000
    2.4762   55.5260   29.0616 C   0  0  0  0  0  0
    3.1778   54.1961   28.7003 C   0  0  0  0  0  0
    4.5154   54.4968   27.9702 C   0  0  0  0  0  0
    3.5651   53.4555   30.0091 C   0  0  0  0  0  0
    2.2139   53.3676   27.8129 C   0  0  0  0  0  0
    1.3561   52.4057   28.3701 C   0  0  0  0  0  0
    0.4677   51.6954   27.5701 C   0  0  0  0  0  0
    0.4113   51.9396   26.1979 C   0  0  0  0  0  0
    1.2486   52.8969   25.6297 C   0  0  0  0  0  0
    2.1422   53.6022   26.4305 C   0  0  0  0  0  0
   -0.5262   51.1674   25.3364 C   0  0  0  0  0  0
   -1.3712   51.6965   24.4844 N   0  0  0  0  0  0
   -2.0726   50.6451   23.9010 N   0  0  0  0  0  0
   -1.5584   49.5226   24.3486 C   0  0  0  0  0  0
   -0.6167   49.7949   25.3133 N   0  0  0  0  0  0
    0.0937   48.8968   26.0817 N   0  0  0  0  0  0
   -2.0207   47.8880   23.8373 S   0  0  0  0  0  0
   -2.5903   48.1214   22.1077 C   0  0  0  0  0  0
   -1.6949   49.0036   21.2364 C   0  0  0  0  0  0
   -2.2753   50.0598   20.7815 N   0  0  0  0  0  0
   -1.5669   50.9728   19.9947 C   0  0  0  0  0  0
   -1.9411   52.0969   19.6651 O   0  0  0  0  0  0
   -0.2136   50.4213   19.4484 C   0  0  2  0  0  0
   -0.4552   50.0568   18.4505 H   0  0  0  0  0  0
    0.3624   49.2903   20.2939 C   0  0  0  0  0  0
   -0.3759   48.5794   21.0630 N   0  0  0  0  0  0
    1.7641   49.1618   20.0913 C   0  0  0  0  0  0
    2.3044   50.2573   19.5198 C   0  0  0  0  0  0
    1.1450   51.5864   19.2616 S   0  0  0  0  0  0
    3.1050   56.1710   29.6723 H   0  0  0  0  0  0
    1.5545   55.3530   29.6192 H   0  0  0  0  0  0
    2.2092   56.0955   28.1703 H   0  0  0  0  0  0
    4.9794   53.5822   27.5971 H   0  0  0  0  0  0
    4.3900   55.1718   27.1243 H   0  0  0  0  0  0
    5.2388   54.9763   28.6320 H   0  0  0  0  0  0
    4.0049   52.4793   29.7976 H   0  0  0  0  0  0
    4.3024   54.0201   30.5815 H   0  0  0  0  0  0
    2.7136   53.2968   30.6701 H   0  0  0  0  0  0
    1.3485   52.1949   29.4272 H   0  0  0  0  0  0
   -0.1826   50.9568   28.0192 H   0  0  0  0  0  0
    1.2102   53.0920   24.5676 H   0  0  0  0  0  0
    2.7644   54.3445   25.9565 H   0  0  0  0  0  0
   -0.4777   48.4836   26.8187 H   0  0  0  0  0  0
    0.6188   48.2202   25.5468 H   0  0  0  0  0  0
   -2.6579   47.1361   21.6488 H   0  0  0  0  0  0
   -3.6115   48.5047   22.1496 H   0  0  0  0  0  0
    2.3549   48.3211   20.4235 H   0  0  0  0  0  0
    3.3518   50.4031   19.2848 H   0  0  0  0  0  0
  1  2  1  0  0  0
  1 30  1  0  0  0
  1 31  1  0  0  0
  1 32  1  0  0  0
  2  3  1  0  0  0
  2  4  1  0  0  0
  2  5  1  0  0  0
  3 33  1  0  0  0
  3 34  1  0  0  0
  3 35  1  0  0  0
  4 36  1  0  0  0
  4 37  1  0  0  0
  4 38  1  0  0  0
  5 10  2  0  0  0
  5  6  1  0  0  0
  6  7  2  0  0  0
  6 39  1  0  0  0
  7  8  1  0  0  0
  7 40  1  0  0  0
  8  9  2  0  0  0
  8 11  1  0  0  0
  9 10  1  0  0  0
  9 41  1  0  0  0
 10 42  1  0  0  0
 11 15  1  0  0  0
 11 12  2  0  0  0
 12 13  1  0  0  0
 13 14  2  0  0  0
 14 15  1  0  0  0
 14 17  1  0  0  0
 15 16  1  0  0  0
 16 43  1  0  0  0
 16 44  1  0  0  0
 17 18  1  0  0  0
 18 19  1  0  0  0
 18 45  1  0  0  0
 18 46  1  0  0  0
 19 26  1  0  0  0
 19 20  2  0  0  0
 20 21  1  0  0  0
 21 22  2  0  0  0
 21 23  1  0  0  0
 23 24  1  0  0  0
 23 29  1  0  0  0
 23 25  1  0  0  0
 25 26  2  0  0  0
 25 27  1  0  0  0
 27 28  2  0  0  0
 27 47  1  0  0  0
 28 29  1  0  0  0
 28 48  1  0  0  0
M  END
> <i_i_glide_confnum>
18

> <i_i_glide_lignum>
2684

> <i_i_glide_posenum>
8

> <i_i_glide_rotatable_bonds>
5

> <i_m_Source_File_Index>
4872

> <b_m_subgroup_collapsed>
0

> <r_i_docking_score>
-5.29559

> <r_i_glide_ecoul>
-9.36562

> <r_i_glide_eff_state_penalty>
0

> <r_i_glide_einternal>
7.87758

> <r_i_glide_emodel>
-52.0525

> <r_i_glide_energy>
-41.6553

> <r_i_glide_erotb>
0.463494

> <r_i_glide_esite>
-0.192744

> <r_i_glide_evdw>
-32.2897

> <r_i_glide_gscore>
-5.29559

> <r_i_glide_hbond>
-0.393506

> <r_i_glide_ligand_efficiency>
-0.189128

> <r_i_glide_ligand_efficiency_ln>
-1.22238

> <r_i_glide_ligand_efficiency_sa>
-0.574304

> <r_i_glide_lipo>
-1.55714

> <r_i_glide_metal>
0

> <r_i_glide_rewards>
-0.596361

> <s_i_glide_gridfile>
wee1_glide-grid

> <s_m_Source_File>
wee1_decoys_glide_SP.sdf

> <s_m_Source_Path>
/Users/zhangxujun/Desktop

> <s_m_entry_id>
5147

> <s_m_entry_name>
wee1_decoys_glide_SP.4872

> <s_m_subgroup_title>
wee1_decoys_glide_SP

> <s_m_subgroupid>
wee1_decoys_glide_SP


$$$$
