@<TRIPOS>MOLECULE
ZINC39682573_494
68   72    1
SMALL
USER_CHARGES


@<TRIPOS>ATOM
      1 C1         -1.0692   46.6525   20.0120 C.ar      1 UNK         0.0000 
      2 C2         -1.7786   47.6243   20.7130 C.ar      1 UNK         0.0000 
      3 C3         -1.4438   48.9663   20.5607 C.ar      1 UNK         0.0000 
      4 C4         -0.3985   49.3408   19.7061 C.ar      1 UNK         0.0000 
      5 C5          0.3106   48.3550   19.0108 C.ar      1 UNK         0.0000 
      6 C6         -0.0250   47.0120   19.1613 C.ar      1 UNK         0.0000 
      7 C7          0.0184   50.8133   19.5658 C.3       1 UNK         0.0000 
      8 H8          1.0517   50.8130   19.2093 H         1 UNK         0.0000 
      9 C9         -0.7966   51.5731   18.4736 C.3       1 UNK         0.0000 
     10 C10        -2.1931   52.0967   18.8750 C.2       1 UNK         0.0000 
     11 O11        -2.8959   52.5758   17.9613 O.co2     1 UNK         0.0000 
     12 O12        -2.5305   52.0966   20.0812 O.co2     1 UNK         0.0000 
     13 N13         0.0375   51.5351   20.8418 N.am      1 UNK         0.0000 
     14 C14         0.8942   51.3528   21.8517 C.2       1 UNK         0.0000 
     15 O15         1.8734   50.6096   21.7663 O.2       1 UNK         0.0000 
     16 C16         0.6310   52.2081   23.1146 C.3       1 UNK         0.0000 
     17 H17        -0.0973   52.9822   22.8741 H         1 UNK         0.0000 
     18 C18         1.9557   52.9013   23.4659 C.3       1 UNK         0.0000 
     19 N19         1.9043   53.0850   24.9178 N.am      1 UNK         0.0000 
     20 C20         0.7097   52.4464   25.4821 C.3       1 UNK         0.0000 
     21 C21         0.1971   51.4531   24.4014 C.3       1 UNK         0.0000 
     22 C22        -1.3290   51.1910   24.4613 C.3       1 UNK         0.0000 
     23 C23        -1.7543   50.6263   25.8381 C.3       1 UNK         0.0000 
     24 N24        -1.0023   49.2967   26.0816 N.4       1 UNK         0.0000 
     25 C25         0.5321   49.3925   25.9148 C.3       1 UNK         0.0000 
     26 C26         0.8236   50.0303   24.5428 C.3       1 UNK         0.0000 
     27 C27         2.8520   53.6685   25.7106 C.2       1 UNK         0.0000 
     28 O28         2.6902   53.8016   26.9253 O.2       1 UNK         0.0000 
     29 C29         4.1154   54.0968   25.1250 C.2       1 UNK         0.0000 
     30 C30         5.2875   54.5458   25.7257 C.2       1 UNK         0.0000 
     31 C31         6.2138   54.7746   24.7033 C.2       1 UNK         0.0000 
     32 C32         5.5712   54.4967   23.5038 C.2       1 UNK         0.0000 
     33 O33         4.3054   54.0960   23.7784 O.3       1 UNK         0.0000 
     34 C34         5.9363   54.6362   22.0653 C.ar      1 UNK         0.0000 
     35 C35         7.1049   55.3209   21.7190 C.ar      1 UNK         0.0000 
     36 C36         7.4417   55.5089   20.3815 C.ar      1 UNK         0.0000 
     37 C37         6.6070   55.0105   19.3837 C.ar      1 UNK         0.0000 
     38 C38         5.4392   54.3272   19.7156 C.ar      1 UNK         0.0000 
     39 C39         5.1043   54.1378   21.0548 C.ar      1 UNK         0.0000 
     40 F40         6.9364   55.1879   18.0860 F         1 UNK         0.0000 
     41 H41        -1.3298   45.6105   20.1288 H         1 UNK         0.0000 
     42 H42        -2.5871   47.3407   21.3713 H         1 UNK         0.0000 
     43 H43        -1.9964   49.7180   21.1047 H         1 UNK         0.0000 
     44 H44         1.1274   48.6274   18.3573 H         1 UNK         0.0000 
     45 H45         0.5268   46.2546   18.6245 H         1 UNK         0.0000 
     46 H46        -0.2126   52.4306   18.1355 H         1 UNK         0.0000 
     47 H47        -0.9011   50.9413   17.5895 H         1 UNK         0.0000 
     48 H48        -0.7922   52.0977   20.9934 H         1 UNK         0.0000 
     49 H49         2.8012   52.2352   23.2867 H         1 UNK         0.0000 
     50 H50         2.0578   53.8417   22.9207 H         1 UNK         0.0000 
     51 H51        -0.0422   53.2289   25.5594 H         1 UNK         0.0000 
     52 H52         0.8199   52.0105   26.4741 H         1 UNK         0.0000 
     53 H53        -1.8598   52.1341   24.3224 H         1 UNK         0.0000 
     54 H54        -1.6592   50.5552   23.6372 H         1 UNK         0.0000 
     55 H55        -1.5088   51.2811   26.6777 H         1 UNK         0.0000 
     56 H56        -2.8166   50.3809   25.8823 H         1 UNK         0.0000 
     57 H57        -1.2258   48.9280   27.0240 H         1 UNK         0.0000 
     58 H58         0.9150   49.9473   26.7721 H         1 UNK         0.0000 
     59 H59         0.9145   48.3748   25.9746 H         1 UNK         0.0000 
     60 H60         0.5037   49.3612   23.7410 H         1 UNK         0.0000 
     61 H61         1.9038   50.0866   24.4265 H         1 UNK         0.0000 
     62 H62         5.4545   54.6678   26.7859 H         1 UNK         0.0000 
     63 H63         7.2270   55.1284   24.8130 H         1 UNK         0.0000 
     64 H64         7.7612   55.7128   22.4818 H         1 UNK         0.0000 
     65 H65         8.3508   56.0263   20.1133 H         1 UNK         0.0000 
     66 H66         4.7986   53.9422   18.9350 H         1 UNK         0.0000 
     67 H67         4.1911   53.6128   21.2972 H         1 UNK         0.0000 
     68 H68        -1.3505   48.5981   25.4418 H         1 UNK         0.0000 
@<TRIPOS>BOND
     1    1    6 ar   
     2    1    2 ar   
     3    1   41 1    
     4    2    3 ar   
     5    2   42 1    
     6    3    4 ar   
     7    3   43 1    
     8    4    5 ar   
     9    4    7 1    
    10    5    6 ar   
    11    5   44 1    
    12    6   45 1    
    13    7    8 1    
    14    7    9 1    
    15    7   13 1    
    16    9   10 1    
    17    9   46 1    
    18    9   47 1    
    19   10   11 2    
    20   10   12 1    
    21   13   14 am   BACKBONE|DICT|INTERRES
    22   13   48 1    
    23   14   15 2    
    24   14   16 1    
    25   16   17 1    
    26   16   21 1    
    27   16   18 1    
    28   18   19 1    
    29   18   49 1    
    30   18   50 1    
    31   19   20 1    
    32   19   27 am   BACKBONE|DICT|INTERRES
    33   20   21 1    
    34   20   51 1    
    35   20   52 1    
    36   21   26 1    
    37   21   22 1    
    38   22   23 1    
    39   22   53 1    
    40   22   54 1    
    41   23   24 1    
    42   23   55 1    
    43   23   56 1    
    44   24   25 1    
    45   24   57 1    
    46   24   68 1    
    47   25   26 1    
    48   25   58 1    
    49   25   59 1    
    50   26   60 1    
    51   26   61 1    
    52   27   28 2    
    53   27   29 1    
    54   29   33 1    
    55   29   30 2    
    56   30   31 1    
    57   30   62 1    
    58   31   32 2    
    59   31   63 1    
    60   32   33 1    
    61   32   34 1    
    62   34   39 ar   
    63   34   35 ar   
    64   35   36 ar   
    65   35   64 1    
    66   36   37 ar   
    67   36   65 1    
    68   37   38 ar   
    69   37   40 1    
    70   38   39 ar   
    71   38   66 1    
    72   39   67 1    
@<TRIPOS>SUBSTRUCTURE
     1 UNK         1 GROUP             0       ****    0 ROOT    
