ZINC40036116_5610
                    3D
 Schrodinger Suite 2024-2.
 64 68  0  0  1  0            999 V2000
    1.8361   56.3467   30.0708 C   0  0  0  0  0  0
    1.5481   54.8909   29.6699 C   0  0  0  0  0  0
    1.7330   54.6993   28.1498 C   0  0  0  0  0  0
    1.4388   53.2835   27.5285 C   0  0  1  0  0  0
   -0.0616   52.9801   27.8815 C   0  0  0  0  0  0
   -0.7922   51.9788   27.0032 C   0  0  0  0  0  0
   -1.9284   51.3161   27.4824 C   0  0  0  0  0  0
   -2.6862   50.4958   26.6555 C   0  0  0  0  0  0
   -2.2941   50.2942   25.3384 C   0  0  0  0  0  0
   -1.1520   50.9244   24.8577 C   0  0  0  0  0  0
   -0.3833   51.7776   25.6760 C   0  0  0  0  0  0
    0.8499   52.4564   25.1795 C   0  0  0  0  0  0
    1.6732   53.2060   25.9686 C   0  0  0  0  0  0
    2.8766   53.7809   25.3268 C   0  0  0  0  0  0
    3.6292   54.5402   25.9369 O   0  0  0  0  0  0
    3.1036   53.4272   24.0042 N   0  0  0  0  0  0
    2.2281   52.5837   23.3225 C   0  0  0  0  0  0
    1.1389   52.1966   23.8710 N   0  0  0  0  0  0
    2.5791   52.1490   21.9979 N   0  0  0  0  0  0
    2.2784   50.9526   21.2917 N   0  0  0  0  0  0
    1.1429   50.3790   21.3293 C   0  0  0  0  0  0
    0.8457   49.1569   20.5693 C   0  0  0  0  0  0
   -0.3729   48.5019   20.7721 C   0  0  0  0  0  0
   -0.6735   47.3295   20.0820 C   0  0  0  0  0  0
    0.2387   46.7861   19.1676 C   0  0  0  0  0  0
    1.4454   47.4592   18.9373 C   0  0  0  0  0  0
    1.7486   48.6243   19.6359 C   0  0  0  0  0  0
   -0.0629   45.5144   18.4678 N   0  3  0  0  0  0
   -1.0593   44.8815   18.8059 O   0  0  0  0  0  0
    0.7033   45.1310   17.5897 O   0  5  0  0  0  0
    4.3007   53.9345   23.3616 C   0  0  0  0  0  0
    5.5577   53.8329   23.9859 C   0  0  0  0  0  0
    6.7044   54.3244   23.3765 C   0  0  0  0  0  0
    6.6313   54.8929   22.1083 C   0  0  0  0  0  0
    5.4169   54.9253   21.4332 C   0  0  0  0  0  0
    4.2549   54.4968   22.0722 C   0  0  0  0  0  0
    2.3110   52.1629   28.1412 C   0  0  0  0  0  0
    1.8285   56.4854   31.1520 H   0  0  0  0  0  0
    2.8024   56.6754   29.6839 H   0  0  0  0  0  0
    1.0967   57.0235   29.6498 H   0  0  0  0  0  0
    0.5358   54.6335   29.9828 H   0  0  0  0  0  0
    2.2206   54.2233   30.2078 H   0  0  0  0  0  0
    2.7607   55.0013   27.9811 H   0  0  0  0  0  0
    1.1041   55.4489   27.6816 H   0  0  0  0  0  0
   -0.6504   53.8909   27.8025 H   0  0  0  0  0  0
   -0.1564   52.6758   28.9261 H   0  0  0  0  0  0
   -2.2435   51.4531   28.5077 H   0  0  0  0  0  0
   -3.5581   49.9913   27.0477 H   0  0  0  0  0  0
   -2.8677   49.6399   24.6984 H   0  0  0  0  0  0
   -0.8705   50.7338   23.8338 H   0  0  0  0  0  0
    3.4946   52.4738   21.7226 H   0  0  0  0  0  0
    0.3160   50.7694   21.9141 H   0  0  0  0  0  0
   -1.0940   48.8877   21.4790 H   0  0  0  0  0  0
   -1.6194   46.8410   20.2751 H   0  0  0  0  0  0
    2.1678   47.0815   18.2257 H   0  0  0  0  0  0
    2.6955   49.1083   19.4328 H   0  0  0  0  0  0
    5.6565   53.3708   24.9581 H   0  0  0  0  0  0
    7.6515   54.2436   23.8877 H   0  0  0  0  0  0
    7.5288   55.2666   21.6334 H   0  0  0  0  0  0
    5.3625   55.3360   20.4352 H   0  0  0  0  0  0
    3.3142   54.6077   21.5485 H   0  0  0  0  0  0
    2.1649   52.0740   29.2180 H   0  0  0  0  0  0
    2.0712   51.1875   27.7143 H   0  0  0  0  0  0
    3.3741   52.3509   27.9818 H   0  0  0  0  0  0
  1  2  1  0  0  0
  1 38  1  0  0  0
  1 39  1  0  0  0
  1 40  1  0  0  0
  2  3  1  0  0  0
  2 41  1  0  0  0
  2 42  1  0  0  0
  3  4  1  0  0  0
  3 43  1  0  0  0
  3 44  1  0  0  0
  4 13  1  0  0  0
  4  5  1  0  0  0
  4 37  1  0  0  0
  5  6  1  0  0  0
  5 45  1  0  0  0
  5 46  1  0  0  0
  6 11  2  0  0  0
  6  7  1  0  0  0
  7  8  2  0  0  0
  7 47  1  0  0  0
  8  9  1  0  0  0
  8 48  1  0  0  0
  9 10  2  0  0  0
  9 49  1  0  0  0
 10 11  1  0  0  0
 10 50  1  0  0  0
 11 12  1  0  0  0
 12 18  1  0  0  0
 12 13  2  0  0  0
 13 14  1  0  0  0
 14 15  2  0  0  0
 14 16  1  0  0  0
 16 17  1  0  0  0
 16 31  1  0  0  0
 17 18  2  0  0  0
 17 19  1  0  0  0
 19 20  1  0  0  0
 19 51  1  0  0  0
 20 21  2  0  0  0
 21 22  1  0  0  0
 21 52  1  0  0  0
 22 27  2  0  0  0
 22 23  1  0  0  0
 23 24  2  0  0  0
 23 53  1  0  0  0
 24 25  1  0  0  0
 24 54  1  0  0  0
 25 26  2  0  0  0
 25 28  1  0  0  0
 26 27  1  0  0  0
 26 55  1  0  0  0
 27 56  1  0  0  0
 28 29  2  0  0  0
 28 30  1  0  0  0
 31 36  2  0  0  0
 31 32  1  0  0  0
 32 33  2  0  0  0
 32 57  1  0  0  0
 33 34  1  0  0  0
 33 58  1  0  0  0
 34 35  2  0  0  0
 34 59  1  0  0  0
 35 36  1  0  0  0
 35 60  1  0  0  0
 36 61  1  0  0  0
 37 62  1  0  0  0
 37 63  1  0  0  0
 37 64  1  0  0  0
M  CHG  2  28   1  30  -1
M  END
> <i_i_glide_confnum>
33

> <i_i_glide_lignum>
5611

> <i_i_glide_posenum>
114

> <i_i_glide_rotatable_bonds>
7

> <i_m_Source_File_Index>
4136

> <b_m_subgroup_collapsed>
0

> <r_i_docking_score>
-5.61889

> <r_i_glide_ecoul>
-1.81518

> <r_i_glide_eff_state_penalty>
0

> <r_i_glide_einternal>
20.9149

> <r_i_glide_emodel>
-48.5899

> <r_i_glide_energy>
-43.415

> <r_i_glide_erotb>
0.418155

> <r_i_glide_esite>
-0.0121776

> <r_i_glide_evdw>
-41.5999

> <r_i_glide_gscore>
-5.61889

> <r_i_glide_hbond>
0

> <r_i_glide_ligand_efficiency>
-0.151862

> <r_i_glide_ligand_efficiency_ln>
-1.21861

> <r_i_glide_ligand_efficiency_sa>
-0.506038

> <r_i_glide_lipo>
-3.16545

> <r_i_glide_metal>
0

> <r_i_glide_rewards>
-0.507154

> <s_i_glide_gridfile>
wee1_glide-grid

> <s_m_Source_File>
wee1_decoys_glide_SP.sdf

> <s_m_Source_Path>
/Users/zhangxujun/Desktop

> <s_m_entry_id>
4411

> <s_m_entry_name>
wee1_decoys_glide_SP.4136

> <s_m_subgroup_title>
wee1_decoys_glide_SP

> <s_m_subgroupid>
wee1_decoys_glide_SP


$$$$
