@<TRIPOS>MOLECULE
ZINC39666263_340
79   82    1
SMALL
USER_CHARGES


@<TRIPOS>ATOM
      1 C1         -0.4961   52.1964   14.1743 C.3       1 UNK         0.0000 
      2 C2         -0.8558   52.2596   15.6483 C.ar      1 UNK         0.0000 
      3 C3         -0.1958   51.4363   16.5631 C.ar      1 UNK         0.0000 
      4 C4         -0.5353   51.4859   17.9135 C.ar      1 UNK         0.0000 
      5 C5         -1.5400   52.3582   18.3653 C.ar      1 UNK         0.0000 
      6 C6         -2.1977   53.1674   17.4371 C.ar      1 UNK         0.0000 
      7 C7         -1.8615   53.1220   16.0854 C.ar      1 UNK         0.0000 
      8 O8         -1.9613   52.4966   19.6786 O.3       1 UNK         0.0000 
      9 C9         -1.3363   51.8387   20.7868 C.3       1 UNK         0.0000 
     10 H10        -1.8805   52.2405   21.6443 H         1 UNK         0.0000 
     11 C11        -1.6586   50.3277   20.7989 C.3       1 UNK         0.0000 
     12 C12         0.1584   52.2217   21.0233 C.3       1 UNK         0.0000 
     13 N13         0.6891   51.7771   22.3137 N.am      1 UNK         0.0000 
     14 C14         0.3830   52.2923   23.5171 C.2       1 UNK         0.0000 
     15 O15        -0.3105   53.2965   23.6816 O.2       1 UNK         0.0000 
     16 C16         0.9773   51.5505   24.7298 C.3       1 UNK         0.0000 
     17 H17         1.8713   51.0216   24.3937 H         1 UNK         0.0000 
     18 C18         1.3708   52.5766   25.8128 C.3       1 UNK         0.0000 
     19 N19         1.1414   51.8644   27.0687 N.am      1 UNK         0.0000 
     20 C20         0.5676   50.5342   26.8507 C.3       1 UNK         0.0000 
     21 C21        -0.0164   50.5737   25.4154 C.3       1 UNK         0.0000 
     22 C22        -1.5011   51.0751   25.4301 C.3       1 UNK         0.0000 
     23 C23        -2.4291   50.1550   26.2459 C.3       1 UNK         0.0000 
     24 N24        -2.3357   48.7186   25.6817 N.4       1 UNK         0.0000 
     25 C25        -0.8958   48.1934   25.4846 C.3       1 UNK         0.0000 
     26 C26        -0.0732   49.2114   24.6874 C.3       1 UNK         0.0000 
     27 C27         1.7101   52.2367   28.2428 C.2       1 UNK         0.0000 
     28 O28         1.8248   51.4499   29.1829 O.2       1 UNK         0.0000 
     29 C29         2.1523   53.7137   28.4551 C.3       1 UNK         0.0000 
     30 H30         1.8016   54.3416   27.6409 H         1 UNK         0.0000 
     31 C31         1.5552   54.3591   29.7448 C.3       1 UNK         0.0000 
     32 C32         1.8485   55.8752   29.7960 C.3       1 UNK         0.0000 
     33 C33         0.0481   54.0973   29.9484 C.3       1 UNK         0.0000 
     34 O34         3.5725   53.7348   28.6513 O.3       1 UNK         0.0000 
     35 C35         4.4588   54.0516   27.6396 C.ar      1 UNK         0.0000 
     36 C36         4.1173   54.6069   26.3964 C.ar      1 UNK         0.0000 
     37 C37         5.1048   54.8796   25.4533 C.ar      1 UNK         0.0000 
     38 C38         6.4384   54.6211   25.7531 C.ar      1 UNK         0.0000 
     39 C39         6.7883   54.0962   26.9936 C.ar      1 UNK         0.0000 
     40 C40         5.8004   53.8106   27.9271 C.ar      1 UNK         0.0000 
     41 H41        -0.1160   51.2092   13.9068 H         1 UNK         0.0000 
     42 H42        -1.3731   52.3725   13.5500 H         1 UNK         0.0000 
     43 H43         0.2611   52.9430   13.9302 H         1 UNK         0.0000 
     44 H44         0.5813   50.7590   16.2314 H         1 UNK         0.0000 
     45 H45        -0.0014   50.8271   18.5747 H         1 UNK         0.0000 
     46 H46        -2.9768   53.8401   17.7659 H         1 UNK         0.0000 
     47 H47        -2.3838   53.7534   15.3807 H         1 UNK         0.0000 
     48 H48        -1.2572   49.8426   21.6855 H         1 UNK         0.0000 
     49 H49        -2.7377   50.1696   20.8107 H         1 UNK         0.0000 
     50 H50        -1.2682   49.7915   19.9355 H         1 UNK         0.0000 
     51 H51         0.3045   53.2963   20.9220 H         1 UNK         0.0000 
     52 H52         0.8047   51.7986   20.2591 H         1 UNK         0.0000 
     53 H53         1.3256   50.9959   22.2786 H         1 UNK         0.0000 
     54 H54         0.7045   53.4352   25.8183 H         1 UNK         0.0000 
     55 H55         2.4210   52.8217   25.6659 H         1 UNK         0.0000 
     56 H56         1.3955   49.8240   26.8816 H         1 UNK         0.0000 
     57 H57        -0.0984   50.1786   27.6356 H         1 UNK         0.0000 
     58 H58        -1.5407   52.0678   25.8815 H         1 UNK         0.0000 
     59 H59        -1.9051   51.2009   24.4241 H         1 UNK         0.0000 
     60 H60        -2.1656   50.0980   27.2999 H         1 UNK         0.0000 
     61 H61        -3.4786   50.4448   26.1739 H         1 UNK         0.0000 
     62 H62        -2.7955   48.1005   26.3399 H         1 UNK         0.0000 
     63 H63        -0.4949   48.0824   26.4817 H         1 UNK         0.0000 
     64 H64        -0.9642   47.2141   25.0115 H         1 UNK         0.0000 
     65 H65        -0.4302   49.3085   23.6644 H         1 UNK         0.0000 
     66 H66         0.9384   48.8086   24.6072 H         1 UNK         0.0000 
     67 H67         2.0590   53.9049   30.5987 H         1 UNK         0.0000 
     68 H68         1.3270   56.4124   29.0027 H         1 UNK         0.0000 
     69 H69         1.5380   56.3114   30.7463 H         1 UNK         0.0000 
     70 H70         2.9121   56.0799   29.6798 H         1 UNK         0.0000 
     71 H71        -0.4959   54.2946   29.0288 H         1 UNK         0.0000 
     72 H72        -0.1473   53.0595   30.2258 H         1 UNK         0.0000 
     73 H73        -0.3644   54.7194   30.7430 H         1 UNK         0.0000 
     74 H74         3.1048   54.8528   26.1321 H         1 UNK         0.0000 
     75 H75         4.8383   55.2961   24.4934 H         1 UNK         0.0000 
     76 H76         7.2020   54.8298   25.0176 H         1 UNK         0.0000 
     77 H77         7.8209   53.9020   27.2405 H         1 UNK         0.0000 
     78 H78         6.0767   53.3937   28.8819 H         1 UNK         0.0000 
     79 H79        -2.8400   48.6652   24.8077 H         1 UNK         0.0000 
@<TRIPOS>BOND
     1    1    2 1    
     2    1   41 1    
     3    1   42 1    
     4    1   43 1    
     5    2    7 ar   
     6    2    3 ar   
     7    3    4 ar   
     8    3   44 1    
     9    4    5 ar   
    10    4   45 1    
    11    5    6 ar   
    12    5    8 1    
    13    6    7 ar   
    14    6   46 1    
    15    7   47 1    
    16    8    9 1    
    17    9   10 1    
    18    9   11 1    
    19    9   12 1    
    20   11   48 1    
    21   11   49 1    
    22   11   50 1    
    23   12   13 1    
    24   12   51 1    
    25   12   52 1    
    26   13   14 am   BACKBONE|DICT|INTERRES
    27   13   53 1    
    28   14   15 2    
    29   14   16 1    
    30   16   17 1    
    31   16   21 1    
    32   16   18 1    
    33   18   19 1    
    34   18   54 1    
    35   18   55 1    
    36   19   20 1    
    37   19   27 am   BACKBONE|DICT|INTERRES
    38   20   21 1    
    39   20   56 1    
    40   20   57 1    
    41   21   26 1    
    42   21   22 1    
    43   22   23 1    
    44   22   58 1    
    45   22   59 1    
    46   23   24 1    
    47   23   60 1    
    48   23   61 1    
    49   24   25 1    
    50   24   62 1    
    51   24   79 1    
    52   25   26 1    
    53   25   63 1    
    54   25   64 1    
    55   26   65 1    
    56   26   66 1    
    57   27   28 2    
    58   27   29 1    
    59   29   30 1    
    60   29   31 1    
    61   29   34 1    
    62   31   32 1    
    63   31   33 1    
    64   31   67 1    
    65   32   68 1    
    66   32   69 1    
    67   32   70 1    
    68   33   71 1    
    69   33   72 1    
    70   33   73 1    
    71   34   35 1    
    72   35   40 ar   
    73   35   36 ar   
    74   36   37 ar   
    75   36   74 1    
    76   37   38 ar   
    77   37   75 1    
    78   38   39 ar   
    79   38   76 1    
    80   39   40 ar   
    81   39   77 1    
    82   40   78 1    
@<TRIPOS>SUBSTRUCTURE
     1 UNK         1 GROUP             0       ****    0 ROOT    
