@<TRIPOS>MOLECULE
ZINC39884128_3349
48   52    1
SMALL
USER_CHARGES


@<TRIPOS>ATOM
      1 C1         -3.6354   50.2144   19.1681 C.ar      1 UNK         0.0000 
      2 C2         -3.5753   50.4757   17.8022 C.ar      1 UNK         0.0000 
      3 C3         -2.5590   49.9109   17.0364 C.ar      1 UNK         0.0000 
      4 C4         -1.6085   49.0798   17.6232 C.ar      1 UNK         0.0000 
      5 C5         -1.6718   48.8185   18.9891 C.ar      1 UNK         0.0000 
      6 C6         -2.6785   49.3925   19.7776 C.ar      1 UNK         0.0000 
      7 C7         -2.7657   49.1431   21.2956 C.3       1 UNK         0.0000 
      8 H8         -3.4439   49.9275   21.6403 H         1 UNK         0.0000 
      9 C9         -1.5024   49.3542   22.1268 C.2       1 UNK         0.0000 
     10 C10        -1.5075   49.2302   23.4650 C.2       1 UNK         0.0000 
     11 N11        -0.3133   49.4862   24.0803 N.am      1 UNK         0.0000 
     12 C12         0.7374   49.8314   23.2224 C.2       1 UNK         0.0000 
     13 O13         1.9048   50.1001   23.5018 O.2       1 UNK         0.0000 
     14 S14         0.0773   49.8523   21.5380 S.3       1 UNK         0.0000 
     15 C15        -0.0886   49.4500   25.5421 C.3       1 UNK         0.0000 
     16 C16        -0.0974   50.8671   26.1590 C.2       1 UNK         0.0000 
     17 O17        -0.1761   51.8808   25.4577 O.2       1 UNK         0.0000 
     18 N18        -0.0272   50.8967   27.5027 N.am      1 UNK         0.0000 
     19 C19         0.1884   52.0187   28.3236 C.ar      1 UNK         0.0000 
     20 C20        -0.3084   51.9646   29.6280 C.ar      1 UNK         0.0000 
     21 C21        -0.0954   53.0284   30.4998 C.ar      1 UNK         0.0000 
     22 C22         0.5932   54.1557   30.0608 C.ar      1 UNK         0.0000 
     23 C23         1.1115   54.2129   28.7706 C.ar      1 UNK         0.0000 
     24 C24         0.9197   53.1410   27.9032 C.ar      1 UNK         0.0000 
     25 F25         0.7431   55.2151   30.8848 F         1 UNK         0.0000 
     26 S26        -2.9469   48.7379   24.4185 S.3       1 UNK         0.0000 
     27 C27        -3.8584   47.7261   23.1753 C.3       1 UNK         0.0000 
     28 H28        -4.9159   47.9530   23.3139 H         1 UNK         0.0000 
     29 C29        -3.4556   47.8065   21.7054 C.3       1 UNK         0.0000 
     30 H30        -4.3559   47.6993   21.0979 H         1 UNK         0.0000 
     31 C31        -2.6831   46.4913   21.5340 C.2       1 UNK         0.0000 
     32 O32        -1.9961   46.2320   20.5517 O.2       1 UNK         0.0000 
     33 N33        -2.8931   45.6965   22.5500 N.2       1 UNK         0.0000 
     34 C34        -3.6169   46.2561   23.4815 C.2       1 UNK         0.0000 
     35 O35        -4.0554   45.6972   24.4863 O.2       1 UNK         0.0000 
     36 O36        -2.4954   50.1776   15.6973 O.3       1 UNK         0.0000 
     37 H37        -4.4295   50.6595   19.7504 H         1 UNK         0.0000 
     38 H38        -4.3101   51.1169   17.3380 H         1 UNK         0.0000 
     39 H39        -0.8184   48.6418   17.0323 H         1 UNK         0.0000 
     40 H40        -0.9231   48.1799   19.4316 H         1 UNK         0.0000 
     41 H41        -0.8265   48.8239   26.0476 H         1 UNK         0.0000 
     42 H42         0.8807   48.9902   25.7441 H         1 UNK         0.0000 
     43 H43        -0.2675   50.0322   27.9754 H         1 UNK         0.0000 
     44 H44        -0.8681   51.1045   29.9731 H         1 UNK         0.0000 
     45 H45        -0.4873   52.9844   31.5067 H         1 UNK         0.0000 
     46 H46         1.6532   55.0876   28.4435 H         1 UNK         0.0000 
     47 H47         1.3407   53.1942   26.9097 H         1 UNK         0.0000 
     48 H48        -1.7401   49.7653   15.2740 H         1 UNK         0.0000 
@<TRIPOS>BOND
     1    1    6 ar   
     2    1    2 ar   
     3    1   37 1    
     4    2    3 ar   
     5    2   38 1    
     6    3    4 ar   
     7    3   36 1    
     8    4    5 ar   
     9    4   39 1    
    10    5    6 ar   
    11    5   40 1    
    12    6    7 1    
    13    7    8 1    
    14    7   29 1    
    15    7    9 1    
    16    9   14 1    
    17    9   10 2    
    18   10   11 am   BACKBONE|DICT|INTERRES
    19   10   26 1    
    20   11   12 am   BACKBONE|DICT|INTERRES
    21   11   15 1    
    22   12   13 2    
    23   12   14 1    
    24   15   16 1    
    25   15   41 1    
    26   15   42 1    
    27   16   17 2    
    28   16   18 am   BACKBONE|DICT|INTERRES
    29   18   19 1    
    30   18   43 1    
    31   19   24 ar   
    32   19   20 ar   
    33   20   21 ar   
    34   20   44 1    
    35   21   22 ar   
    36   21   45 1    
    37   22   23 ar   
    38   22   25 1    
    39   23   24 ar   
    40   23   46 1    
    41   24   47 1    
    42   26   27 1    
    43   27   28 1    
    44   27   34 1    
    45   27   29 1    
    46   29   30 1    
    47   29   31 1    
    48   31   32 2    
    49   31   33 1    
    50   33   34 1    
    51   34   35 2    
    52   36   48 1    
@<TRIPOS>SUBSTRUCTURE
     1 UNK         1 GROUP             0       ****    0 ROOT    
