@<TRIPOS>MOLECULE
ZINC36290464_3769
36   39    1
SMALL
USER_CHARGES


@<TRIPOS>ATOM
      1 C1          6.1647   55.0816   18.3447 C.3       1 UNK         0.0000 
      2 C2          5.9825   54.8870   19.8386 C.ar      1 UNK         0.0000 
      3 C3          6.8655   55.4907   20.7339 C.ar      1 UNK         0.0000 
      4 C4          6.7045   55.2961   22.1028 C.ar      1 UNK         0.0000 
      5 C5          5.6606   54.4967   22.5895 C.ar      1 UNK         0.0000 
      6 C6          4.7943   53.8783   21.6819 C.ar      1 UNK         0.0000 
      7 C7          4.9527   54.0734   20.3124 C.ar      1 UNK         0.0000 
      8 C8          5.4609   54.3315   24.0678 C.ar      1 UNK         0.0000 
      9 C9          4.2589   54.1623   24.7735 C.ar      1 UNK         0.0000 
     10 N10         4.6286   54.0570   26.1161 N.pl3     1 UNK         0.0000 
     11 C11         4.0862   53.8801   27.4001 C.2       1 UNK         0.0000 
     12 C12         5.0982   53.9349   28.3432 C.2       1 UNK         0.0000 
     13 S13         6.7041   54.0967   27.6787 S.3       1 UNK         0.0000 
     14 C14         6.0073   54.1968   26.0851 C.ar      1 UNK         0.0000 
     15 N15         6.4966   54.3610   24.8829 N.2       1 UNK         0.0000 
     16 C16         2.6465   53.6075   27.7236 C.ar      1 UNK         0.0000 
     17 C17         2.1061   53.9746   28.9644 C.ar      1 UNK         0.0000 
     18 C18         0.8062   53.5749   29.2836 C.ar      1 UNK         0.0000 
     19 C19         0.0794   52.8132   28.3678 C.ar      1 UNK         0.0000 
     20 C20         0.6728   52.4983   27.1450 C.ar      1 UNK         0.0000 
     21 N21         1.9277   52.8965   26.8140 N.ar      1 UNK         0.0000 
     22 N22         2.9604   54.1287   24.3406 N.pl3     1 UNK         0.0000 
     23 H23         5.8595   54.1894   17.7964 H         1 UNK         0.0000 
     24 H24         7.2116   55.2568   18.0949 H         1 UNK         0.0000 
     25 H25         5.5716   55.9256   17.9927 H         1 UNK         0.0000 
     26 H26         7.6798   56.1005   20.3714 H         1 UNK         0.0000 
     27 H27         7.3946   55.7703   22.7865 H         1 UNK         0.0000 
     28 H28         3.9958   53.2405   22.0291 H         1 UNK         0.0000 
     29 H29         4.2757   53.5897   19.6227 H         1 UNK         0.0000 
     30 H30         4.9947   53.8223   29.4106 H         1 UNK         0.0000 
     31 H31         2.6846   54.5435   29.6763 H         1 UNK         0.0000 
     32 H32         0.3732   53.8340   30.2391 H         1 UNK         0.0000 
     33 H33        -0.9172   52.4693   28.6022 H         1 UNK         0.0000 
     34 H34         0.1437   51.9087   26.4101 H         1 UNK         0.0000 
     35 H35         2.7163   54.2905   23.3739 H         1 UNK         0.0000 
     36 H36         2.2022   53.9121   24.9750 H         1 UNK         0.0000 
@<TRIPOS>BOND
     1    1    2 1    
     2    1   23 1    
     3    1   24 1    
     4    1   25 1    
     5    2    7 ar   
     6    2    3 ar   
     7    3    4 ar   
     8    3   26 1    
     9    4    5 ar   
    10    4   27 1    
    11    5    6 ar   
    12    5    8 1    
    13    6    7 ar   
    14    6   28 1    
    15    7   29 1    
    16    8   15 ar   
    17    8    9 ar   
    18    9   10 ar   
    19    9   22 1    
    20   10   14 ar   
    21   10   11 1    
    22   11   12 2    
    23   11   16 1    
    24   12   13 1    
    25   12   30 1    
    26   13   14 1    
    27   14   15 ar   
    28   16   21 ar   
    29   16   17 ar   
    30   17   18 ar   
    31   17   31 1    
    32   18   19 ar   
    33   18   32 1    
    34   19   20 ar   
    35   19   33 1    
    36   20   21 ar   
    37   20   34 1    
    38   22   35 1    
    39   22   36 1    
@<TRIPOS>SUBSTRUCTURE
     1 UNK         1 GROUP             0       ****    0 ROOT    
