ZINC03318397_5373
                    3D
 Schrodinger Suite 2024-2.
 65 68  0  0  1  0            999 V2000
    0.7112   52.8573   31.3789 C   0  0  0  0  0  0
    1.6264   53.1128   30.1952 C   0  0  0  0  0  0
    2.8839   52.5046   30.1296 C   0  0  0  0  0  0
    3.7139   52.7393   29.0333 C   0  0  0  0  0  0
    3.2972   53.5962   28.0045 C   0  0  0  0  0  0
    2.0391   54.2057   28.0812 C   0  0  0  0  0  0
    1.2048   53.9623   29.1695 C   0  0  0  0  0  0
    4.1413   53.8495   26.8897 N   0  0  0  0  0  0
    5.4739   54.2357   26.9533 C   0  0  0  0  0  0
    5.9132   54.4095   25.6566 C   0  0  0  0  0  0
    4.8933   54.0968   24.7527 C   0  0  0  0  0  0
    3.7898   53.7474   25.5429 C   0  0  0  0  0  0
    2.4061   53.2863   25.1018 C   0  0  0  0  0  0
    4.9909   54.0967   23.2943 C   0  0  0  0  0  0
    5.9045   54.7562   22.7048 N   0  0  0  0  0  0
    5.8481   54.6487   21.3631 N   0  0  0  0  0  0
    6.5873   55.4278   20.5436 C   0  0  0  0  0  0
    7.1044   56.4965   20.8823 O   0  0  0  0  0  0
    6.8182   54.8823   19.1575 C   0  0  0  0  0  0
    5.8803   54.0440   18.5302 C   0  0  0  0  0  0
    6.1385   53.5231   17.2637 C   0  0  0  0  0  0
    7.3246   53.8368   16.6004 C   0  0  0  0  0  0
    8.2657   54.6678   17.2142 C   0  0  0  0  0  0
    8.0105   55.1899   18.4848 C   0  0  0  0  0  0
    9.8075   55.0709   16.4009 S   0  0  0  0  0  0
    9.7121   54.6672   14.9928 O   0  0  0  0  0  0
   10.1419   56.4505   16.7745 O   0  0  0  0  0  0
   11.0346   54.0550   17.1736 N   0  0  0  0  0  0
   11.3595   52.7462   16.7816 C   0  0  0  0  0  0
   12.6375   52.2713   17.0882 C   0  0  0  0  0  0
   13.0076   50.9745   16.7354 C   0  0  0  0  0  0
   12.1116   50.1493   16.0565 C   0  0  0  0  0  0
   10.8274   50.6172   15.7589 C   0  0  0  0  0  0
   10.4527   51.9081   16.1233 C   0  0  0  0  0  0
   12.5240   48.8777   15.7303 O   0  0  0  0  0  0
   12.3238   48.4820   14.3765 C   0  0  0  0  0  0
    6.2388   54.4316   28.2424 C   0  0  0  0  0  0
   -0.3048   52.6427   31.0378 H   0  0  0  0  0  0
    0.6624   53.7386   32.0217 H   0  0  0  0  0  0
    1.0313   52.0009   31.9761 H   0  0  0  0  0  0
    3.2195   51.8589   30.9297 H   0  0  0  0  0  0
    4.6726   52.2423   28.9876 H   0  0  0  0  0  0
    1.6961   54.8703   27.2999 H   0  0  0  0  0  0
    0.2302   54.4310   29.2174 H   0  0  0  0  0  0
    6.9127   54.7139   25.3745 H   0  0  0  0  0  0
    2.4047   52.8841   24.0873 H   0  0  0  0  0  0
    2.0162   52.4932   25.7404 H   0  0  0  0  0  0
    1.6834   54.0996   25.1184 H   0  0  0  0  0  0
    4.2248   53.5064   22.7973 H   0  0  0  0  0  0
    5.2836   53.8907   21.0034 H   0  0  0  0  0  0
    4.9426   53.7846   19.0069 H   0  0  0  0  0  0
    5.4192   52.8626   16.7996 H   0  0  0  0  0  0
    7.5061   53.4304   15.6159 H   0  0  0  0  0  0
    8.7511   55.8270   18.9533 H   0  0  0  0  0  0
   11.5222   54.4564   17.9603 H   0  0  0  0  0  0
   13.3495   52.8998   17.6058 H   0  0  0  0  0  0
   13.9957   50.6081   16.9756 H   0  0  0  0  0  0
   10.1147   49.9829   15.2529 H   0  0  0  0  0  0
    9.4554   52.2427   15.8893 H   0  0  0  0  0  0
   12.7601   47.4937   14.2241 H   0  0  0  0  0  0
   11.2664   48.4187   14.1125 H   0  0  0  0  0  0
   12.8158   49.1713   13.6860 H   0  0  0  0  0  0
    7.2051   54.8942   28.0498 H   0  0  0  0  0  0
    5.7057   55.0722   28.9437 H   0  0  0  0  0  0
    6.4598   53.4939   28.7468 H   0  0  0  0  0  0
  1  2  1  0  0  0
  1 38  1  0  0  0
  1 39  1  0  0  0
  1 40  1  0  0  0
  2  7  2  0  0  0
  2  3  1  0  0  0
  3  4  2  0  0  0
  3 41  1  0  0  0
  4  5  1  0  0  0
  4 42  1  0  0  0
  5  6  2  0  0  0
  5  8  1  0  0  0
  6  7  1  0  0  0
  6 43  1  0  0  0
  7 44  1  0  0  0
  8 12  1  0  0  0
  8  9  1  0  0  0
  9 10  2  0  0  0
  9 37  1  0  0  0
 10 11  1  0  0  0
 10 45  1  0  0  0
 11 12  2  0  0  0
 11 14  1  0  0  0
 12 13  1  0  0  0
 13 46  1  0  0  0
 13 47  1  0  0  0
 13 48  1  0  0  0
 14 15  2  0  0  0
 14 49  1  0  0  0
 15 16  1  0  0  0
 16 17  1  0  0  0
 16 50  1  0  0  0
 17 18  2  0  0  0
 17 19  1  0  0  0
 19 24  2  0  0  0
 19 20  1  0  0  0
 20 21  2  0  0  0
 20 51  1  0  0  0
 21 22  1  0  0  0
 21 52  1  0  0  0
 22 23  2  0  0  0
 22 53  1  0  0  0
 23 24  1  0  0  0
 23 25  1  0  0  0
 24 54  1  0  0  0
 25 26  2  0  0  0
 25 27  2  0  0  0
 25 28  1  0  0  0
 28 29  1  0  0  0
 28 55  1  0  0  0
 29 34  2  0  0  0
 29 30  1  0  0  0
 30 31  2  0  0  0
 30 56  1  0  0  0
 31 32  1  0  0  0
 31 57  1  0  0  0
 32 33  2  0  0  0
 32 35  1  0  0  0
 33 34  1  0  0  0
 33 58  1  0  0  0
 34 59  1  0  0  0
 35 36  1  0  0  0
 36 60  1  0  0  0
 36 61  1  0  0  0
 36 62  1  0  0  0
 37 63  1  0  0  0
 37 64  1  0  0  0
 37 65  1  0  0  0
M  END
> <i_i_glide_confnum>
193

> <i_i_glide_lignum>
5374

> <i_i_glide_posenum>
366

> <i_i_glide_rotatable_bonds>
9

> <i_m_Source_File_Index>
2522

> <b_m_subgroup_collapsed>
0

> <r_i_docking_score>
-5.69375

> <r_i_glide_ecoul>
-4.15393

> <r_i_glide_eff_state_penalty>
0

> <r_i_glide_einternal>
9.90929

> <r_i_glide_emodel>
-66.2579

> <r_i_glide_energy>
-54.0252

> <r_i_glide_erotb>
0.615289

> <r_i_glide_esite>
-0.000432564

> <r_i_glide_evdw>
-49.8713

> <r_i_glide_gscore>
-5.69375

> <r_i_glide_hbond>
-0.265466

> <r_i_glide_ligand_efficiency>
-0.153885

> <r_i_glide_ligand_efficiency_ln>
-1.23484

> <r_i_glide_ligand_efficiency_sa>
-0.512779

> <r_i_glide_lipo>
-2.85868

> <r_i_glide_metal>
0

> <r_i_glide_rewards>
-0.0678078

> <s_i_glide_gridfile>
wee1_glide-grid

> <s_m_Source_File>
wee1_decoys_glide_SP.sdf

> <s_m_Source_Path>
/Users/zhangxujun/Desktop

> <s_m_entry_id>
2797

> <s_m_entry_name>
wee1_decoys_glide_SP.2522

> <s_m_subgroup_title>
wee1_decoys_glide_SP

> <s_m_subgroupid>
wee1_decoys_glide_SP


$$$$
