@<TRIPOS>MOLECULE
ZINC67438541_6232
61   62    1
SMALL
USER_CHARGES


@<TRIPOS>ATOM
      1 C1          6.6593   54.9125   27.4205 C.3       1 UNK         0.0000 
      2 C2          5.9398   54.5730   26.1291 C.ar      1 UNK         0.0000 
      3 C3          6.6838   54.6785   24.9481 C.ar      1 UNK         0.0000 
      4 C4          6.0947   54.4349   23.7129 C.ar      1 UNK         0.0000 
      5 C5          4.7457   54.0969   23.6275 C.ar      1 UNK         0.0000 
      6 C6          3.9825   54.0301   24.8056 C.ar      1 UNK         0.0000 
      7 C7          4.5732   54.2105   26.0624 C.ar      1 UNK         0.0000 
      8 N8          3.7097   53.9812   27.1594 N.am      1 UNK         0.0000 
      9 C9          3.9631   53.1915   28.2367 C.2       1 UNK         0.0000 
     10 O10         5.0946   52.8791   28.6054 O.2       1 UNK         0.0000 
     11 C11         2.7795   52.6333   28.9790 C.2       1 UNK         0.0000 
     12 O12         2.9393   52.0976   30.0823 O.2       1 UNK         0.0000 
     13 N13         1.5671   52.6705   28.3662 N.am      1 UNK         0.0000 
     14 C14         0.3568   52.0002   28.8820 C.3       1 UNK         0.0000 
     15 H15         0.6272   50.9615   29.0851 H         1 UNK         0.0000 
     16 C16        -0.1220   52.6065   30.2214 C.3       1 UNK         0.0000 
     17 C17        -0.8100   51.9814   27.8527 C.3       1 UNK         0.0000 
     18 N18        -0.7252   50.7708   26.8823 N.4       1 UNK         0.0000 
     19 C19         0.2373   51.0458   25.6955 C.3       1 UNK         0.0000 
     20 C20         0.3396   49.7708   24.8213 C.3       1 UNK         0.0000 
     21 H21         0.7079   48.9561   25.4523 H         1 UNK         0.0000 
     22 C22        -1.0668   49.3987   24.3137 C.3       1 UNK         0.0000 
     23 C23        -2.0181   49.1002   25.4883 C.3       1 UNK         0.0000 
     24 H24        -1.5724   48.2982   26.0817 H         1 UNK         0.0000 
     25 C25        -2.1362   50.3550   26.3870 C.3       1 UNK         0.0000 
     26 C26        -3.3976   48.6249   25.0014 C.3       1 UNK         0.0000 
     27 C27         1.3188   49.9513   23.6483 C.3       1 UNK         0.0000 
     28 N28         4.2706   53.7840   22.3402 N.am      1 UNK         0.0000 
     29 C29         3.0922   53.2460   21.9698 C.2       1 UNK         0.0000 
     30 O30         2.1442   53.0116   22.7163 O.2       1 UNK         0.0000 
     31 C31         2.9761   52.8969   20.4924 C.3       1 UNK         0.0000 
     32 H32         7.1976   54.0489   27.8149 H         1 UNK         0.0000 
     33 H33         7.3886   55.6964   27.2492 H         1 UNK         0.0000 
     34 H34         5.9761   55.2973   28.1765 H         1 UNK         0.0000 
     35 H35         7.7299   54.9390   24.9715 H         1 UNK         0.0000 
     36 H36         6.7096   54.4954   22.8251 H         1 UNK         0.0000 
     37 H37         2.9379   53.7664   24.7667 H         1 UNK         0.0000 
     38 H38         2.7456   54.1975   26.9706 H         1 UNK         0.0000 
     39 H39         1.4886   53.0751   27.4489 H         1 UNK         0.0000 
     40 H40        -1.0199   52.1006   30.5796 H         1 UNK         0.0000 
     41 H41         0.6070   52.4930   31.0244 H         1 UNK         0.0000 
     42 H42        -0.3689   53.6620   30.1232 H         1 UNK         0.0000 
     43 H43        -1.7541   51.8325   28.3778 H         1 UNK         0.0000 
     44 H44        -0.8956   52.8856   27.2491 H         1 UNK         0.0000 
     45 H45        -0.1381   51.9122   25.1446 H         1 UNK         0.0000 
     46 H46         1.2007   51.2960   26.1302 H         1 UNK         0.0000 
     47 H47        -1.0035   48.5254   23.6605 H         1 UNK         0.0000 
     48 H48        -1.4698   50.1746   23.6601 H         1 UNK         0.0000 
     49 H49        -2.7149   50.1037   27.2800 H         1 UNK         0.0000 
     50 H50        -2.5852   51.2121   25.8805 H         1 UNK         0.0000 
     51 H51        -3.9079   49.3902   24.4159 H         1 UNK         0.0000 
     52 H52        -3.3148   47.7317   24.3823 H         1 UNK         0.0000 
     53 H53        -4.0400   48.3707   25.8458 H         1 UNK         0.0000 
     54 H54         0.9621   50.6974   22.9378 H         1 UNK         0.0000 
     55 H55         2.3042   50.2625   23.9945 H         1 UNK         0.0000 
     56 H56         1.4528   49.0165   23.1023 H         1 UNK         0.0000 
     57 H57         4.9347   53.9276   21.5957 H         1 UNK         0.0000 
     58 H58         3.5471   51.9974   20.2622 H         1 UNK         0.0000 
     59 H59         3.3512   53.7083   19.8670 H         1 UNK         0.0000 
     60 H60         1.9341   52.7215   20.2199 H         1 UNK         0.0000 
     61 H61        -0.3916   49.9635   27.4029 H         1 UNK         0.0000 
@<TRIPOS>BOND
     1    1    2 1    
     2    1   32 1    
     3    1   33 1    
     4    1   34 1    
     5    2    7 ar   
     6    2    3 ar   
     7    3    4 ar   
     8    3   35 1    
     9    4    5 ar   
    10    4   36 1    
    11    5    6 ar   
    12    5   28 1    
    13    6    7 ar   
    14    6   37 1    
    15    7    8 1    
    16    8    9 am   BACKBONE|DICT|INTERRES
    17    8   38 1    
    18    9   10 2    
    19    9   11 1    
    20   11   12 2    
    21   11   13 am   BACKBONE|DICT|INTERRES
    22   13   14 1    
    23   13   39 1    
    24   14   15 1    
    25   14   16 1    
    26   14   17 1    
    27   16   40 1    
    28   16   41 1    
    29   16   42 1    
    30   17   18 1    
    31   17   43 1    
    32   17   44 1    
    33   18   25 1    
    34   18   19 1    
    35   18   61 1    
    36   19   20 1    
    37   19   45 1    
    38   19   46 1    
    39   20   21 1    
    40   20   22 1    
    41   20   27 1    
    42   22   23 1    
    43   22   47 1    
    44   22   48 1    
    45   23   24 1    
    46   23   25 1    
    47   23   26 1    
    48   25   49 1    
    49   25   50 1    
    50   26   51 1    
    51   26   52 1    
    52   26   53 1    
    53   27   54 1    
    54   27   55 1    
    55   27   56 1    
    56   28   29 am   BACKBONE|DICT|INTERRES
    57   28   57 1    
    58   29   30 2    
    59   29   31 1    
    60   31   58 1    
    61   31   59 1    
    62   31   60 1    
@<TRIPOS>SUBSTRUCTURE
     1 UNK         1 GROUP             0       ****    0 ROOT    
