@<TRIPOS>MOLECULE
ZINC63480170_3090
66   70    1
SMALL
USER_CHARGES


@<TRIPOS>ATOM
      1 C1         -4.6791   48.7022   28.7109 C.3       1 UNK         0.0000 
      2 C2         -4.9167   49.6985   27.5579 C.3       1 UNK         0.0000 
      3 C3         -5.8730   50.8427   27.9467 C.3       1 UNK         0.0000 
      4 N4         -3.6721   50.1678   26.9441 N.am      1 UNK         0.0000 
      5 C5         -2.7095   50.8967   27.5387 C.2       1 UNK         0.0000 
      6 O6         -2.7966   51.2968   28.6957 O.2       1 UNK         0.0000 
      7 C7         -1.4102   51.1714   26.7299 C.3       1 UNK         0.0000 
      8 H8         -0.7093   50.3884   27.0251 H         1 UNK         0.0000 
      9 C9         -0.7662   52.5546   27.0377 C.3       1 UNK         0.0000 
     10 C10         0.2267   52.5698   28.1977 C.2       1 UNK         0.0000 
     11 C11         1.5372   52.8831   28.2119 C.2       1 UNK         0.0000 
     12 C12         2.4361   53.2947   27.1214 C.2       1 UNK         0.0000 
     13 C13         3.7358   53.5599   27.3614 C.2       1 UNK         0.0000 
     14 C14         4.2247   53.4135   28.7251 C.2       1 UNK         0.0000 
     15 C15         3.4069   53.0457   29.7470 C.2       1 UNK         0.0000 
     16 C16         2.0469   52.7972   29.5131 C.2       1 UNK         0.0000 
     17 N17         1.0947   52.4789   30.3578 N.pl3     1 UNK         0.0000 
     18 C18        -0.1718   52.2944   29.6334 C.3       1 UNK         0.0000 
     19 N19        -1.5748   50.9915   25.2768 N.am      1 UNK         0.0000 
     20 C20        -2.3655   51.7297   24.4706 C.2       1 UNK         0.0000 
     21 O21        -3.1030   52.6211   24.8908 O.2       1 UNK         0.0000 
     22 C22        -2.3278   51.4509   22.9466 C.3       1 UNK         0.0000 
     23 H23        -2.9224   52.2406   22.4863 H         1 UNK         0.0000 
     24 C24        -2.9740   50.0470   22.5484 C.3       1 UNK         0.0000 
     25 S25        -1.6597   49.1255   21.6809 S.3       1 UNK         0.0000 
     26 C26        -0.9440   50.6489   21.0809 C.3       1 UNK         0.0000 
     27 H27        -1.5294   51.0141   20.2357 H         1 UNK         0.0000 
     28 N28        -1.0218   51.5026   22.2442 N.am      1 UNK         0.0000 
     29 C29         0.1451   52.0958   22.6110 C.2       1 UNK         0.0000 
     30 O30         0.3365   52.8870   23.5353 O.2       1 UNK         0.0000 
     31 C31         1.1461   51.5414   21.6447 C.ar      1 UNK         0.0000 
     32 C32         0.5218   50.6480   20.7873 C.ar      1 UNK         0.0000 
     33 C33         1.2577   49.9892   19.8020 C.ar      1 UNK         0.0000 
     34 C34         2.6244   50.2451   19.6820 C.ar      1 UNK         0.0000 
     35 C35         3.2508   51.1498   20.5448 C.ar      1 UNK         0.0000 
     36 C36         2.5142   51.8004   21.5391 C.ar      1 UNK         0.0000 
     37 C37        -3.4877   49.1025   23.6677 C.3       1 UNK         0.0000 
     38 C38        -4.1329   50.2702   21.5502 C.3       1 UNK         0.0000 
     39 H39        -5.6237   48.3711   29.1421 H         1 UNK         0.0000 
     40 H40        -4.1502   47.8124   28.3671 H         1 UNK         0.0000 
     41 H41        -4.1063   49.1470   29.5260 H         1 UNK         0.0000 
     42 H42        -5.4217   49.1363   26.7702 H         1 UNK         0.0000 
     43 H43        -6.7864   50.4477   28.3913 H         1 UNK         0.0000 
     44 H44        -5.4334   51.5060   28.6916 H         1 UNK         0.0000 
     45 H45        -6.1673   51.4298   27.0766 H         1 UNK         0.0000 
     46 H46        -3.4881   49.8479   26.0070 H         1 UNK         0.0000 
     47 H47        -1.5351   53.3020   27.2075 H         1 UNK         0.0000 
     48 H48        -0.2225   52.8967   26.1578 H         1 UNK         0.0000 
     49 H49         2.0827   53.3923   26.1039 H         1 UNK         0.0000 
     50 H50         4.4012   53.8552   26.5623 H         1 UNK         0.0000 
     51 H51         5.2734   53.5885   28.9225 H         1 UNK         0.0000 
     52 H52         3.8333   52.9341   30.7336 H         1 UNK         0.0000 
     53 H53        -0.5248   51.2801   29.8095 H         1 UNK         0.0000 
     54 H54        -0.8955   52.9993   30.0357 H         1 UNK         0.0000 
     55 H55        -0.9915   50.2789   24.8616 H         1 UNK         0.0000 
     56 H56         0.7834   49.3046   19.1146 H         1 UNK         0.0000 
     57 H57         3.1931   49.7532   18.9045 H         1 UNK         0.0000 
     58 H58         4.3056   51.3496   20.4273 H         1 UNK         0.0000 
     59 H59         3.0055   52.5014   22.1990 H         1 UNK         0.0000 
     60 H60        -4.2810   49.5713   24.2507 H         1 UNK         0.0000 
     61 H61        -3.9084   48.1861   23.2511 H         1 UNK         0.0000 
     62 H62        -2.6968   48.7922   24.3506 H         1 UNK         0.0000 
     63 H63        -4.9776   50.7599   22.0368 H         1 UNK         0.0000 
     64 H64        -3.8389   50.8963   20.7073 H         1 UNK         0.0000 
     65 H65        -4.5003   49.3287   21.1392 H         1 UNK         0.0000 
     66 H66         1.1924   52.3620   31.3640 H         1 UNK         0.0000 
@<TRIPOS>BOND
     1    1    2 1    
     2    1   39 1    
     3    1   40 1    
     4    1   41 1    
     5    2    3 1    
     6    2    4 1    
     7    2   42 1    
     8    3   43 1    
     9    3   44 1    
    10    3   45 1    
    11    4    5 am   BACKBONE|DICT|INTERRES
    12    4   46 1    
    13    5    6 2    
    14    5    7 1    
    15    7    8 1    
    16    7    9 1    
    17    7   19 1    
    18    9   10 1    
    19    9   47 1    
    20    9   48 1    
    21   10   18 1    
    22   10   11 2    
    23   11   16 1    
    24   11   12 1    
    25   12   13 2    
    26   12   49 1    
    27   13   14 1    
    28   13   50 1    
    29   14   15 2    
    30   14   51 1    
    31   15   16 1    
    32   15   52 1    
    33   16   17 2    
    34   17   18 1    
    35   17   66 1    
    36   18   53 1    
    37   18   54 1    
    38   19   20 am   BACKBONE|DICT|INTERRES
    39   19   55 1    
    40   20   21 2    
    41   20   22 1    
    42   22   23 1    
    43   22   28 1    
    44   22   24 1    
    45   24   25 1    
    46   24   37 1    
    47   24   38 1    
    48   25   26 1    
    49   26   27 1    
    50   26   32 1    
    51   26   28 1    
    52   28   29 am   BACKBONE|DICT|INTERRES
    53   29   30 2    
    54   29   31 1    
    55   31   36 ar   
    56   31   32 ar   
    57   32   33 ar   
    58   33   34 ar   
    59   33   56 1    
    60   34   35 ar   
    61   34   57 1    
    62   35   36 ar   
    63   35   58 1    
    64   36   59 1    
    65   37   60 1    
    66   37   61 1    
    67   37   62 1    
    68   38   63 1    
    69   38   64 1    
    70   38   65 1    
@<TRIPOS>SUBSTRUCTURE
     1 UNK         1 GROUP             0       ****    0 ROOT    
