ZINC40399621_2515
                    3D
 Schrodinger Suite 2024-2.
 51 54  0  0  1  0            999 V2000
    6.5572   54.8508   26.0574 C   0  0  0  0  0  0
    5.4943   54.5352   25.0217 C   0  0  0  0  0  0
    4.1793   54.2732   25.4176 C   0  0  0  0  0  0
    3.1994   53.9769   24.4653 C   0  0  0  0  0  0
    3.5358   53.9564   23.1091 C   0  0  0  0  0  0
    4.8435   54.2327   22.7026 C   0  0  0  0  0  0
    5.8294   54.4967   23.6654 C   0  0  0  0  0  0
    5.1053   54.2276   21.3271 N   0  0  0  0  0  0
    5.9057   55.0775   20.6436 C   0  0  0  0  0  0
    6.4911   56.0241   21.1754 O   0  0  0  0  0  0
    6.0951   54.8509   19.1106 C   0  0  1  0  0  0
    7.1841   54.8274   19.0217 H   0  0  0  0  0  0
    5.5069   53.4703   18.6173 C   0  0  0  0  0  0
    3.9596   53.4879   18.4369 C   0  0  0  0  0  0
    3.2159   52.5597   18.7372 O   0  0  0  0  0  0
    3.5044   54.6337   17.8904 N   0  0  0  0  0  0
    4.2213   55.7651   17.7390 C   0  0  0  0  0  0
    5.4631   55.9593   18.2422 C   0  0  0  0  0  0
    6.1094   57.2456   18.0170 C   0  0  0  0  0  0
    7.2104   57.5747   18.4444 O   0  0  0  0  0  0
    5.3586   58.0969   17.2811 N   0  0  0  0  0  0
    5.7743   59.0062   17.1512 H   0  0  0  0  0  0
    4.1089   57.8523   16.7923 C   0  0  0  0  0  0
    3.5580   56.7108   17.0216 N   0  0  0  0  0  0
    3.4790   58.8967   16.0631 N   0  0  0  0  0  0
    2.2356   59.0033   15.4126 C   0  0  0  0  0  0
    1.9030   60.2543   14.8834 C   0  0  0  0  0  0
    0.6789   60.4583   14.2515 C   0  0  0  0  0  0
   -0.2220   59.4041   14.1397 C   0  0  0  0  0  0
    0.0964   58.1483   14.6476 C   0  0  0  0  0  0
    1.3214   57.9472   15.2796 C   0  0  0  0  0  0
   -1.4141   59.6012   13.5332 F   0  0  0  0  0  0
    1.7712   53.6968   24.8945 C   0  0  0  0  0  0
    7.5041   54.3978   25.7697 H   0  0  0  0  0  0
    6.2971   54.4450   27.0364 H   0  0  0  0  0  0
    6.7056   55.9277   26.1403 H   0  0  0  0  0  0
    3.9196   54.2960   26.4661 H   0  0  0  0  0  0
    2.7722   53.7465   22.3720 H   0  0  0  0  0  0
    6.8483   54.6948   23.3622 H   0  0  0  0  0  0
    4.5375   53.5968   20.7812 H   0  0  0  0  0  0
    5.8963   53.2521   17.6218 H   0  0  0  0  0  0
    5.8068   52.6251   19.2402 H   0  0  0  0  0  0
    2.5342   54.6511   17.6285 H   0  0  0  0  0  0
    3.9594   59.7914   16.1031 H   0  0  0  0  0  0
    2.5915   61.0832   14.9764 H   0  0  0  0  0  0
    0.4277   61.4296   13.8528 H   0  0  0  0  0  0
   -0.6075   57.3351   14.5535 H   0  0  0  0  0  0
    1.5345   56.9628   15.6644 H   0  0  0  0  0  0
    1.0690   54.1745   24.2099 H   0  0  0  0  0  0
    1.5756   52.6244   24.8907 H   0  0  0  0  0  0
    1.5659   54.0955   25.8888 H   0  0  0  0  0  0
  1  2  1  0  0  0
  1 34  1  0  0  0
  1 35  1  0  0  0
  1 36  1  0  0  0
  2  7  2  0  0  0
  2  3  1  0  0  0
  3  4  2  0  0  0
  3 37  1  0  0  0
  4  5  1  0  0  0
  4 33  1  0  0  0
  5  6  2  0  0  0
  5 38  1  0  0  0
  6  7  1  0  0  0
  6  8  1  0  0  0
  7 39  1  0  0  0
  8  9  1  0  0  0
  8 40  1  0  0  0
  9 10  2  0  0  0
  9 11  1  0  0  0
 11 12  1  0  0  0
 11 18  1  0  0  0
 11 13  1  0  0  0
 13 14  1  0  0  0
 13 41  1  0  0  0
 13 42  1  0  0  0
 14 15  2  0  0  0
 14 16  1  0  0  0
 16 17  1  0  0  0
 16 43  1  0  0  0
 17 24  1  0  0  0
 17 18  2  0  0  0
 18 19  1  0  0  0
 19 20  2  0  0  0
 19 21  1  0  0  0
 21 22  1  0  0  0
 21 23  1  0  0  0
 23 24  2  0  0  0
 23 25  1  0  0  0
 25 26  1  0  0  0
 25 44  1  0  0  0
 26 31  2  0  0  0
 26 27  1  0  0  0
 27 28  2  0  0  0
 27 45  1  0  0  0
 28 29  1  0  0  0
 28 46  1  0  0  0
 29 30  2  0  0  0
 29 32  1  0  0  0
 30 31  1  0  0  0
 30 47  1  0  0  0
 31 48  1  0  0  0
 33 49  1  0  0  0
 33 50  1  0  0  0
 33 51  1  0  0  0
M  END
> <i_i_glide_confnum>
116

> <i_i_glide_lignum>
2516

> <i_i_glide_posenum>
36

> <i_i_glide_rotatable_bonds>
5

> <i_m_Source_File_Index>
4841

> <b_m_subgroup_collapsed>
0

> <r_i_docking_score>
-5.66937

> <r_i_glide_ecoul>
-7.35666

> <r_i_glide_eff_state_penalty>
0

> <r_i_glide_einternal>
5.82188

> <r_i_glide_emodel>
-58.1449

> <r_i_glide_energy>
-44.5917

> <r_i_glide_erotb>
0.557475

> <r_i_glide_esite>
-0.216985

> <r_i_glide_evdw>
-37.235

> <r_i_glide_gscore>
-5.66937

> <r_i_glide_hbond>
-0.16

> <r_i_glide_ligand_efficiency>
-0.182883

> <r_i_glide_ligand_efficiency_ln>
-1.27862

> <r_i_glide_ligand_efficiency_sa>
-0.574505

> <r_i_glide_lipo>
-2.21532

> <r_i_glide_metal>
0

> <r_i_glide_rewards>
-0.669294

> <s_i_glide_gridfile>
wee1_glide-grid

> <s_m_Source_File>
wee1_decoys_glide_SP.sdf

> <s_m_Source_Path>
/Users/zhangxujun/Desktop

> <s_m_entry_id>
5116

> <s_m_entry_name>
wee1_decoys_glide_SP.4841

> <s_m_subgroup_title>
wee1_decoys_glide_SP

> <s_m_subgroupid>
wee1_decoys_glide_SP


$$$$
