ZINC03360619_2652
                    3D
 Schrodinger Suite 2024-2.
 44 47  0  0  1  0            999 V2000
    4.1135   54.4270   27.9431 C   0  0  0  0  0  0
    2.8010   54.0393   27.7154 C   0  0  0  0  0  0
    2.3942   53.6963   26.4302 C   0  0  0  0  0  0
    3.2827   53.7381   25.3459 C   0  0  0  0  0  0
    4.6196   54.1803   25.5663 C   0  0  0  0  0  0
    5.0078   54.4966   26.8800 C   0  0  0  0  0  0
    5.6692   54.3414   24.4727 C   0  0  0  0  0  0
    6.8662   54.3573   24.7657 O   0  0  0  0  0  0
    5.2049   54.4963   23.2133 N   0  0  0  0  0  0
    5.8976   54.7875   22.0271 C   0  0  0  0  0  0
    7.1503   55.4162   21.9914 C   0  0  0  0  0  0
    7.7756   55.6960   20.7753 C   0  0  0  0  0  0
    7.1368   55.3638   19.5835 C   0  0  0  0  0  0
    5.8723   54.7548   19.6094 C   0  0  0  0  0  0
    5.2471   54.4859   20.8261 C   0  0  0  0  0  0
    5.1843   54.4483   18.4539 O   0  0  0  0  0  0
    6.0217   54.3392   17.2978 C   0  0  0  0  0  0
    7.0021   55.5371   17.2326 C   0  0  0  0  0  0
    7.8207   55.5909   18.4071 O   0  0  0  0  0  0
    2.8608   53.2962   24.0751 N   0  0  0  0  0  0
    1.1981   53.0137   23.5418 S   0  0  0  0  0  0
    0.3615   54.0828   24.0813 O   0  0  0  0  0  0
    1.2753   52.7443   22.1030 O   0  0  0  0  0  0
    0.7045   51.4640   24.3239 C   0  0  0  0  0  0
    1.0940   50.1923   23.9196 C   0  0  0  0  0  0
    0.5146   49.1868   24.7006 C   0  0  0  0  0  0
   -0.3156   49.6846   25.6929 C   0  0  0  0  0  0
   -0.4086   51.4122   25.6585 S   0  0  0  0  0  0
    4.4399   54.6875   28.9403 H   0  0  0  0  0  0
    2.0987   53.9903   28.5348 H   0  0  0  0  0  0
    1.3733   53.3853   26.2969 H   0  0  0  0  0  0
    6.0168   54.8211   27.0972 H   0  0  0  0  0  0
    4.2015   54.4301   23.1147 H   0  0  0  0  0  0
    7.6561   55.6994   22.9000 H   0  0  0  0  0  0
    8.7595   56.1405   20.7585 H   0  0  0  0  0  0
    4.2669   54.0297   20.8201 H   0  0  0  0  0  0
    6.5907   53.4090   17.3500 H   0  0  0  0  0  0
    5.4018   54.2985   16.4027 H   0  0  0  0  0  0
    7.6388   55.4642   16.3518 H   0  0  0  0  0  0
    6.4298   56.4642   17.1522 H   0  0  0  0  0  0
    3.5622   52.8644   23.4937 H   0  0  0  0  0  0
    1.7700   49.9995   23.0991 H   0  0  0  0  0  0
    0.7044   48.1321   24.5606 H   0  0  0  0  0  0
   -0.8645   49.1265   26.4423 H   0  0  0  0  0  0
  1  6  2  0  0  0
  1  2  1  0  0  0
  1 29  1  0  0  0
  2  3  2  0  0  0
  2 30  1  0  0  0
  3  4  1  0  0  0
  3 31  1  0  0  0
  4  5  2  0  0  0
  4 20  1  0  0  0
  5  6  1  0  0  0
  5  7  1  0  0  0
  6 32  1  0  0  0
  7  8  2  0  0  0
  7  9  1  0  0  0
  9 10  1  0  0  0
  9 33  1  0  0  0
 10 15  2  0  0  0
 10 11  1  0  0  0
 11 12  2  0  0  0
 11 34  1  0  0  0
 12 13  1  0  0  0
 12 35  1  0  0  0
 13 19  1  0  0  0
 13 14  2  0  0  0
 14 15  1  0  0  0
 14 16  1  0  0  0
 15 36  1  0  0  0
 16 17  1  0  0  0
 17 18  1  0  0  0
 17 37  1  0  0  0
 17 38  1  0  0  0
 18 19  1  0  0  0
 18 39  1  0  0  0
 18 40  1  0  0  0
 20 21  1  0  0  0
 20 41  1  0  0  0
 21 22  2  0  0  0
 21 23  2  0  0  0
 21 24  1  0  0  0
 24 28  1  0  0  0
 24 25  2  0  0  0
 25 26  1  0  0  0
 25 42  1  0  0  0
 26 27  2  0  0  0
 26 43  1  0  0  0
 27 28  1  0  0  0
 27 44  1  0  0  0
M  END
> <i_i_glide_confnum>
30

> <i_i_glide_lignum>
2653

> <i_i_glide_posenum>
86

> <i_i_glide_rotatable_bonds>
6

> <i_m_Source_File_Index>
3448

> <b_m_subgroup_collapsed>
0

> <r_i_docking_score>
-5.10996

> <r_i_glide_ecoul>
-3.7353

> <r_i_glide_eff_state_penalty>
0

> <r_i_glide_einternal>
5.774

> <r_i_glide_emodel>
-54.0139

> <r_i_glide_energy>
-41.9225

> <r_i_glide_erotb>
0.683413

> <r_i_glide_esite>
0

> <r_i_glide_evdw>
-38.1872

> <r_i_glide_gscore>
-5.10996

> <r_i_glide_hbond>
0

> <r_i_glide_ligand_efficiency>
-0.182498

> <r_i_glide_ligand_efficiency_ln>
-1.17953

> <r_i_glide_ligand_efficiency_sa>
-0.554173

> <r_i_glide_lipo>
-2.22903

> <r_i_glide_metal>
0

> <r_i_glide_rewards>
-1.09469

> <s_i_glide_gridfile>
wee1_glide-grid

> <s_m_Source_File>
wee1_decoys_glide_SP.sdf

> <s_m_Source_Path>
/Users/zhangxujun/Desktop

> <s_m_entry_id>
3723

> <s_m_entry_name>
wee1_decoys_glide_SP.3448

> <s_m_subgroup_title>
wee1_decoys_glide_SP

> <s_m_subgroupid>
wee1_decoys_glide_SP


$$$$
