@<TRIPOS>MOLECULE
ZINC16026695_4978
63   67    1
SMALL
USER_CHARGES


@<TRIPOS>ATOM
      1 C1          3.1408   54.1761   16.0222 C.3       1 UNK         0.0000 
      2 C2          3.6285   52.7880   16.4629 C.3       1 UNK         0.0000 
      3 O3          3.1366   52.4379   17.7526 O.3       1 UNK         0.0000 
      4 C4          3.7209   52.8972   18.8912 C.2       1 UNK         0.0000 
      5 O5          4.6275   53.7343   18.9136 O.2       1 UNK         0.0000 
      6 C6          3.0771   52.3531   20.1265 C.ar      1 UNK         0.0000 
      7 C7          3.2079   53.0502   21.3326 C.ar      1 UNK         0.0000 
      8 C8          2.5818   52.5864   22.4840 C.ar      1 UNK         0.0000 
      9 C9          1.8308   51.4104   22.4530 C.ar      1 UNK         0.0000 
     10 C10         1.7365   50.6814   21.2607 C.ar      1 UNK         0.0000 
     11 C11         2.3540   51.1525   20.1046 C.ar      1 UNK         0.0000 
     12 N12         1.2148   51.0495   23.6627 N.am      1 UNK         0.0000 
     13 C13         0.2407   50.1448   23.9043 C.2       1 UNK         0.0000 
     14 O14        -0.2778   49.4348   23.0379 O.2       1 UNK         0.0000 
     15 C15        -0.2892   50.0263   25.3597 C.3       1 UNK         0.0000 
     16 H16        -0.1308   48.9661   25.5728 H         1 UNK         0.0000 
     17 C17         0.4688   50.8242   26.4580 C.3       1 UNK         0.0000 
     18 C18        -0.5847   51.5562   27.3009 C.3       1 UNK         0.0000 
     19 H19        -0.7999   52.5281   26.8537 H         1 UNK         0.0000 
     20 C20        -1.8192   50.3020   25.5473 C.3       1 UNK         0.0000 
     21 C21        -2.7721   49.1848   25.2221 C.ar      1 UNK         0.0000 
     22 C22        -2.8537   47.8676   25.6822 C.ar      1 UNK         0.0000 
     23 C23        -3.8542   47.0272   25.1873 C.ar      1 UNK         0.0000 
     24 C24        -4.7520   47.4923   24.2219 C.ar      1 UNK         0.0000 
     25 C25        -4.6598   48.8036   23.7509 C.ar      1 UNK         0.0000 
     26 C26        -3.6650   49.6336   24.2652 C.ar      1 UNK         0.0000 
     27 N27        -3.4105   50.9649   23.9814 N.am      1 UNK         0.0000 
     28 C28        -2.4071   51.4794   24.7118 C.2       1 UNK         0.0000 
     29 O29        -2.0352   52.6515   24.7115 O.2       1 UNK         0.0000 
     30 C30        -0.1993   51.7957   28.7760 C.3       1 UNK         0.0000 
     31 C31         1.0353   52.6743   28.9490 C.ar      1 UNK         0.0000 
     32 C32         0.8920   54.0576   29.0673 C.ar      1 UNK         0.0000 
     33 C33         2.0164   54.8686   29.2096 C.ar      1 UNK         0.0000 
     34 C34         3.2833   54.2888   29.2323 C.ar      1 UNK         0.0000 
     35 C35         3.4357   52.9083   29.1231 C.ar      1 UNK         0.0000 
     36 C36         2.3095   52.0995   28.9816 C.ar      1 UNK         0.0000 
     37 H37         3.4723   54.3975   15.0080 H         1 UNK         0.0000 
     38 H38         3.5295   54.9590   16.6729 H         1 UNK         0.0000 
     39 H39         2.0530   54.2346   16.0380 H         1 UNK         0.0000 
     40 H40         3.2639   52.0385   15.7614 H         1 UNK         0.0000 
     41 H41         4.7176   52.7289   16.4352 H         1 UNK         0.0000 
     42 H42         3.7660   53.9746   21.3782 H         1 UNK         0.0000 
     43 H43         2.6751   53.1602   23.3944 H         1 UNK         0.0000 
     44 H44         1.1961   49.7511   21.1993 H         1 UNK         0.0000 
     45 H45         2.2676   50.5709   19.1956 H         1 UNK         0.0000 
     46 H46         1.4986   51.6083   24.4512 H         1 UNK         0.0000 
     47 H47         0.9964   50.1002   27.0810 H         1 UNK         0.0000 
     48 H48         1.2078   51.5535   26.1272 H         1 UNK         0.0000 
     49 H49        -2.1658   47.4947   26.4285 H         1 UNK         0.0000 
     50 H50        -3.9358   46.0187   25.5605 H         1 UNK         0.0000 
     51 H51        -5.5247   46.8393   23.8429 H         1 UNK         0.0000 
     52 H52        -5.3621   49.1595   23.0111 H         1 UNK         0.0000 
     53 H53        -3.9568   51.5242   23.3466 H         1 UNK         0.0000 
     54 H54        -1.0333   52.2495   29.3132 H         1 UNK         0.0000 
     55 H55        -0.0288   50.8500   29.2823 H         1 UNK         0.0000 
     56 H56        -0.0930   54.4980   29.0420 H         1 UNK         0.0000 
     57 H57         1.9048   55.9384   29.2998 H         1 UNK         0.0000 
     58 H58         4.1595   54.9140   29.3322 H         1 UNK         0.0000 
     59 H59         4.4239   52.4696   29.1381 H         1 UNK         0.0000 
     60 H60         2.4256   51.0311   28.8824 H         1 UNK         0.0000 
     61 N61        -1.8581   50.7409   27.0258 N.4       1 UNK         0.0000 
     62 H62        -2.7146   51.2117   27.2768 H         1 UNK         0.0000 
     63 H63        -1.8075   49.8895   27.5936 H         1 UNK         0.0000 
@<TRIPOS>BOND
     1    1    2 1    
     2    1   37 1    
     3    1   38 1    
     4    1   39 1    
     5    2    3 1    
     6    2   40 1    
     7    2   41 1    
     8    3    4 1    
     9    4    5 2    
    10    4    6 1    
    11    6   11 ar   
    12    6    7 ar   
    13    7    8 ar   
    14    7   42 1    
    15    8    9 ar   
    16    8   43 1    
    17    9   10 ar   
    18    9   12 1    
    19   10   11 ar   
    20   10   44 1    
    21   11   45 1    
    22   12   13 am   BACKBONE|DICT|INTERRES
    23   12   46 1    
    24   13   14 2    
    25   13   15 1    
    26   15   16 1    
    27   15   20 1    
    28   15   17 1    
    29   17   18 1    
    30   17   47 1    
    31   17   48 1    
    32   18   19 1    
    33   18   30 1    
    34   18   61 1    
    35   20   28 1    
    36   20   21 1    
    37   20   61 1    
    38   21   26 ar   
    39   21   22 ar   
    40   22   23 ar   
    41   22   49 1    
    42   23   24 ar   
    43   23   50 1    
    44   24   25 ar   
    45   24   51 1    
    46   25   26 ar   
    47   25   52 1    
    48   26   27 1    
    49   27   28 am   BACKBONE|DICT|INTERRES
    50   27   53 1    
    51   28   29 2    
    52   30   31 1    
    53   30   54 1    
    54   30   55 1    
    55   31   36 ar   
    56   31   32 ar   
    57   32   33 ar   
    58   32   56 1    
    59   33   34 ar   
    60   33   57 1    
    61   34   35 ar   
    62   34   58 1    
    63   35   36 ar   
    64   35   59 1    
    65   36   60 1    
    66   61   62 1    
    67   61   63 1    
@<TRIPOS>SUBSTRUCTURE
     1 UNK         1 GROUP             0       ****    0 ROOT    
