@<TRIPOS>MOLECULE
ZINC26608274_3224
64   67    1
SMALL
USER_CHARGES


@<TRIPOS>ATOM
      1 C1          2.4753   54.3136   29.6813 C.3       1 UNK         0.0000 
      2 C2          2.8944   52.8356   29.5614 C.3       1 UNK         0.0000 
      3 C3          3.5042   52.3061   30.8659 C.3       1 UNK         0.0000 
      4 O4          1.7692   51.9977   29.3221 O.3       1 UNK         0.0000 
      5 C5          1.0988   52.0176   28.1170 C.ar      1 UNK         0.0000 
      6 C6          1.5250   52.6749   26.9554 C.ar      1 UNK         0.0000 
      7 C7          0.7499   52.6145   25.7979 C.ar      1 UNK         0.0000 
      8 C8         -0.4477   51.8884   25.7693 C.ar      1 UNK         0.0000 
      9 C9         -0.8356   51.2040   26.9249 C.ar      1 UNK         0.0000 
     10 C10        -0.0845   51.2967   28.0876 C.ar      1 UNK         0.0000 
     11 C11        -1.3247   51.9117   24.4893 C.3       1 UNK         0.0000 
     12 H12        -1.2015   52.9368   24.1322 H         1 UNK         0.0000 
     13 C13        -2.8634   51.7308   24.7162 C.3       1 UNK         0.0000 
     14 H14        -3.3730   51.9894   23.7868 H         1 UNK         0.0000 
     15 C15        -3.4541   52.6746   25.7975 C.3       1 UNK         0.0000 
     16 N16        -4.8547   52.3090   26.0747 N.am      1 UNK         0.0000 
     17 C17        -5.2279   50.9098   26.3862 C.3       1 UNK         0.0000 
     18 C18        -4.2694   49.9328   25.7155 C.2       1 UNK         0.0000 
     19 C19        -3.2005   50.2490   24.9534 C.2       1 UNK         0.0000 
     20 C20        -2.3481   49.2094   24.3603 C.2       1 UNK         0.0000 
     21 C21        -1.2536   49.5153   23.6230 C.2       1 UNK         0.0000 
     22 C22        -0.8318   50.9692   23.3380 C.3       1 UNK         0.0000 
     23 C23        -1.4753   51.3743   22.0734 C.1       1 UNK         0.0000 
     24 N24        -1.9827   51.6968   21.0835 N.1       1 UNK         0.0000 
     25 C25         0.6273   51.0812   23.1274 C.1       1 UNK         0.0000 
     26 N26         1.7679   51.1673   22.9525 N.1       1 UNK         0.0000 
     27 N27        -0.4955   48.5507   22.9958 N.pl3     1 UNK         0.0000 
     28 C28        -2.6733   47.8213   24.5462 C.1       1 UNK         0.0000 
     29 N29        -2.9010   46.6884   24.6484 N.1       1 UNK         0.0000 
     30 C30        -5.7590   53.3602   26.3222 C.2       1 UNK         0.0000 
     31 O31        -5.4944   54.5599   26.2167 O.2       1 UNK         0.0000 
     32 O32        -6.9888   52.9047   26.6939 O.3       1 UNK         0.0000 
     33 C33        -8.0320   53.7855   27.1178 C.3       1 UNK         0.0000 
     34 C34        -8.6488   54.6168   25.9903 C.ar      1 UNK         0.0000 
     35 C35        -8.5736   54.2228   24.6499 C.ar      1 UNK         0.0000 
     36 C36        -9.1309   55.0232   23.6556 C.ar      1 UNK         0.0000 
     37 C37        -9.7711   56.2114   24.0051 C.ar      1 UNK         0.0000 
     38 C38        -9.8655   56.6026   25.3377 C.ar      1 UNK         0.0000 
     39 C39        -9.3072   55.7999   26.3300 C.ar      1 UNK         0.0000 
     40 H40         3.3366   54.9466   29.8959 H         1 UNK         0.0000 
     41 H41         1.7433   54.4522   30.4782 H         1 UNK         0.0000 
     42 H42         2.0261   54.6888   28.7633 H         1 UNK         0.0000 
     43 H43         3.6362   52.7167   28.7697 H         1 UNK         0.0000 
     44 H44         4.3034   52.9510   31.2205 H         1 UNK         0.0000 
     45 H45         2.7577   52.2504   31.6606 H         1 UNK         0.0000 
     46 H46         3.9144   51.3048   30.7291 H         1 UNK         0.0000 
     47 H47         2.4448   53.2352   26.9330 H         1 UNK         0.0000 
     48 H48         1.0816   53.1559   24.9237 H         1 UNK         0.0000 
     49 H49        -1.7331   50.6104   26.9762 H         1 UNK         0.0000 
     50 H50        -0.4242   50.7902   28.9779 H         1 UNK         0.0000 
     51 H51        -2.8973   52.7287   26.7323 H         1 UNK         0.0000 
     52 H52        -3.4014   53.6746   25.3622 H         1 UNK         0.0000 
     53 H53        -6.2425   50.6814   26.0548 H         1 UNK         0.0000 
     54 H54        -5.2111   50.7466   27.4659 H         1 UNK         0.0000 
     55 H55        -4.4803   48.8868   25.8888 H         1 UNK         0.0000 
     56 H56         0.3290   48.7905   22.4611 H         1 UNK         0.0000 
     57 H57        -0.7006   47.5694   23.1218 H         1 UNK         0.0000 
     58 H58        -8.8220   53.1871   27.5724 H         1 UNK         0.0000 
     59 H59        -7.6471   54.4494   27.8944 H         1 UNK         0.0000 
     60 H60        -8.0750   53.3073   24.3676 H         1 UNK         0.0000 
     61 H61        -9.0579   54.7247   22.6208 H         1 UNK         0.0000 
     62 H62       -10.1943   56.8339   23.2319 H         1 UNK         0.0000 
     63 H63       -10.3606   57.5254   25.6013 H         1 UNK         0.0000 
     64 H64        -9.3797   56.0978   27.3633 H         1 UNK         0.0000 
@<TRIPOS>BOND
     1    1    2 1    
     2    1   40 1    
     3    1   41 1    
     4    1   42 1    
     5    2    3 1    
     6    2    4 1    
     7    2   43 1    
     8    3   44 1    
     9    3   45 1    
    10    3   46 1    
    11    4    5 1    
    12    5   10 ar   
    13    5    6 ar   
    14    6    7 ar   
    15    6   47 1    
    16    7    8 ar   
    17    7   48 1    
    18    8    9 ar   
    19    8   11 1    
    20    9   10 ar   
    21    9   49 1    
    22   10   50 1    
    23   11   12 1    
    24   11   22 1    
    25   11   13 1    
    26   13   14 1    
    27   13   19 1    
    28   13   15 1    
    29   15   16 1    
    30   15   51 1    
    31   15   52 1    
    32   16   17 1    
    33   16   30 am   BACKBONE|DICT|INTERRES
    34   17   18 1    
    35   17   53 1    
    36   17   54 1    
    37   18   19 2    
    38   18   55 1    
    39   19   20 1    
    40   20   21 2    
    41   20   28 1    
    42   21   22 1    
    43   21   27 1    
    44   22   23 1    
    45   22   25 1    
    46   23   24 3    
    47   25   26 3    
    48   27   56 1    
    49   27   57 1    
    50   28   29 3    
    51   30   31 2    
    52   30   32 1    
    53   32   33 1    
    54   33   34 1    
    55   33   58 1    
    56   33   59 1    
    57   34   39 ar   
    58   34   35 ar   
    59   35   36 ar   
    60   35   60 1    
    61   36   37 ar   
    62   36   61 1    
    63   37   38 ar   
    64   37   62 1    
    65   38   39 ar   
    66   38   63 1    
    67   39   64 1    
@<TRIPOS>SUBSTRUCTURE
     1 UNK         1 GROUP             0       ****    0 ROOT    
