@<TRIPOS>MOLECULE
ZINC63571878_1153
68   72    1
SMALL
USER_CHARGES


@<TRIPOS>ATOM
      1 C1          2.6660   46.1106   15.5858 C.3       1 UNK         0.0000 
      2 C2          1.3166   46.7680   15.9206 C.3       1 UNK         0.0000 
      3 O3          1.4939   47.9119   16.7496 O.3       1 UNK         0.0000 
      4 C4          1.6368   47.8015   18.0872 C.2       1 UNK         0.0000 
      5 O5          1.5026   46.7680   18.7421 O.2       1 UNK         0.0000 
      6 C6          1.9958   49.1371   18.7503 C.3       1 UNK         0.0000 
      7 C7          1.0899   49.6588   19.9165 C.3       1 UNK         0.0000 
      8 C8         -0.3912   49.7759   19.4556 C.3       1 UNK         0.0000 
      9 C9         -1.2922   50.4177   20.5421 C.3       1 UNK         0.0000 
     10 C10        -1.2328   49.6125   21.8614 C.3       1 UNK         0.0000 
     11 C11         0.2102   49.2817   22.3116 C.3       1 UNK         0.0000 
     12 C12         1.0276   48.6894   21.1389 C.3       1 UNK         0.0000 
     13 N13         1.6053   50.9915   20.2892 N.am      1 UNK         0.0000 
     14 C14         2.8172   51.3108   20.7941 C.2       1 UNK         0.0000 
     15 O15         3.7424   50.5132   20.8775 O.2       1 UNK         0.0000 
     16 N16         2.9178   52.5742   21.2707 N.am      1 UNK         0.0000 
     17 C17         1.9832   52.7942   22.4115 C.3       1 UNK         0.0000 
     18 C18         2.1073   54.2228   22.9237 C.3       1 UNK         0.0000 
     19 C19         3.5350   54.3533   23.3525 C.2       1 UNK         0.0000 
     20 C20         4.1773   54.4317   24.5264 C.2       1 UNK         0.0000 
     21 C21         3.7002   54.4518   25.9148 C.2       1 UNK         0.0000 
     22 C22         4.5776   54.4960   26.9385 C.2       1 UNK         0.0000 
     23 C23         6.0002   54.5197   26.6221 C.2       1 UNK         0.0000 
     24 C24         6.4516   54.4931   25.3399 C.2       1 UNK         0.0000 
     25 C25         5.5506   54.4339   24.2716 C.2       1 UNK         0.0000 
     26 N26         5.7842   54.3540   22.9782 N.pl3     1 UNK         0.0000 
     27 C27         4.5126   54.3522   22.2145 C.3       1 UNK         0.0000 
     28 H28         4.4699   55.2966   21.6824 H         1 UNK         0.0000 
     29 C29         4.2952   53.1989   21.1785 C.3       1 UNK         0.0000 
     30 H30         5.0346   52.4350   21.4276 H         1 UNK         0.0000 
     31 C31         4.6970   53.7255   19.7743 C.ar      1 UNK         0.0000 
     32 C32         5.9393   54.3500   19.5824 C.ar      1 UNK         0.0000 
     33 C33         6.3215   54.8140   18.3265 C.ar      1 UNK         0.0000 
     34 C34         5.4603   54.6692   17.2456 C.ar      1 UNK         0.0000 
     35 C35         4.2174   54.0706   17.4138 C.ar      1 UNK         0.0000 
     36 C36         3.8368   53.6075   18.6703 C.ar      1 UNK         0.0000 
     37 F37         5.8320   55.1181   16.0255 F         1 UNK         0.0000 
     38 H38         2.5351   45.2743   14.8992 H         1 UNK         0.0000 
     39 H39         3.1576   45.7326   16.4817 H         1 UNK         0.0000 
     40 H40         3.3447   46.8252   15.1179 H         1 UNK         0.0000 
     41 H41         0.8413   47.0961   14.9957 H         1 UNK         0.0000 
     42 H42         0.6367   46.0485   16.3809 H         1 UNK         0.0000 
     43 H43         3.0239   49.0239   19.0893 H         1 UNK         0.0000 
     44 H44         2.0501   49.8940   17.9671 H         1 UNK         0.0000 
     45 H45        -0.4418   50.4047   18.5648 H         1 UNK         0.0000 
     46 H46        -0.7918   48.8052   19.1559 H         1 UNK         0.0000 
     47 H47        -0.9938   51.4508   20.7259 H         1 UNK         0.0000 
     48 H48        -2.3220   50.4637   20.1874 H         1 UNK         0.0000 
     49 H49        -1.7572   50.1514   22.6517 H         1 UNK         0.0000 
     50 H50        -1.7778   48.6765   21.7242 H         1 UNK         0.0000 
     51 H51         0.6929   50.1765   22.7036 H         1 UNK         0.0000 
     52 H52         0.1864   48.5733   23.1415 H         1 UNK         0.0000 
     53 H53         0.6093   47.7129   20.8807 H         1 UNK         0.0000 
     54 H54         2.0417   48.4976   21.4925 H         1 UNK         0.0000 
     55 H55         0.9318   51.7381   20.2232 H         1 UNK         0.0000 
     56 H56         0.9462   52.6816   22.0901 H         1 UNK         0.0000 
     57 H57         2.1995   52.0996   23.2265 H         1 UNK         0.0000 
     58 H58         1.8733   54.8962   22.0973 H         1 UNK         0.0000 
     59 H59         1.4046   54.4162   23.7354 H         1 UNK         0.0000 
     60 H60         2.6460   54.4284   26.1484 H         1 UNK         0.0000 
     61 H61         4.2384   54.5049   27.9643 H         1 UNK         0.0000 
     62 H62         6.7118   54.5525   27.4361 H         1 UNK         0.0000 
     63 H63         7.5115   54.4990   25.1519 H         1 UNK         0.0000 
     64 H64         6.6253   54.4952   20.4013 H         1 UNK         0.0000 
     65 H65         7.2814   55.2872   18.1857 H         1 UNK         0.0000 
     66 H66         3.5518   53.9634   16.5706 H         1 UNK         0.0000 
     67 H67         2.8625   53.1546   18.7608 H         1 UNK         0.0000 
     68 H68         6.7059   54.3293   22.5524 H         1 UNK         0.0000 
@<TRIPOS>BOND
     1    1    2 1    
     2    1   38 1    
     3    1   39 1    
     4    1   40 1    
     5    2    3 1    
     6    2   41 1    
     7    2   42 1    
     8    3    4 1    
     9    4    5 2    
    10    4    6 1    
    11    6    7 1    
    12    6   43 1    
    13    6   44 1    
    14    7   12 1    
    15    7    8 1    
    16    7   13 1    
    17    8    9 1    
    18    8   45 1    
    19    8   46 1    
    20    9   10 1    
    21    9   47 1    
    22    9   48 1    
    23   10   11 1    
    24   10   49 1    
    25   10   50 1    
    26   11   12 1    
    27   11   51 1    
    28   11   52 1    
    29   12   53 1    
    30   12   54 1    
    31   13   14 am   BACKBONE|DICT|INTERRES
    32   13   55 1    
    33   14   15 2    
    34   14   16 am   BACKBONE|DICT|INTERRES
    35   16   29 1    
    36   16   17 1    
    37   17   18 1    
    38   17   56 1    
    39   17   57 1    
    40   18   19 1    
    41   18   58 1    
    42   18   59 1    
    43   19   27 1    
    44   19   20 2    
    45   20   25 1    
    46   20   21 1    
    47   21   22 2    
    48   21   60 1    
    49   22   23 1    
    50   22   61 1    
    51   23   24 2    
    52   23   62 1    
    53   24   25 1    
    54   24   63 1    
    55   25   26 2    
    56   26   27 1    
    57   26   68 1    
    58   27   28 1    
    59   27   29 1    
    60   29   30 1    
    61   29   31 1    
    62   31   36 ar   
    63   31   32 ar   
    64   32   33 ar   
    65   32   64 1    
    66   33   34 ar   
    67   33   65 1    
    68   34   35 ar   
    69   34   37 1    
    70   35   36 ar   
    71   35   66 1    
    72   36   67 1    
@<TRIPOS>SUBSTRUCTURE
     1 UNK         1 GROUP             0       ****    0 ROOT    
