@<TRIPOS>MOLECULE
ZINC38598010_278
56   59    1
SMALL
USER_CHARGES


@<TRIPOS>ATOM
      1 C1          0.6764   46.6905   18.7584 C.ar      1 UNK         0.0000 
      2 C2         -0.5782   46.9002   19.3320 C.ar      1 UNK         0.0000 
      3 C3         -0.8796   48.1297   19.9166 C.ar      1 UNK         0.0000 
      4 C4          0.0731   49.1504   19.9445 C.ar      1 UNK         0.0000 
      5 C5          1.3542   48.9257   19.4070 C.ar      1 UNK         0.0000 
      6 C6          1.6343   47.7048   18.7860 C.ar      1 UNK         0.0000 
      7 N7          2.3628   49.8988   19.3660 N.am      1 UNK         0.0000 
      8 C8          2.7941   50.6334   20.4081 C.2       1 UNK         0.0000 
      9 O9          2.2802   50.6664   21.5259 O.2       1 UNK         0.0000 
     10 N10         3.9045   51.3074   20.0818 N.am      1 UNK         0.0000 
     11 C11         4.6979   52.1603   20.9646 C.3       1 UNK         0.0000 
     12 C12         4.2195   53.6414   21.0021 C.3       1 UNK         0.0000 
     13 H13         3.2271   53.7014   20.5479 H         1 UNK         0.0000 
     14 C14         5.0963   54.6063   20.2070 C.2       1 UNK         0.0000 
     15 C15         4.9009   55.2945   19.0154 C.2       1 UNK         0.0000 
     16 C16         6.0620   56.0222   18.7568 C.2       1 UNK         0.0000 
     17 C17         6.9303   55.7416   19.7946 C.2       1 UNK         0.0000 
     18 O18         6.3401   54.8956   20.6761 O.3       1 UNK         0.0000 
     19 N19         3.9704   54.1812   22.4449 N.4       1 UNK         0.0000 
     20 C20         5.1726   54.0610   23.4177 C.3       1 UNK         0.0000 
     21 C21         4.8148   54.5679   24.8373 C.3       1 UNK         0.0000 
     22 N22         3.5290   54.0951   25.3833 N.pl3     1 UNK         0.0000 
     23 C23         2.4253   54.2291   24.4183 C.3       1 UNK         0.0000 
     24 C24         2.7079   53.5538   23.0689 C.3       1 UNK         0.0000 
     25 C25         3.3298   53.7948   26.7331 C.ar      1 UNK         0.0000 
     26 C26         4.1609   54.3423   27.7231 C.ar      1 UNK         0.0000 
     27 C27         4.0095   53.9895   29.0610 C.ar      1 UNK         0.0000 
     28 C28         3.0180   53.0845   29.4274 C.ar      1 UNK         0.0000 
     29 C29         2.1667   52.5457   28.4674 C.ar      1 UNK         0.0000 
     30 C30         2.3212   52.8989   27.1288 C.ar      1 UNK         0.0000 
     31 F31         2.8852   52.7230   30.7233 F         1 UNK         0.0000 
     32 F32        -0.2773   50.3489   20.4682 F         1 UNK         0.0000 
     33 H33         0.9069   45.7461   18.2871 H         1 UNK         0.0000 
     34 H34        -1.3229   46.1169   19.3089 H         1 UNK         0.0000 
     35 H35        -1.8603   48.3008   20.3393 H         1 UNK         0.0000 
     36 H36         2.6018   47.5373   18.3292 H         1 UNK         0.0000 
     37 H37         2.9911   49.8321   18.5764 H         1 UNK         0.0000 
     38 H38         4.3654   51.0507   19.2049 H         1 UNK         0.0000 
     39 H39         5.7184   52.1141   20.5868 H         1 UNK         0.0000 
     40 H40         4.7538   51.7009   21.9495 H         1 UNK         0.0000 
     41 H41         4.0114   55.2685   18.4027 H         1 UNK         0.0000 
     42 H42         6.2480   56.6643   17.9090 H         1 UNK         0.0000 
     43 H43         7.9419   56.0464   20.0245 H         1 UNK         0.0000 
     44 H44         5.5041   53.0222   23.4408 H         1 UNK         0.0000 
     45 H45         5.9623   54.6943   23.0147 H         1 UNK         0.0000 
     46 H46         4.7046   55.6532   24.8069 H         1 UNK         0.0000 
     47 H47         5.6449   54.3569   25.5136 H         1 UNK         0.0000 
     48 H48         1.4791   53.8781   24.8265 H         1 UNK         0.0000 
     49 H49         2.2910   55.2968   24.2537 H         1 UNK         0.0000 
     50 H50         2.8532   52.4781   23.1609 H         1 UNK         0.0000 
     51 H51         1.8870   53.7576   22.3776 H         1 UNK         0.0000 
     52 H52         4.9391   55.0452   27.4656 H         1 UNK         0.0000 
     53 H53         4.6690   54.4090   29.8065 H         1 UNK         0.0000 
     54 H54         1.3989   51.8441   28.7578 H         1 UNK         0.0000 
     55 H55         1.6759   52.4339   26.3980 H         1 UNK         0.0000 
     56 H56         3.7604   55.1657   22.3523 H         1 UNK         0.0000 
@<TRIPOS>BOND
     1    1    6 ar   
     2    1    2 ar   
     3    1   33 1    
     4    2    3 ar   
     5    2   34 1    
     6    3    4 ar   
     7    3   35 1    
     8    4    5 ar   
     9    4   32 1    
    10    5    6 ar   
    11    5    7 1    
    12    6   36 1    
    13    7    8 am   BACKBONE|DICT|INTERRES
    14    7   37 1    
    15    8    9 2    
    16    8   10 am   BACKBONE|DICT|INTERRES
    17   10   11 1    
    18   10   38 1    
    19   11   12 1    
    20   11   39 1    
    21   11   40 1    
    22   12   13 1    
    23   12   14 1    
    24   12   19 1    
    25   14   18 1    
    26   14   15 2    
    27   15   16 1    
    28   15   41 1    
    29   16   17 2    
    30   16   42 1    
    31   17   18 1    
    32   17   43 1    
    33   19   24 1    
    34   19   20 1    
    35   19   56 1    
    36   20   21 1    
    37   20   44 1    
    38   20   45 1    
    39   21   22 1    
    40   21   46 1    
    41   21   47 1    
    42   22   23 1    
    43   22   25 1    
    44   23   24 1    
    45   23   48 1    
    46   23   49 1    
    47   24   50 1    
    48   24   51 1    
    49   25   30 ar   
    50   25   26 ar   
    51   26   27 ar   
    52   26   52 1    
    53   27   28 ar   
    54   27   53 1    
    55   28   29 ar   
    56   28   31 1    
    57   29   30 ar   
    58   29   54 1    
    59   30   55 1    
@<TRIPOS>SUBSTRUCTURE
     1 UNK         1 GROUP             0       ****    0 ROOT    
