@<TRIPOS>MOLECULE
ZINC58949216_1610
37   38    1
SMALL
USER_CHARGES


@<TRIPOS>ATOM
      1 C1          0.5436   52.1633   19.3959 C.3       1 UNK         0.0000 
      2 C2          1.1744   51.1918   20.3673 C.2       1 UNK         0.0000 
      3 C3          1.2705   49.8200   20.1012 C.2       1 UNK         0.0000 
      4 C4          1.9006   49.1028   21.0946 C.2       1 UNK         0.0000 
      5 S5          2.3043   50.0967   22.4365 S.3       1 UNK         0.0000 
      6 C6          1.7148   51.5276   21.6235 C.2       1 UNK         0.0000 
      7 C7          1.9226   52.9183   22.2519 C.3       1 UNK         0.0000 
      8 H8          1.4031   53.6883   21.6817 H         1 UNK         0.0000 
      9 C9          3.4300   53.2939   22.2297 C.2       1 UNK         0.0000 
     10 C10         4.0762   53.6973   23.3539 C.2       1 UNK         0.0000 
     11 O11         3.4629   53.8048   24.5567 O.3       1 UNK         0.0000 
     12 C12         2.1729   53.4317   24.7189 C.2       1 UNK         0.0000 
     13 C13         1.3649   53.0317   23.6982 C.2       1 UNK         0.0000 
     14 C14        -0.0620   52.6397   23.8812 C.2       1 UNK         0.0000 
     15 O15        -0.8309   52.4913   22.9268 O.2       1 UNK         0.0000 
     16 O16        -0.4436   52.4451   25.1680 O.3       1 UNK         0.0000 
     17 C17        -1.7669   52.0370   25.4858 C.3       1 UNK         0.0000 
     18 N18         1.9041   53.5572   26.0555 N.pl3     1 UNK         0.0000 
     19 C19         5.5384   54.0888   23.5336 C.3       1 UNK         0.0000 
     20 C20         4.1564   53.0635   20.9973 C.2       1 UNK         0.0000 
     21 O21         5.1055   52.2937   20.9291 O.2       1 UNK         0.0000 
     22 N22         3.6980   53.6965   19.9232 N.am      1 UNK         0.0000 
     23 H23        -0.3919   51.7679   19.0007 H         1 UNK         0.0000 
     24 H24         0.3061   53.1258   19.8384 H         1 UNK         0.0000 
     25 H25         1.1864   52.3341   18.5309 H         1 UNK         0.0000 
     26 H26         0.9255   49.3721   19.1804 H         1 UNK         0.0000 
     27 H27         2.1516   48.0561   21.0986 H         1 UNK         0.0000 
     28 H28        -1.8701   51.9223   26.5650 H         1 UNK         0.0000 
     29 H29        -2.0036   51.0795   25.0194 H         1 UNK         0.0000 
     30 H30        -2.4950   52.7766   25.1502 H         1 UNK         0.0000 
     31 H31         0.9955   53.3010   26.4160 H         1 UNK         0.0000 
     32 H32         2.6219   53.8405   26.7047 H         1 UNK         0.0000 
     33 H33         6.0969   54.1052   22.5988 H         1 UNK         0.0000 
     34 H34         5.6072   55.0822   23.9754 H         1 UNK         0.0000 
     35 H35         6.0307   53.3838   24.2042 H         1 UNK         0.0000 
     36 H36         2.8926   54.3106   19.9877 H         1 UNK         0.0000 
     37 H37         4.1431   53.5278   19.0339 H         1 UNK         0.0000 
@<TRIPOS>BOND
     1    1    2 1    
     2    1   23 1    
     3    1   24 1    
     4    1   25 1    
     5    2    6 2    
     6    2    3 1    
     7    3    4 2    
     8    3   26 1    
     9    4    5 1    
    10    4   27 1    
    11    5    6 1    
    12    6    7 1    
    13    7    8 1    
    14    7   13 1    
    15    7    9 1    
    16    9   10 2    
    17    9   20 1    
    18   10   11 1    
    19   10   19 1    
    20   11   12 1    
    21   12   13 2    
    22   12   18 1    
    23   13   14 1    
    24   14   15 2    
    25   14   16 1    
    26   16   17 1    
    27   17   28 1    
    28   17   29 1    
    29   17   30 1    
    30   18   31 1    
    31   18   32 1    
    32   19   33 1    
    33   19   34 1    
    34   19   35 1    
    35   20   21 2    
    36   20   22 am   BACKBONE|DICT|INTERRES
    37   22   36 1    
    38   22   37 1    
@<TRIPOS>SUBSTRUCTURE
     1 UNK         1 GROUP             0       ****    0 ROOT    
