@<TRIPOS>MOLECULE
ZINC38649801_6004
63   66    1
SMALL
USER_CHARGES


@<TRIPOS>ATOM
      1 C1          9.8355   56.6062   14.9315 C.3       1 UNK         0.0000 
      2 C2          9.9008   56.1857   16.4225 C.3       1 UNK         0.0000 
      3 H3         10.4780   55.2606   16.4386 H         1 UNK         0.0000 
      4 C4          8.5485   55.8039   17.0601 C.2       1 UNK         0.0000 
      5 O5          7.4982   55.8249   16.4134 O.2       1 UNK         0.0000 
      6 O6          8.6777   55.5119   18.3849 O.3       1 UNK         0.0000 
      7 C7          7.5897   55.2463   19.1900 C.ar      1 UNK         0.0000 
      8 C8          7.5681   55.8484   20.4445 C.ar      1 UNK         0.0000 
      9 C9          6.5271   55.5990   21.3359 C.ar      1 UNK         0.0000 
     10 C10         5.5039   54.6848   21.0379 C.ar      1 UNK         0.0000 
     11 C11         5.5427   54.0876   19.7621 C.ar      1 UNK         0.0000 
     12 C12         6.5603   54.3621   18.8502 C.ar      1 UNK         0.0000 
     13 O13         4.6203   53.1525   19.3512 O.3       1 UNK         0.0000 
     14 C14         3.7910   52.6075   20.2668 C.2       1 UNK         0.0000 
     15 C15         3.6332   53.0517   21.5297 C.2       1 UNK         0.0000 
     16 C16         4.3795   54.2973   22.0378 C.3       1 UNK         0.0000 
     17 H17         3.6591   55.1135   21.9843 H         1 UNK         0.0000 
     18 C18         4.7569   54.2403   23.5370 C.ar      1 UNK         0.0000 
     19 C19         6.0779   54.0973   23.9748 C.ar      1 UNK         0.0000 
     20 C20         6.3783   54.0806   25.3309 C.ar      1 UNK         0.0000 
     21 C21         5.3635   54.1189   26.2963 C.ar      1 UNK         0.0000 
     22 C22         4.0423   54.2802   25.8558 C.ar      1 UNK         0.0000 
     23 C23         3.7458   54.3570   24.4979 C.ar      1 UNK         0.0000 
     24 C24         5.6646   53.9530   27.8104 C.3       1 UNK         0.0000 
     25 C25         7.1048   53.4754   28.0986 C.3       1 UNK         0.0000 
     26 C26         4.6684   52.9810   28.4846 C.3       1 UNK         0.0000 
     27 C27         5.5044   55.2967   28.4965 C.3       1 UNK         0.0000 
     28 C28         2.6866   52.3982   22.3759 C.1       1 UNK         0.0000 
     29 N29         1.8977   51.8672   23.0338 N.1       1 UNK         0.0000 
     30 N30         3.1876   51.5290   19.6816 N.pl3     1 UNK         0.0000 
     31 O31        10.6569   57.0750   17.2643 O.3       1 UNK         0.0000 
     32 C32        10.4544   58.4457   17.2662 C.ar      1 UNK         0.0000 
     33 C33         9.2296   59.0612   16.9577 C.ar      1 UNK         0.0000 
     34 C34         9.1076   60.4509   16.9665 C.ar      1 UNK         0.0000 
     35 C35        10.2081   61.2453   17.2809 C.ar      1 UNK         0.0000 
     36 C36        11.4217   60.6463   17.6137 C.ar      1 UNK         0.0000 
     37 C37        11.5420   59.2565   17.6149 C.ar      1 UNK         0.0000 
     38 F38        12.7305   58.6983   17.9437 F         1 UNK         0.0000 
     39 H39         9.3191   55.8557   14.3327 H         1 UNK         0.0000 
     40 H40         9.3203   57.5511   14.7731 H         1 UNK         0.0000 
     41 H41        10.8395   56.7090   14.5214 H         1 UNK         0.0000 
     42 H42         8.3825   56.4939   20.7313 H         1 UNK         0.0000 
     43 H43         6.5488   56.0972   22.2928 H         1 UNK         0.0000 
     44 H44         6.5657   53.8535   17.8969 H         1 UNK         0.0000 
     45 H45         6.8918   53.9750   23.2766 H         1 UNK         0.0000 
     46 H46         7.4138   53.9685   25.5993 H         1 UNK         0.0000 
     47 H47         3.2293   54.3391   26.5633 H         1 UNK         0.0000 
     48 H48         2.7170   54.4821   24.1915 H         1 UNK         0.0000 
     49 H49         7.2908   53.4088   29.1672 H         1 UNK         0.0000 
     50 H50         7.8491   54.1776   27.7208 H         1 UNK         0.0000 
     51 H51         7.3106   52.4971   27.6731 H         1 UNK         0.0000 
     52 H52         3.6725   53.4099   28.5927 H         1 UNK         0.0000 
     53 H53         4.5488   52.0968   27.8811 H         1 UNK         0.0000 
     54 H54         4.9885   52.6738   29.4847 H         1 UNK         0.0000 
     55 H55         4.4859   55.6603   28.3393 H         1 UNK         0.0000 
     56 H56         5.6640   55.2376   29.5748 H         1 UNK         0.0000 
     57 H57         6.2359   55.9985   28.0816 H         1 UNK         0.0000 
     58 H58         2.4675   51.0101   20.1611 H         1 UNK         0.0000 
     59 H59         3.6778   51.0568   18.9257 H         1 UNK         0.0000 
     60 H60         8.3533   58.4817   16.7138 H         1 UNK         0.0000 
     61 H61         8.1569   60.9057   16.7225 H         1 UNK         0.0000 
     62 H62        10.1174   62.3214   17.2618 H         1 UNK         0.0000 
     63 H63        12.2800   61.2558   17.8604 H         1 UNK         0.0000 
@<TRIPOS>BOND
     1    1    2 1    
     2    1   39 1    
     3    1   40 1    
     4    1   41 1    
     5    2    3 1    
     6    2    4 1    
     7    2   31 1    
     8    4    5 2    
     9    4    6 1    
    10    6    7 1    
    11    7   12 ar   
    12    7    8 ar   
    13    8    9 ar   
    14    8   42 1    
    15    9   10 ar   
    16    9   43 1    
    17   10   16 1    
    18   10   11 ar   
    19   11   12 ar   
    20   11   13 1    
    21   12   44 1    
    22   13   14 1    
    23   14   15 2    
    24   14   30 1    
    25   15   16 1    
    26   15   28 1    
    27   16   17 1    
    28   16   18 1    
    29   18   23 ar   
    30   18   19 ar   
    31   19   20 ar   
    32   19   45 1    
    33   20   21 ar   
    34   20   46 1    
    35   21   22 ar   
    36   21   24 1    
    37   22   23 ar   
    38   22   47 1    
    39   23   48 1    
    40   24   25 1    
    41   24   26 1    
    42   24   27 1    
    43   25   49 1    
    44   25   50 1    
    45   25   51 1    
    46   26   52 1    
    47   26   53 1    
    48   26   54 1    
    49   27   55 1    
    50   27   56 1    
    51   27   57 1    
    52   28   29 3    
    53   30   58 1    
    54   30   59 1    
    55   31   32 1    
    56   32   37 ar   
    57   32   33 ar   
    58   33   34 ar   
    59   33   60 1    
    60   34   35 ar   
    61   34   61 1    
    62   35   36 ar   
    63   35   62 1    
    64   36   37 ar   
    65   36   63 1    
    66   37   38 1    
@<TRIPOS>SUBSTRUCTURE
     1 UNK         1 GROUP             0       ****    0 ROOT    
