ZINC41006712_3631
                    3D
 Schrodinger Suite 2024-2.
 63 66  0  0  1  0            999 V2000
   -0.5178   48.2653   23.2869 C   0  0  0  0  0  0
   -1.3955   48.8894   24.3846 C   0  0  2  0  0  0
   -2.7633   49.2956   23.7781 C   0  0  0  0  0  0
   -3.6996   50.0121   24.7601 C   0  0  0  0  0  0
   -4.8953   49.7133   24.8031 O   0  0  0  0  0  0
   -3.0328   51.1032   25.6514 C   0  0  2  0  0  0
   -2.8927   51.9792   25.0168 H   0  0  0  0  0  0
   -1.6389   50.6516   26.2363 C   0  0  1  0  0  0
   -1.8604   49.8074   26.8818 H   0  0  0  0  0  0
   -0.6946   50.0714   25.1297 C   0  0  2  0  0  0
    0.2011   49.6530   25.5907 H   0  0  0  0  0  0
   -0.1696   51.1679   24.1424 C   0  0  0  0  0  0
   -0.8903   51.6082   23.2423 O   0  0  0  0  0  0
    1.1038   51.5733   24.3223 N   0  0  0  0  0  0
    1.8686   52.3811   23.4726 C   0  0  0  0  0  0
    2.6837   53.3554   24.0504 C   0  0  0  0  0  0
    3.5529   54.0979   23.2579 C   0  0  0  0  0  0
    3.6090   53.8599   21.8871 C   0  0  0  0  0  0
    2.7921   52.8957   21.2986 C   0  0  0  0  0  0
    1.9152   52.1557   22.0893 C   0  0  0  0  0  0
   -0.9695   51.7011   27.1450 C   0  0  0  0  0  0
    0.3495   51.8445   27.3951 C   0  0  0  0  0  0
    0.9606   52.8777   28.2471 C   0  0  0  0  0  0
    0.2673   53.4583   29.3151 C   0  0  0  0  0  0
    0.8383   54.5031   30.0354 C   0  0  0  0  0  0
    2.1010   54.9724   29.6806 C   0  0  0  0  0  0
    2.8217   54.3734   28.6532 C   0  0  0  0  0  0
    2.2521   53.3185   27.9437 C   0  0  0  0  0  0
   -4.0254   51.5717   26.7493 C   0  0  0  0  0  0
   -4.6873   52.5905   26.5483 O   0  0  0  0  0  0
   -4.0913   50.8258   27.8781 N   0  0  0  0  0  0
   -4.9229   50.9905   29.0012 C   0  0  0  0  0  0
   -4.4958   50.3808   30.1820 C   0  0  0  0  0  0
   -5.2557   50.4949   31.3446 C   0  0  0  0  0  0
   -6.4508   51.2096   31.3211 C   0  0  0  0  0  0
   -6.8964   51.8064   30.1443 C   0  0  0  0  0  0
   -6.1378   51.6957   28.9817 C   0  0  0  0  0  0
   -1.6162   47.8086   25.2826 O   0  0  0  0  0  0
   -0.3642   48.9426   22.4461 H   0  0  0  0  0  0
    0.4634   48.0043   23.6823 H   0  0  0  0  0  0
   -0.9656   47.3571   22.8786 H   0  0  0  0  0  0
   -2.6339   49.9539   22.9222 H   0  0  0  0  0  0
   -3.2811   48.4089   23.4133 H   0  0  0  0  0  0
    1.5517   51.3122   25.1855 H   0  0  0  0  0  0
    2.6535   53.5398   25.1110 H   0  0  0  0  0  0
    4.1850   54.8515   23.7054 H   0  0  0  0  0  0
    4.2830   54.4340   21.2703 H   0  0  0  0  0  0
    2.8382   52.7235   20.2339 H   0  0  0  0  0  0
    1.2993   51.3954   21.6314 H   0  0  0  0  0  0
   -1.6416   52.3919   27.6304 H   0  0  0  0  0  0
    1.0473   51.1444   26.9608 H   0  0  0  0  0  0
   -0.7173   53.1110   29.5867 H   0  0  0  0  0  0
    0.2959   54.9616   30.8492 H   0  0  0  0  0  0
    2.5276   55.8049   30.2177 H   0  0  0  0  0  0
    3.8110   54.7278   28.4026 H   0  0  0  0  0  0
    2.8162   52.8644   27.1429 H   0  0  0  0  0  0
   -3.4267   50.0690   27.9616 H   0  0  0  0  0  0
   -3.5689   49.8249   30.2145 H   0  0  0  0  0  0
   -4.9101   50.0412   32.2622 H   0  0  0  0  0  0
   -7.0381   51.2943   32.2244 H   0  0  0  0  0  0
   -7.8333   52.3458   30.1323 H   0  0  0  0  0  0
   -6.5118   52.1496   28.0774 H   0  0  0  0  0  0
   -1.3207   48.0420   26.1747 H   0  0  0  0  0  0
  1  2  1  0  0  0
  1 39  1  0  0  0
  1 40  1  0  0  0
  1 41  1  0  0  0
  2 10  1  0  0  0
  2  3  1  0  0  0
  2 38  1  0  0  0
  3  4  1  0  0  0
  3 42  1  0  0  0
  3 43  1  0  0  0
  4  5  2  0  0  0
  4  6  1  0  0  0
  6  7  1  0  0  0
  6  8  1  0  0  0
  6 29  1  0  0  0
  8  9  1  0  0  0
  8 10  1  0  0  0
  8 21  1  0  0  0
 10 11  1  0  0  0
 10 12  1  0  0  0
 12 13  2  0  0  0
 12 14  1  0  0  0
 14 15  1  0  0  0
 14 44  1  0  0  0
 15 20  2  0  0  0
 15 16  1  0  0  0
 16 17  2  0  0  0
 16 45  1  0  0  0
 17 18  1  0  0  0
 17 46  1  0  0  0
 18 19  2  0  0  0
 18 47  1  0  0  0
 19 20  1  0  0  0
 19 48  1  0  0  0
 20 49  1  0  0  0
 21 22  2  0  0  0
 21 50  1  0  0  0
 22 23  1  0  0  0
 22 51  1  0  0  0
 23 28  2  0  0  0
 23 24  1  0  0  0
 24 25  2  0  0  0
 24 52  1  0  0  0
 25 26  1  0  0  0
 25 53  1  0  0  0
 26 27  2  0  0  0
 26 54  1  0  0  0
 27 28  1  0  0  0
 27 55  1  0  0  0
 28 56  1  0  0  0
 29 30  2  0  0  0
 29 31  1  0  0  0
 31 32  1  0  0  0
 31 57  1  0  0  0
 32 37  2  0  0  0
 32 33  1  0  0  0
 33 34  2  0  0  0
 33 58  1  0  0  0
 34 35  1  0  0  0
 34 59  1  0  0  0
 35 36  2  0  0  0
 35 60  1  0  0  0
 36 37  1  0  0  0
 36 61  1  0  0  0
 37 62  1  0  0  0
 38 63  1  0  0  0
M  END
> <i_i_glide_confnum>
227

> <i_i_glide_lignum>
3632

> <i_i_glide_posenum>
188

> <i_i_glide_rotatable_bonds>
9

> <i_m_Source_File_Index>
5911

> <b_m_subgroup_collapsed>
0

> <r_i_docking_score>
-4.42893

> <r_i_glide_ecoul>
-7.47582

> <r_i_glide_eff_state_penalty>
0

> <r_i_glide_einternal>
12.0984

> <r_i_glide_emodel>
-56.0126

> <r_i_glide_energy>
-47.1392

> <r_i_glide_erotb>
0.73577

> <r_i_glide_esite>
-0.0789394

> <r_i_glide_evdw>
-39.6634

> <r_i_glide_gscore>
-4.42893

> <r_i_glide_hbond>
-0.0859466

> <r_i_glide_ligand_efficiency>
-0.126541

> <r_i_glide_ligand_efficiency_ln>
-0.972249

> <r_i_glide_ligand_efficiency_sa>
-0.413924

> <r_i_glide_lipo>
-1.89015

> <r_i_glide_metal>
0

> <r_i_glide_rewards>
-0.00512621

> <s_i_glide_gridfile>
wee1_glide-grid

> <s_m_Source_File>
wee1_decoys_glide_SP.sdf

> <s_m_Source_Path>
/Users/zhangxujun/Desktop

> <s_m_entry_id>
6186

> <s_m_entry_name>
wee1_decoys_glide_SP.5911

> <s_m_subgroup_title>
wee1_decoys_glide_SP

> <s_m_subgroupid>
wee1_decoys_glide_SP


$$$$
