@<TRIPOS>MOLECULE
ZINC08451163_4471
61   66    1
SMALL
USER_CHARGES


@<TRIPOS>ATOM
      1 C1          0.7063   52.1873   32.0815 C.3       1 UNK         0.0000 
      2 O2          2.0254   52.1225   31.5453 O.3       1 UNK         0.0000 
      3 C3          2.2573   52.6052   30.2733 C.ar      1 UNK         0.0000 
      4 C4          1.2635   53.1267   29.4338 C.ar      1 UNK         0.0000 
      5 C5          1.5789   53.5164   28.1368 C.ar      1 UNK         0.0000 
      6 C6          2.8863   53.4009   27.6501 C.ar      1 UNK         0.0000 
      7 C7          3.8867   52.9422   28.5191 C.ar      1 UNK         0.0000 
      8 C8          3.5714   52.5412   29.8143 C.ar      1 UNK         0.0000 
      9 C9          3.1794   53.6467   26.2074 C.ar      1 UNK         0.0000 
     10 C10         2.3047   53.1676   25.2306 C.ar      1 UNK         0.0000 
     11 C11         2.6590   53.1782   23.8756 C.ar      1 UNK         0.0000 
     12 C12         3.8911   53.8017   23.5283 C.ar      1 UNK         0.0000 
     13 C13         4.5206   54.0849   22.2611 C.2       1 UNK         0.0000 
     14 C14         5.7637   54.7274   22.3850 C.2       1 UNK         0.0000 
     15 S15         6.2472   54.8969   24.0705 S.3       1 UNK         0.0000 
     16 C16         4.7059   54.2618   24.6094 C.ar      1 UNK         0.0000 
     17 N17         4.3877   54.1913   25.9040 N.ar      1 UNK         0.0000 
     18 C18         6.6445   55.2967   21.3785 C.2       1 UNK         0.0000 
     19 O19         7.5246   56.0966   21.6814 O.2       1 UNK         0.0000 
     20 N20         6.4260   54.8967   20.1133 N.am      1 UNK         0.0000 
     21 C21         7.1005   55.3523   18.8916 C.3       1 UNK         0.0000 
     22 C22         6.5567   54.5326   17.6801 C.3       1 UNK         0.0000 
     23 C23         7.2136   54.9753   16.3455 C.3       1 UNK         0.0000 
     24 C24         8.7455   54.7617   16.4327 C.3       1 UNK         0.0000 
     25 C25         9.3172   55.5993   17.6039 C.3       1 UNK         0.0000 
     26 C26         8.6525   55.1447   18.9279 C.3       1 UNK         0.0000 
     27 C27         9.0137   57.1017   17.3691 C.3       1 UNK         0.0000 
     28 C28         7.4817   57.3156   17.2712 C.3       1 UNK         0.0000 
     29 C29         6.9154   56.4759   16.0990 C.3       1 UNK         0.0000 
     30 C30         6.8150   56.8611   18.5955 C.3       1 UNK         0.0000 
     31 N31         3.9045   53.8355   21.0596 N.pl3     1 UNK         0.0000 
     32 C32         1.7557   52.4334   22.8876 C.3       1 UNK         0.0000 
     33 F33         0.8019   51.7225   23.4912 F         1 UNK         0.0000 
     34 F34         1.1570   53.2967   22.0807 F         1 UNK         0.0000 
     35 F35         2.4787   51.5867   22.1534 F         1 UNK         0.0000 
     36 H36         0.7044   51.6784   33.0433 H         1 UNK         0.0000 
     37 H37         0.3945   53.2189   32.2513 H         1 UNK         0.0000 
     38 H38        -0.0267   51.6968   31.4402 H         1 UNK         0.0000 
     39 H39         0.2366   53.2051   29.7559 H         1 UNK         0.0000 
     40 H40         0.7851   53.8674   27.4946 H         1 UNK         0.0000 
     41 H41         4.9036   52.8324   28.1698 H         1 UNK         0.0000 
     42 H42         4.3475   52.1497   30.4561 H         1 UNK         0.0000 
     43 H43         1.3905   52.6850   25.5454 H         1 UNK         0.0000 
     44 H44         5.8196   54.0983   19.9987 H         1 UNK         0.0000 
     45 H45         5.4729   54.6421   17.6056 H         1 UNK         0.0000 
     46 H46         6.7313   53.4664   17.8354 H         1 UNK         0.0000 
     47 H47         6.8095   54.3820   15.5240 H         1 UNK         0.0000 
     48 H48         8.9743   53.7046   16.5769 H         1 UNK         0.0000 
     49 H49         9.2227   55.0485   15.4941 H         1 UNK         0.0000 
     50 H50        10.3959   55.4516   17.6696 H         1 UNK         0.0000 
     51 H51         8.8868   54.0973   19.1139 H         1 UNK         0.0000 
     52 H52         9.1011   55.6979   19.7520 H         1 UNK         0.0000 
     53 H53         9.5009   57.4471   16.4564 H         1 UNK         0.0000 
     54 H54         9.4303   57.7036   18.1793 H         1 UNK         0.0000 
     55 H55         7.2677   58.3726   17.0994 H         1 UNK         0.0000 
     56 H56         5.8405   56.6381   16.0013 H         1 UNK         0.0000 
     57 H57         7.3541   56.8006   15.1547 H         1 UNK         0.0000 
     58 H58         7.1754   57.4852   19.4132 H         1 UNK         0.0000 
     59 H59         5.7394   57.0367   18.5450 H         1 UNK         0.0000 
     60 H60         2.9872   53.4071   21.0216 H         1 UNK         0.0000 
     61 H61         4.1728   54.3103   20.2102 H         1 UNK         0.0000 
@<TRIPOS>BOND
     1    1    2 1    
     2    1   36 1    
     3    1   37 1    
     4    1   38 1    
     5    2    3 1    
     6    3    8 ar   
     7    3    4 ar   
     8    4    5 ar   
     9    4   39 1    
    10    5    6 ar   
    11    5   40 1    
    12    6    7 ar   
    13    6    9 1    
    14    7    8 ar   
    15    7   41 1    
    16    8   42 1    
    17    9   17 ar   
    18    9   10 ar   
    19   10   11 ar   
    20   10   43 1    
    21   11   12 ar   
    22   11   32 1    
    23   12   16 ar   
    24   12   13 1    
    25   13   14 2    
    26   13   31 1    
    27   14   15 1    
    28   14   18 1    
    29   15   16 1    
    30   16   17 ar   
    31   18   19 2    
    32   18   20 am   BACKBONE|DICT|INTERRES
    33   20   21 1    
    34   20   44 1    
    35   21   26 1    
    36   21   30 1    
    37   21   22 1    
    38   22   23 1    
    39   22   45 1    
    40   22   46 1    
    41   23   29 1    
    42   23   24 1    
    43   23   47 1    
    44   24   25 1    
    45   24   48 1    
    46   24   49 1    
    47   25   26 1    
    48   25   27 1    
    49   25   50 1    
    50   26   51 1    
    51   26   52 1    
    52   27   28 1    
    53   27   53 1    
    54   27   54 1    
    55   28   29 1    
    56   28   30 1    
    57   28   55 1    
    58   29   56 1    
    59   29   57 1    
    60   30   58 1    
    61   30   59 1    
    62   31   60 1    
    63   31   61 1    
    64   32   33 1    
    65   32   34 1    
    66   32   35 1    
@<TRIPOS>SUBSTRUCTURE
     1 UNK         1 GROUP             0       ****    0 ROOT    
