@<TRIPOS>MOLECULE
ZINC20154247_1221
43   45    1
SMALL
USER_CHARGES


@<TRIPOS>ATOM
      1 C1          5.8036   54.4062   25.1631 C.ar      1 UNK         0.0000 
      2 C2          5.4105   54.0954   23.8574 C.ar      1 UNK         0.0000 
      3 C3          4.0830   53.7665   23.5363 C.ar      1 UNK         0.0000 
      4 C4          3.1343   53.7909   24.5918 C.ar      1 UNK         0.0000 
      5 C5          3.5515   54.0903   25.8943 C.ar      1 UNK         0.0000 
      6 C6          4.8815   54.3830   26.2091 C.ar      1 UNK         0.0000 
      7 N7          5.3541   54.7303   27.4946 N.am      1 UNK         0.0000 
      8 C8          4.7890   54.6631   28.7269 C.2       1 UNK         0.0000 
      9 O9          5.2981   55.2325   29.6800 O.2       1 UNK         0.0000 
     10 C10         3.5770   53.8425   28.9917 C.ar      1 UNK         0.0000 
     11 C11         2.3239   54.4169   29.0656 C.ar      1 UNK         0.0000 
     12 C12         1.2498   53.5449   29.1681 C.ar      1 UNK         0.0000 
     13 C13         1.3267   52.1777   29.3131 C.ar      1 UNK         0.0000 
     14 C14         2.5733   51.6378   29.2844 C.ar      1 UNK         0.0000 
     15 C15         3.6613   52.4683   29.1765 C.ar      1 UNK         0.0000 
     16 Cl16        5.1043   51.6968   29.2699 Cl        1 UNK         0.0000 
     17 I17        -0.4955   54.0966   28.4812 I         1 UNK         0.0000 
     18 N18         1.6837   53.5877   24.3734 N.pl3     1 UNK         0.0000 
     19 O19         1.1488   54.1170   23.4081 O.co2     1 UNK         0.0000 
     20 O20         1.0694   52.9434   25.2186 O.co2     1 UNK         0.0000 
     21 N21         3.7997   53.3775   22.2315 N.pl3     1 UNK         0.0000 
     22 C22         4.3515   54.0824   21.0588 C.3       1 UNK         0.0000 
     23 C23         4.9303   53.1572   19.9701 C.3       1 UNK         0.0000 
     24 N24         3.8928   52.0969   19.5754 N.4       1 UNK         0.0000 
     25 C25         3.4147   51.3209   20.8076 C.3       1 UNK         0.0000 
     26 C26         2.8556   52.3016   21.8544 C.3       1 UNK         0.0000 
     27 H27         6.8420   54.6282   25.3437 H         1 UNK         0.0000 
     28 H28         6.1732   54.0681   23.0944 H         1 UNK         0.0000 
     29 H29         2.7864   54.1221   26.6501 H         1 UNK         0.0000 
     30 H30         6.2744   55.1372   27.5096 H         1 UNK         0.0000 
     31 H31         2.1707   55.4670   28.8809 H         1 UNK         0.0000 
     32 H32         0.4546   51.5424   29.3101 H         1 UNK         0.0000 
     33 H33         2.6833   50.5717   29.2547 H         1 UNK         0.0000 
     34 H34         3.5042   54.6356   20.6480 H         1 UNK         0.0000 
     35 H35         5.0763   54.8403   21.3480 H         1 UNK         0.0000 
     36 H36         5.8064   52.6045   20.2987 H         1 UNK         0.0000 
     37 H37         5.1608   53.6896   19.0446 H         1 UNK         0.0000 
     38 H38         4.2949   51.4480   18.8947 H         1 UNK         0.0000 
     39 H39         4.2780   50.7734   21.1904 H         1 UNK         0.0000 
     40 H40         2.6652   50.6099   20.4480 H         1 UNK         0.0000 
     41 H41         2.5273   51.7417   22.7371 H         1 UNK         0.0000 
     42 H42         1.9643   52.7927   21.4535 H         1 UNK         0.0000 
     43 H43         3.1062   52.5481   19.1336 H         1 UNK         0.0000 
@<TRIPOS>BOND
     1    1    6 ar   
     2    1    2 ar   
     3    1   27 1    
     4    2    3 ar   
     5    2   28 1    
     6    3    4 ar   
     7    3   21 1    
     8    4    5 ar   
     9    4   18 1    
    10    5    6 ar   
    11    5   29 1    
    12    6    7 1    
    13    7    8 am   BACKBONE|DICT|INTERRES
    14    7   30 1    
    15    8    9 2    
    16    8   10 1    
    17   10   15 ar   
    18   10   11 ar   
    19   11   12 ar   
    20   11   31 1    
    21   12   13 ar   
    22   12   17 1    
    23   13   14 ar   
    24   13   32 1    
    25   14   15 ar   
    26   14   33 1    
    27   15   16 1    
    28   18   19 2    
    29   18   20 1    
    30   21   26 1    
    31   21   22 1    
    32   22   23 1    
    33   22   34 1    
    34   22   35 1    
    35   23   24 1    
    36   23   36 1    
    37   23   37 1    
    38   24   25 1    
    39   24   38 1    
    40   24   43 1    
    41   25   26 1    
    42   25   39 1    
    43   25   40 1    
    44   26   41 1    
    45   26   42 1    
@<TRIPOS>SUBSTRUCTURE
     1 UNK         1 GROUP             0       ****    0 ROOT    
