ZINC20119145_2355
                    3D
 Schrodinger Suite 2024-2.
 50 52  0  0  1  0            999 V2000
    2.5374   49.8517   19.6893 C   0  0  0  0  0  0
    1.9369   51.1786   20.1840 C   0  0  2  0  0  0
    0.9923   51.3489   19.6624 H   0  0  0  0  0  0
    2.8896   52.3165   19.7905 C   0  0  0  0  0  0
    3.8172   52.8531   20.6980 C   0  0  0  0  0  0
    4.6810   53.8707   20.2978 C   0  0  0  0  0  0
    4.6199   54.3598   18.9963 C   0  0  0  0  0  0
    3.6995   53.8409   18.0893 C   0  0  0  0  0  0
    2.8357   52.8230   18.4861 C   0  0  0  0  0  0
    1.6184   51.1838   21.6193 N   0  0  0  0  0  0
    0.8423   50.3269   22.3155 C   0  0  0  0  0  0
    0.3268   49.3214   21.8271 O   0  0  0  0  0  0
    0.6608   50.6585   23.7812 C   0  0  0  0  0  0
    0.4086   49.6414   24.7168 C   0  0  0  0  0  0
    0.3046   49.9345   26.0785 C   0  0  0  0  0  0
    0.4559   51.2514   26.5146 C   0  0  0  0  0  0
    0.6237   52.2743   25.5794 C   0  0  0  0  0  0
    0.7340   51.9848   24.2280 C   0  0  0  0  0  0
    0.4582   51.5342   27.8962 N   0  0  0  0  0  0
    1.3036   52.3564   28.5917 C   0  0  0  0  0  0
    0.8723   52.7460   30.1564 S   0  0  0  0  0  0
    2.4354   52.7497   27.9145 N   0  0  0  0  0  0
    3.4377   53.6223   28.1927 C   0  0  0  0  0  0
    3.6697   54.1256   29.2954 O   0  0  0  0  0  0
    4.2910   53.9688   26.9880 C   0  0  0  0  0  0
    3.6714   54.2015   25.7472 C   0  0  0  0  0  0
    4.4136   54.4992   24.6097 C   0  0  0  0  0  0
    5.7946   54.6167   24.6969 C   0  0  0  0  0  0
    6.4313   54.3954   25.9137 C   0  0  0  0  0  0
    5.6990   54.0499   27.0514 C   0  0  0  0  0  0
    6.6034   53.6967   28.4819 Cl  0  0  0  0  0  0
    6.7053   55.0592   23.3028 Cl  0  0  0  0  0  0
    2.7036   49.8692   18.6103 H   0  0  0  0  0  0
    3.5041   49.6960   20.1603 H   0  0  0  0  0  0
    1.9104   48.9878   19.8984 H   0  0  0  0  0  0
    3.8948   52.4716   21.7066 H   0  0  0  0  0  0
    5.3986   54.2780   20.9919 H   0  0  0  0  0  0
    5.2912   55.1466   18.6861 H   0  0  0  0  0  0
    3.6615   54.2206   17.0785 H   0  0  0  0  0  0
    2.1370   52.4142   17.7700 H   0  0  0  0  0  0
    1.8909   52.0249   22.0980 H   0  0  0  0  0  0
    0.3304   48.6099   24.4006 H   0  0  0  0  0  0
    0.1430   49.1332   26.7867 H   0  0  0  0  0  0
    0.6984   53.2969   25.9045 H   0  0  0  0  0  0
    0.8843   52.8053   23.5399 H   0  0  0  0  0  0
   -0.3002   51.1172   28.4203 H   0  0  0  0  0  0
    2.4787   52.3918   26.9730 H   0  0  0  0  0  0
    2.6003   54.1743   25.6430 H   0  0  0  0  0  0
    3.9142   54.6750   23.6665 H   0  0  0  0  0  0
    7.5039   54.4805   25.9689 H   0  0  0  0  0  0
  1  2  1  0  0  0
  1 33  1  0  0  0
  1 34  1  0  0  0
  1 35  1  0  0  0
  2  3  1  0  0  0
  2  4  1  0  0  0
  2 10  1  0  0  0
  4  9  2  0  0  0
  4  5  1  0  0  0
  5  6  2  0  0  0
  5 36  1  0  0  0
  6  7  1  0  0  0
  6 37  1  0  0  0
  7  8  2  0  0  0
  7 38  1  0  0  0
  8  9  1  0  0  0
  8 39  1  0  0  0
  9 40  1  0  0  0
 10 11  1  0  0  0
 10 41  1  0  0  0
 11 12  2  0  0  0
 11 13  1  0  0  0
 13 18  2  0  0  0
 13 14  1  0  0  0
 14 15  2  0  0  0
 14 42  1  0  0  0
 15 16  1  0  0  0
 15 43  1  0  0  0
 16 17  2  0  0  0
 16 19  1  0  0  0
 17 18  1  0  0  0
 17 44  1  0  0  0
 18 45  1  0  0  0
 19 20  1  0  0  0
 19 46  1  0  0  0
 20 21  2  0  0  0
 20 22  1  0  0  0
 22 23  1  0  0  0
 22 47  1  0  0  0
 23 24  2  0  0  0
 23 25  1  0  0  0
 25 30  2  0  0  0
 25 26  1  0  0  0
 26 27  2  0  0  0
 26 48  1  0  0  0
 27 28  1  0  0  0
 27 49  1  0  0  0
 28 29  2  0  0  0
 28 32  1  0  0  0
 29 30  1  0  0  0
 29 50  1  0  0  0
 30 31  1  0  0  0
M  END
> <i_i_glide_confnum>
115

> <i_i_glide_lignum>
2356

> <i_i_glide_posenum>
332

> <i_i_glide_rotatable_bonds>
9

> <i_m_Source_File_Index>
2964

> <b_m_subgroup_collapsed>
0

> <r_i_docking_score>
-5.12867

> <r_i_glide_ecoul>
-1.27777

> <r_i_glide_eff_state_penalty>
0

> <r_i_glide_einternal>
7.50541

> <r_i_glide_emodel>
-62.491

> <r_i_glide_energy>
-50.932

> <r_i_glide_erotb>
0.634273

> <r_i_glide_esite>
-0.00606286

> <r_i_glide_evdw>
-49.6543

> <r_i_glide_gscore>
-5.12867

> <r_i_glide_hbond>
0

> <r_i_glide_ligand_efficiency>
-0.165441

> <r_i_glide_ligand_efficiency_ln>
-1.15667

> <r_i_glide_ligand_efficiency_sa>
-0.519713

> <r_i_glide_lipo>
-2.34681

> <r_i_glide_metal>
0

> <r_i_glide_rewards>
-0.735692

> <s_i_glide_gridfile>
wee1_glide-grid

> <s_m_Source_File>
wee1_decoys_glide_SP.sdf

> <s_m_Source_Path>
/Users/zhangxujun/Desktop

> <s_m_entry_id>
3239

> <s_m_entry_name>
wee1_decoys_glide_SP.2964

> <s_m_subgroup_title>
wee1_decoys_glide_SP

> <s_m_subgroupid>
wee1_decoys_glide_SP


$$$$
