@<TRIPOS>MOLECULE
ZINC40306655_1741
32   33    1
SMALL
USER_CHARGES


@<TRIPOS>ATOM
      1 C1          4.2355   54.0959   24.5451 C.ar      1 UNK         0.0000 
      2 C2          4.6387   54.0966   23.2031 C.ar      1 UNK         0.0000 
      3 C3          5.9836   54.3969   23.2182 C.ar      1 UNK         0.0000 
      4 N4          6.3764   54.5610   24.5173 N.pl3     1 UNK         0.0000 
      5 H5          7.3224   54.7662   24.8073 H         1 UNK         0.0000 
      6 C6          5.3194   54.3986   25.3858 C.ar      1 UNK         0.0000 
      7 C7          5.5116   54.4969   26.8307 C.2       1 UNK         0.0000 
      8 O8          6.6768   54.5794   27.2336 O.2       1 UNK         0.0000 
      9 N9          4.4538   54.4969   27.7018 N.am      1 UNK         0.0000 
     10 C10         4.6983   54.4935   29.1581 C.3       1 UNK         0.0000 
     11 C11         4.2312   53.1092   29.6812 C.3       1 UNK         0.0000 
     12 C12         2.7790   52.7846   29.3040 C.3       1 UNK         0.0000 
     13 C13         2.5058   53.0236   27.8014 C.3       1 UNK         0.0000 
     14 H14         3.1030   52.3028   27.2444 H         1 UNK         0.0000 
     15 C15         3.0132   54.4338   27.3936 C.3       1 UNK         0.0000 
     16 C16         1.0257   52.7793   27.4501 C.3       1 UNK         0.0000 
     17 F17         0.2321   53.6496   28.0817 F         1 UNK         0.0000 
     18 F18         0.8201   52.8962   26.1387 F         1 UNK         0.0000 
     19 F19         0.6377   51.5539   27.8016 F         1 UNK         0.0000 
     20 N20         3.8709   53.8485   22.1084 N.pl3     1 UNK         0.0000 
     21 H21         3.2311   53.8305   24.8260 H         1 UNK         0.0000 
     22 H22         6.6997   54.4982   22.4177 H         1 UNK         0.0000 
     23 H23         5.7218   54.7577   29.4337 H         1 UNK         0.0000 
     24 H24         4.0883   55.2865   29.5921 H         1 UNK         0.0000 
     25 H25         4.9001   52.3322   29.3069 H         1 UNK         0.0000 
     26 H26         4.3040   53.0777   30.7679 H         1 UNK         0.0000 
     27 H27         2.5137   51.7655   29.5909 H         1 UNK         0.0000 
     28 H28         2.1171   53.4237   29.8920 H         1 UNK         0.0000 
     29 H29         2.5136   55.1794   28.0147 H         1 UNK         0.0000 
     30 H30         2.7407   54.8112   26.4157 H         1 UNK         0.0000 
     31 H31         2.8645   53.9313   22.1363 H         1 UNK         0.0000 
     32 H32         4.2767   53.7343   21.1907 H         1 UNK         0.0000 
@<TRIPOS>BOND
     1    1    6 ar   
     2    1    2 ar   
     3    1   21 1    
     4    2    3 ar   
     5    2   20 1    
     6    3    4 ar   
     7    3   22 1    
     8    4    5 1    
     9    4    6 ar   
    10    6    7 1    
    11    7    8 2    
    12    7    9 am   BACKBONE|DICT|INTERRES
    13    9   15 1    
    14    9   10 1    
    15   10   11 1    
    16   10   23 1    
    17   10   24 1    
    18   11   12 1    
    19   11   25 1    
    20   11   26 1    
    21   12   13 1    
    22   12   27 1    
    23   12   28 1    
    24   13   14 1    
    25   13   15 1    
    26   13   16 1    
    27   15   29 1    
    28   15   30 1    
    29   16   17 1    
    30   16   18 1    
    31   16   19 1    
    32   20   31 1    
    33   20   32 1    
@<TRIPOS>SUBSTRUCTURE
     1 UNK         1 GROUP             0       ****    0 ROOT    
