@<TRIPOS>MOLECULE
ZINC02116562_5812
68   71    1
SMALL
USER_CHARGES


@<TRIPOS>ATOM
      1 C1          6.7295   54.6091   24.8303 C.3       1 UNK         0.0000 
      2 C2          6.1890   54.5582   23.4180 C.ar      1 UNK         0.0000 
      3 C3          6.7904   55.2966   22.4073 C.ar      1 UNK         0.0000 
      4 C4          6.2474   55.2793   21.1293 C.ar      1 UNK         0.0000 
      5 C5          5.1219   54.4969   20.8135 C.ar      1 UNK         0.0000 
      6 C6          4.7206   54.5009   19.3682 C.2       1 UNK         0.0000 
      7 C7          5.3140   55.3626   18.4924 C.2       1 UNK         0.0000 
      8 C8          6.3852   56.2852   18.9481 C.2       1 UNK         0.0000 
      9 O9          6.9317   57.1932   18.3213 O.2       1 UNK         0.0000 
     10 O10         6.8843   56.0867   20.2097 O.3       1 UNK         0.0000 
     11 C11         5.0663   55.4097   16.9742 C.3       1 UNK         0.0000 
     12 C12         3.9061   56.3084   16.5609 C.ar      1 UNK         0.0000 
     13 C13         4.0719   57.6965   16.5101 C.ar      1 UNK         0.0000 
     14 C14         3.0194   58.5092   16.0993 C.ar      1 UNK         0.0000 
     15 C15         1.8026   57.9345   15.7367 C.ar      1 UNK         0.0000 
     16 C16         1.6287   56.5531   15.7832 C.ar      1 UNK         0.0000 
     17 C17         2.6825   55.7392   16.1920 C.ar      1 UNK         0.0000 
     18 C18         3.7414   53.4190   18.9056 C.3       1 UNK         0.0000 
     19 C19         4.4492   53.8276   21.8664 C.ar      1 UNK         0.0000 
     20 C20         5.0353   53.8305   23.1428 C.ar      1 UNK         0.0000 
     21 O21         3.2318   53.2174   21.5980 O.3       1 UNK         0.0000 
     22 C22         2.3882   52.5463   22.5553 C.3       1 UNK         0.0000 
     23 H23         2.8584   51.6209   22.8794 H         1 UNK         0.0000 
     24 C24         1.1351   52.1168   21.7693 C.3       1 UNK         0.0000 
     25 C25         1.9990   53.4117   23.7824 C.2       1 UNK         0.0000 
     26 O26         1.4346   54.4943   23.6403 O.2       1 UNK         0.0000 
     27 N27         2.3071   52.8971   24.9873 N.am      1 UNK         0.0000 
     28 C28         1.9970   53.4923   26.2819 C.3       1 UNK         0.0000 
     29 C29         3.1361   54.3082   26.9519 C.3       1 UNK         0.0000 
     30 C30         4.3826   53.4665   27.3395 C.3       1 UNK         0.0000 
     31 C31         4.0788   52.4975   28.5027 C.3       1 UNK         0.0000 
     32 C32         3.5465   53.2793   29.7247 C.3       1 UNK         0.0000 
     33 C33         2.2690   54.0778   29.3583 C.3       1 UNK         0.0000 
     34 C34         2.6309   55.0537   28.2205 C.3       1 UNK         0.0000 
     35 C35         3.3059   52.2906   30.8817 C.2       1 UNK         0.0000 
     36 O36         4.3043   51.6967   31.3369 O.co2     1 UNK         0.0000 
     37 O37         2.1380   52.0966   31.2811 O.co2     1 UNK         0.0000 
     38 H38         7.5158   55.3535   24.9311 H         1 UNK         0.0000 
     39 H39         5.9318   54.8898   25.5160 H         1 UNK         0.0000 
     40 H40         7.1012   53.6332   25.1348 H         1 UNK         0.0000 
     41 H41         7.6663   55.8954   22.6116 H         1 UNK         0.0000 
     42 H42         5.9559   55.7407   16.4327 H         1 UNK         0.0000 
     43 H43         4.9267   54.4061   16.5781 H         1 UNK         0.0000 
     44 H44         5.0088   58.1565   16.7868 H         1 UNK         0.0000 
     45 H45         3.1409   59.5833   16.0741 H         1 UNK         0.0000 
     46 H46         0.9849   58.5698   15.4278 H         1 UNK         0.0000 
     47 H47         0.6814   56.1158   15.5021 H         1 UNK         0.0000 
     48 H48         2.5438   54.6693   16.2176 H         1 UNK         0.0000 
     49 H49         3.6472   53.3244   17.8286 H         1 UNK         0.0000 
     50 H50         4.0642   52.4429   19.2681 H         1 UNK         0.0000 
     51 H51         2.7401   53.6158   19.2804 H         1 UNK         0.0000 
     52 H52         4.5963   53.2967   23.9626 H         1 UNK         0.0000 
     53 H53         0.4239   51.5794   22.3987 H         1 UNK         0.0000 
     54 H54         0.6179   52.9760   21.3357 H         1 UNK         0.0000 
     55 H55         1.4055   51.4500   20.9488 H         1 UNK         0.0000 
     56 H56         2.7668   51.9993   25.0226 H         1 UNK         0.0000 
     57 H57         1.6953   52.6683   26.9270 H         1 UNK         0.0000 
     58 H58         1.1047   54.0970   26.2305 H         1 UNK         0.0000 
     59 H59         3.4705   55.0749   26.2509 H         1 UNK         0.0000 
     60 H60         5.2034   54.1240   27.6300 H         1 UNK         0.0000 
     61 H61         4.7370   52.8959   26.4810 H         1 UNK         0.0000 
     62 H62         4.9998   51.9720   28.7603 H         1 UNK         0.0000 
     63 H63         3.3379   51.7676   28.1718 H         1 UNK         0.0000 
     64 H64         4.3111   53.9785   30.0648 H         1 UNK         0.0000 
     65 H65         1.4639   53.4200   29.0285 H         1 UNK         0.0000 
     66 H66         1.9009   54.6452   30.2148 H         1 UNK         0.0000 
     67 H67         3.4148   55.7124   28.5850 H         1 UNK         0.0000 
     68 H68         1.7633   55.6760   27.9955 H         1 UNK         0.0000 
@<TRIPOS>BOND
     1    1    2 1    
     2    1   38 1    
     3    1   39 1    
     4    1   40 1    
     5    2   20 ar   
     6    2    3 ar   
     7    3    4 ar   
     8    3   41 1    
     9    4   10 1    
    10    4    5 ar   
    11    5    6 1    
    12    5   19 ar   
    13    6    7 2    
    14    6   18 1    
    15    7    8 1    
    16    7   11 1    
    17    8    9 2    
    18    8   10 1    
    19   11   12 1    
    20   11   42 1    
    21   11   43 1    
    22   12   17 ar   
    23   12   13 ar   
    24   13   14 ar   
    25   13   44 1    
    26   14   15 ar   
    27   14   45 1    
    28   15   16 ar   
    29   15   46 1    
    30   16   17 ar   
    31   16   47 1    
    32   17   48 1    
    33   18   49 1    
    34   18   50 1    
    35   18   51 1    
    36   19   20 ar   
    37   19   21 1    
    38   20   52 1    
    39   21   22 1    
    40   22   23 1    
    41   22   24 1    
    42   22   25 1    
    43   24   53 1    
    44   24   54 1    
    45   24   55 1    
    46   25   26 2    
    47   25   27 am   BACKBONE|DICT|INTERRES
    48   27   28 1    
    49   27   56 1    
    50   28   29 1    
    51   28   57 1    
    52   28   58 1    
    53   29   34 1    
    54   29   30 1    
    55   29   59 1    
    56   30   31 1    
    57   30   60 1    
    58   30   61 1    
    59   31   32 1    
    60   31   62 1    
    61   31   63 1    
    62   32   33 1    
    63   32   35 1    
    64   32   64 1    
    65   33   34 1    
    66   33   65 1    
    67   33   66 1    
    68   34   67 1    
    69   34   68 1    
    70   35   36 2    
    71   35   37 1    
@<TRIPOS>SUBSTRUCTURE
     1 UNK         1 GROUP             0       ****    0 ROOT    
