@<TRIPOS>MOLECULE
ZINC39733319_5352
59   63    1
SMALL
USER_CHARGES


@<TRIPOS>ATOM
      1 C1          0.7312   51.4235   18.1638 C.3       1 UNK         0.0000 
      2 C2          2.0818   50.7071   18.2968 C.3       1 UNK         0.0000 
      3 H3          2.6410   50.7953   17.3620 H         1 UNK         0.0000 
      4 C4          1.8272   49.1865   18.5367 C.2       1 UNK         0.0000 
      5 O5          1.9118   48.6927   19.6627 O.2       1 UNK         0.0000 
      6 N6          1.5044   48.4645   17.4396 N.am      1 UNK         0.0000 
      7 C7          1.2094   47.0890   17.3651 C.ar      1 UNK         0.0000 
      8 C8          0.5630   46.3898   18.3979 C.ar      1 UNK         0.0000 
      9 C9          0.3016   45.0257   18.2697 C.ar      1 UNK         0.0000 
     10 C10         0.6852   44.3462   17.1139 C.ar      1 UNK         0.0000 
     11 C11         1.3252   45.0327   16.0831 C.ar      1 UNK         0.0000 
     12 C12         1.5837   46.3988   16.2026 C.ar      1 UNK         0.0000 
     13 F13         2.2037   47.0397   15.1823 F         1 UNK         0.0000 
     14 N14         3.0978   51.2975   19.3318 N.4       1 UNK         0.0000 
     15 C15         3.6480   52.6780   18.8799 C.3       1 UNK         0.0000 
     16 C16         4.6382   53.2359   19.9377 C.3       1 UNK         0.0000 
     17 N17         4.0474   53.3062   21.2897 N.3       1 UNK         0.0000 
     18 C18         3.5901   51.9633   21.6819 C.3       1 UNK         0.0000 
     19 C19         2.4857   51.4845   20.7405 C.3       1 UNK         0.0000 
     20 C20         5.0401   53.8589   22.2407 C.3       1 UNK         0.0000 
     21 C21         4.6259   54.0967   23.7116 C.2       1 UNK         0.0000 
     22 N22         3.3805   54.0004   24.0421 N.am      1 UNK         0.0000 
     23 C23         3.0179   53.9310   25.4012 C.2       1 UNK         0.0000 
     24 O24         1.8908   53.6962   25.8250 O.2       1 UNK         0.0000 
     25 C25         4.1181   54.1012   26.3747 C.2       1 UNK         0.0000 
     26 C26         4.1407   54.0429   27.7317 C.2       1 UNK         0.0000 
     27 C27         5.5128   54.2011   28.3601 C.3       1 UNK         0.0000 
     28 S28         6.7046   54.4969   27.0498 S.3       1 UNK         0.0000 
     29 C29         5.4438   54.3088   25.8251 C.2       1 UNK         0.0000 
     30 N30         5.7005   54.3388   24.5680 N.2       1 UNK         0.0000 
     31 C31         3.0082   53.8273   28.6268 C.2       1 UNK         0.0000 
     32 C32         1.8200   54.5517   28.7125 C.2       1 UNK         0.0000 
     33 C33         0.9439   54.0685   29.6906 C.2       1 UNK         0.0000 
     34 C34         1.4533   52.9726   30.3698 C.2       1 UNK         0.0000 
     35 S35         3.0341   52.5401   29.8021 S.3       1 UNK         0.0000 
     36 H36         0.1513   51.0011   17.3404 H         1 UNK         0.0000 
     37 H37         0.1444   51.3339   19.0790 H         1 UNK         0.0000 
     38 H38         0.8796   52.4811   17.9485 H         1 UNK         0.0000 
     39 H39         1.7084   48.8984   16.5504 H         1 UNK         0.0000 
     40 H40         0.2473   46.8955   19.2982 H         1 UNK         0.0000 
     41 H41        -0.2002   44.4972   19.0669 H         1 UNK         0.0000 
     42 H42         0.4859   43.2897   17.0128 H         1 UNK         0.0000 
     43 H43         1.6197   44.5092   15.1857 H         1 UNK         0.0000 
     44 H44         4.1698   52.4960   17.9382 H         1 UNK         0.0000 
     45 H45         2.8059   53.3538   18.7259 H         1 UNK         0.0000 
     46 H46         5.4940   52.5576   19.9821 H         1 UNK         0.0000 
     47 H47         4.9836   54.2196   19.6155 H         1 UNK         0.0000 
     48 H48         3.1289   51.9746   22.6681 H         1 UNK         0.0000 
     49 H49         4.4248   51.2588   21.6838 H         1 UNK         0.0000 
     50 H50         1.6609   52.1976   20.6753 H         1 UNK         0.0000 
     51 H51         2.1091   50.5352   21.1130 H         1 UNK         0.0000 
     52 H52         5.9033   53.1894   22.2484 H         1 UNK         0.0000 
     53 H53         5.4267   54.7965   21.8392 H         1 UNK         0.0000 
     54 H54         5.8168   53.2942   28.8818 H         1 UNK         0.0000 
     55 H55         5.5481   55.0358   29.0618 H         1 UNK         0.0000 
     56 H56         1.5921   55.3970   28.0796 H         1 UNK         0.0000 
     57 H57        -0.0271   54.4958   29.8930 H         1 UNK         0.0000 
     58 H58         0.9762   52.4104   31.1618 H         1 UNK         0.0000 
     59 H59         3.8850   50.6564   19.3679 H         1 UNK         0.0000 
@<TRIPOS>BOND
     1    1    2 1    
     2    1   36 1    
     3    1   37 1    
     4    1   38 1    
     5    2    3 1    
     6    2    4 1    
     7    2   14 1    
     8    4    5 2    
     9    4    6 am   BACKBONE|DICT|INTERRES
    10    6    7 1    
    11    6   39 1    
    12    7   12 ar   
    13    7    8 ar   
    14    8    9 ar   
    15    8   40 1    
    16    9   10 ar   
    17    9   41 1    
    18   10   11 ar   
    19   10   42 1    
    20   11   12 ar   
    21   11   43 1    
    22   12   13 1    
    23   14   19 1    
    24   14   15 1    
    25   14   59 1    
    26   15   16 1    
    27   15   44 1    
    28   15   45 1    
    29   16   17 1    
    30   16   46 1    
    31   16   47 1    
    32   17   18 1    
    33   17   20 1    
    34   18   19 1    
    35   18   48 1    
    36   18   49 1    
    37   19   50 1    
    38   19   51 1    
    39   20   21 1    
    40   20   52 1    
    41   20   53 1    
    42   21   30 1    
    43   21   22 2    
    44   22   23 am   BACKBONE|DICT|INTERRES
    45   23   24 2    
    46   23   25 1    
    47   25   29 1    
    48   25   26 2    
    49   26   27 1    
    50   26   31 1    
    51   27   28 1    
    52   27   54 1    
    53   27   55 1    
    54   28   29 1    
    55   29   30 2    
    56   31   35 1    
    57   31   32 2    
    58   32   33 1    
    59   32   56 1    
    60   33   34 2    
    61   33   57 1    
    62   34   35 1    
    63   34   58 1    
@<TRIPOS>SUBSTRUCTURE
     1 UNK         1 GROUP             0       ****    0 ROOT    
