ZINC03012106_2326
                    3D
 Schrodinger Suite 2024-2.
 59 62  0  0  1  0            999 V2000
    5.7571   54.4648   14.7818 C   0  0  0  0  0  0
    6.4870   54.5994   16.1049 C   0  0  0  0  0  0
    7.8748   54.7670   16.1311 C   0  0  0  0  0  0
    8.5504   54.8735   17.3507 C   0  0  0  0  0  0
    7.8325   54.8148   18.5457 C   0  0  0  0  0  0
    6.4383   54.6484   18.5312 C   0  0  0  0  0  0
    5.7757   54.5280   17.3054 C   0  0  0  0  0  0
    5.6514   54.5348   19.6876 N   0  0  0  0  0  0
    5.9381   54.9328   20.9461 C   0  0  0  0  0  0
    6.9280   55.5905   21.2777 O   0  0  0  0  0  0
    4.9795   54.4958   21.9338 C   0  0  0  0  0  0
    5.2340   54.3975   23.3111 C   0  0  0  0  0  0
    4.0508   53.9967   23.8966 C   0  0  0  0  0  0
    3.1398   53.9049   22.8674 N   0  0  0  0  0  0
    3.7216   54.1707   21.6857 N   0  0  0  0  0  0
    1.7407   53.4862   22.9686 C   0  0  2  0  0  0
    1.1599   54.1541   22.3344 H   0  0  0  0  0  0
    1.3147   53.6991   24.4453 C   0  0  0  0  0  0
    2.3574   53.2068   25.4806 C   0  0  1  0  0  0
    2.4522   52.1282   25.3699 H   0  0  0  0  0  0
    3.6864   53.7717   25.2041 N   0  0  0  0  0  0
    1.8972   53.4002   26.9289 C   0  0  0  0  0  0
    1.0416   52.4692   27.5303 C   0  0  0  0  0  0
    0.6456   52.6274   28.8607 C   0  0  0  0  0  0
    1.0871   53.7306   29.6110 C   0  0  0  0  0  0
    1.9197   54.6783   28.9987 C   0  0  0  0  0  0
    2.3303   54.4988   27.6815 C   0  0  0  0  0  0
    2.4104   55.7621   29.6823 O   0  0  0  0  0  0
    1.4604   56.7796   29.9731 C   0  0  0  0  0  0
    0.7661   53.9518   30.9350 O   0  0  0  0  0  0
    0.0986   52.9466   31.6789 C   0  0  0  0  0  0
    1.4744   52.0565   22.4363 C   0  0  0  0  0  0
    0.1861   51.7433   22.5611 F   0  0  0  0  0  0
    1.7807   51.9468   21.1433 F   0  0  0  0  0  0
    2.1683   51.1295   23.0920 F   0  0  0  0  0  0
   10.0600   55.0153   17.3824 C   0  0  0  0  0  0
    4.9385   53.7470   14.8653 H   0  0  0  0  0  0
    6.4190   54.0973   13.9948 H   0  0  0  0  0  0
    5.3406   55.4262   14.4771 H   0  0  0  0  0  0
    8.4293   54.8095   15.2053 H   0  0  0  0  0  0
    8.3723   54.8730   19.4774 H   0  0  0  0  0  0
    4.7036   54.3834   17.2774 H   0  0  0  0  0  0
    4.7621   54.0706   19.5636 H   0  0  0  0  0  0
    6.1675   54.6034   23.8144 H   0  0  0  0  0  0
    1.1051   54.7582   24.5897 H   0  0  0  0  0  0
    0.3563   53.2131   24.6311 H   0  0  0  0  0  0
    4.3787   53.3800   25.8285 H   0  0  0  0  0  0
    0.6918   51.6121   26.9734 H   0  0  0  0  0  0
   -0.0072   51.8845   29.2922 H   0  0  0  0  0  0
    2.9913   55.2325   27.2449 H   0  0  0  0  0  0
    1.9044   57.5198   30.6356 H   0  0  0  0  0  0
    1.1468   57.2855   29.0582 H   0  0  0  0  0  0
    0.5712   56.4020   30.4800 H   0  0  0  0  0  0
   -0.0316   53.2979   32.7037 H   0  0  0  0  0  0
   -0.8938   52.7436   31.2760 H   0  0  0  0  0  0
    0.6739   52.0216   31.7161 H   0  0  0  0  0  0
   10.4834   54.4283   18.1984 H   0  0  0  0  0  0
   10.5167   54.6505   16.4626 H   0  0  0  0  0  0
   10.3440   56.0562   17.5353 H   0  0  0  0  0  0
  1  2  1  0  0  0
  1 37  1  0  0  0
  1 38  1  0  0  0
  1 39  1  0  0  0
  2  7  2  0  0  0
  2  3  1  0  0  0
  3  4  2  0  0  0
  3 40  1  0  0  0
  4  5  1  0  0  0
  4 36  1  0  0  0
  5  6  2  0  0  0
  5 41  1  0  0  0
  6  7  1  0  0  0
  6  8  1  0  0  0
  7 42  1  0  0  0
  8  9  1  0  0  0
  8 43  1  0  0  0
  9 10  2  0  0  0
  9 11  1  0  0  0
 11 15  2  0  0  0
 11 12  1  0  0  0
 12 13  2  0  0  0
 12 44  1  0  0  0
 13 21  1  0  0  0
 13 14  1  0  0  0
 14 15  1  0  0  0
 14 16  1  0  0  0
 16 17  1  0  0  0
 16 18  1  0  0  0
 16 32  1  0  0  0
 18 19  1  0  0  0
 18 45  1  0  0  0
 18 46  1  0  0  0
 19 20  1  0  0  0
 19 21  1  0  0  0
 19 22  1  0  0  0
 21 47  1  0  0  0
 22 27  2  0  0  0
 22 23  1  0  0  0
 23 24  2  0  0  0
 23 48  1  0  0  0
 24 25  1  0  0  0
 24 49  1  0  0  0
 25 26  2  0  0  0
 25 30  1  0  0  0
 26 27  1  0  0  0
 26 28  1  0  0  0
 27 50  1  0  0  0
 28 29  1  0  0  0
 29 51  1  0  0  0
 29 52  1  0  0  0
 29 53  1  0  0  0
 30 31  1  0  0  0
 31 54  1  0  0  0
 31 55  1  0  0  0
 31 56  1  0  0  0
 32 33  1  0  0  0
 32 34  1  0  0  0
 32 35  1  0  0  0
 36 57  1  0  0  0
 36 58  1  0  0  0
 36 59  1  0  0  0
M  END
> <i_i_glide_confnum>
15

> <i_i_glide_lignum>
2327

> <i_i_glide_posenum>
300

> <i_i_glide_rotatable_bonds>
7

> <i_m_Source_File_Index>
4261

> <b_m_subgroup_collapsed>
0

> <r_i_docking_score>
-5.97225

> <r_i_glide_ecoul>
-4.31684

> <r_i_glide_eff_state_penalty>
0

> <r_i_glide_einternal>
10.4894

> <r_i_glide_emodel>
-56.5832

> <r_i_glide_energy>
-45.6687

> <r_i_glide_erotb>
0.359535

> <r_i_glide_esite>
-0.00225459

> <r_i_glide_evdw>
-41.3519

> <r_i_glide_gscore>
-5.97225

> <r_i_glide_hbond>
0

> <r_i_glide_ligand_efficiency>
-0.175654

> <r_i_glide_ligand_efficiency_ln>
-1.31944

> <r_i_glide_ligand_efficiency_sa>
-0.569052

> <r_i_glide_lipo>
-2.82336

> <r_i_glide_metal>
0

> <r_i_glide_rewards>
-0.791047

> <s_i_glide_gridfile>
wee1_glide-grid

> <s_m_Source_File>
wee1_decoys_glide_SP.sdf

> <s_m_Source_Path>
/Users/zhangxujun/Desktop

> <s_m_entry_id>
4536

> <s_m_entry_name>
wee1_decoys_glide_SP.4261

> <s_m_subgroup_title>
wee1_decoys_glide_SP

> <s_m_subgroupid>
wee1_decoys_glide_SP


$$$$
