@<TRIPOS>MOLECULE
ZINC27517155_5744
81   84    1
SMALL
USER_CHARGES


@<TRIPOS>ATOM
      1 C1         -1.8231   46.4340   18.8892 C.3       1 UNK         0.0000 
      2 C2         -2.3519   47.1728   20.1266 C.3       1 UNK         0.0000 
      3 C3         -1.2177   47.7455   21.0090 C.3       1 UNK         0.0000 
      4 C4         -1.6190   48.3655   22.3907 C.3       1 UNK         0.0000 
      5 C5         -2.8230   49.3412   22.2039 C.3       1 UNK         0.0000 
      6 N6         -3.3572   49.8606   23.4877 N.am      1 UNK         0.0000 
      7 C7         -3.5664   48.8860   24.5932 C.3       1 UNK         0.0000 
      8 C8         -2.3811   47.8690   24.7653 C.3       1 UNK         0.0000 
      9 C9         -2.0494   47.2610   23.3879 C.2       1 UNK         0.0000 
     10 O10        -2.0990   46.0562   23.1261 O.2       1 UNK         0.0000 
     11 C11        -1.0520   48.5117   25.2920 C.3       1 UNK         0.0000 
     12 N12        -0.5516   49.5510   24.3641 N.am      1 UNK         0.0000 
     13 C13        -0.3640   49.1205   22.9546 C.3       1 UNK         0.0000 
     14 C14        -0.0214   50.7478   24.7595 C.2       1 UNK         0.0000 
     15 O15         0.6175   51.4709   23.9880 O.2       1 UNK         0.0000 
     16 C16        -0.1591   51.2231   26.1904 C.ar      1 UNK         0.0000 
     17 C17        -1.3757   51.1930   26.8792 C.ar      1 UNK         0.0000 
     18 C18        -1.4415   51.6189   28.2024 C.ar      1 UNK         0.0000 
     19 C19        -0.3184   52.1228   28.8502 C.ar      1 UNK         0.0000 
     20 C20         0.8851   52.2141   28.1439 C.ar      1 UNK         0.0000 
     21 C21         0.9578   51.7649   26.8318 C.ar      1 UNK         0.0000 
     22 O22        -0.5052   52.5076   30.1663 O.3       1 UNK         0.0000 
     23 C23         0.4853   53.1954   30.9273 C.3       1 UNK         0.0000 
     24 C24         1.6922   52.3089   31.3020 C.3       1 UNK         0.0000 
     25 C25         0.7965   54.5985   30.3619 C.3       1 UNK         0.0000 
     26 C26        -2.7844   46.7647   25.8009 C.3       1 UNK         0.0000 
     27 C27        -4.1035   45.9971   25.5631 C.3       1 UNK         0.0000 
     28 C28        -3.4716   51.2091   23.6647 C.2       1 UNK         0.0000 
     29 O29        -2.8961   52.0215   22.9314 O.2       1 UNK         0.0000 
     30 C30        -4.3852   51.7432   24.7523 C.ar      1 UNK         0.0000 
     31 C31        -4.0928   52.9611   25.3763 C.ar      1 UNK         0.0000 
     32 C32        -4.9177   53.4494   26.3861 C.ar      1 UNK         0.0000 
     33 C33        -6.0387   52.7331   26.8018 C.ar      1 UNK         0.0000 
     34 C34        -6.3841   51.5621   26.1183 C.ar      1 UNK         0.0000 
     35 C35        -5.5710   51.0778   25.0996 C.ar      1 UNK         0.0000 
     36 O36        -6.7378   53.2448   27.8806 O.3       1 UNK         0.0000 
     37 C37        -7.6230   52.4056   28.6272 C.3       1 UNK         0.0000 
     38 C38        -7.3431   52.6525   30.1147 C.3       1 UNK         0.0000 
     39 C39        -9.0700   52.7478   28.2492 C.3       1 UNK         0.0000 
     40 H40        -2.6462   46.0502   18.2851 H         1 UNK         0.0000 
     41 H41        -1.2300   47.0964   18.2576 H         1 UNK         0.0000 
     42 H42        -1.1967   45.5874   19.1709 H         1 UNK         0.0000 
     43 H43        -2.9798   46.4913   20.6997 H         1 UNK         0.0000 
     44 H44        -3.0034   47.9799   19.7906 H         1 UNK         0.0000 
     45 H45        -0.6793   48.4926   20.4241 H         1 UNK         0.0000 
     46 H46        -0.4956   46.9475   21.1746 H         1 UNK         0.0000 
     47 H47        -2.5023   50.1397   21.5327 H         1 UNK         0.0000 
     48 H48        -3.6465   48.8200   21.7184 H         1 UNK         0.0000 
     49 H49        -4.4915   48.3511   24.3844 H         1 UNK         0.0000 
     50 H50        -3.6640   49.3830   25.5571 H         1 UNK         0.0000 
     51 H51        -0.2846   47.7383   25.3714 H         1 UNK         0.0000 
     52 H52        -1.2212   48.8742   26.3019 H         1 UNK         0.0000 
     53 H53        -0.2350   49.9862   22.3014 H         1 UNK         0.0000 
     54 H54         0.5272   48.4968   22.8923 H         1 UNK         0.0000 
     55 H55        -2.2730   50.8178   26.4139 H         1 UNK         0.0000 
     56 H56        -2.3779   51.5413   28.7380 H         1 UNK         0.0000 
     57 H57         1.7810   52.6166   28.5809 H         1 UNK         0.0000 
     58 H58         1.9019   51.8130   26.3172 H         1 UNK         0.0000 
     59 H59        -0.0131   53.3894   31.8805 H         1 UNK         0.0000 
     60 H60         2.5255   52.8922   31.6802 H         1 UNK         0.0000 
     61 H61         2.0641   51.7000   30.4832 H         1 UNK         0.0000 
     62 H62         1.4075   51.6186   32.0971 H         1 UNK         0.0000 
     63 H63         1.6174   55.0852   30.8816 H         1 UNK         0.0000 
     64 H64         1.0430   54.5974   29.3034 H         1 UNK         0.0000 
     65 H65        -0.0773   55.2409   30.4820 H         1 UNK         0.0000 
     66 H66        -1.9727   46.0388   25.8967 H         1 UNK         0.0000 
     67 H67        -2.8599   47.2211   26.7906 H         1 UNK         0.0000 
     68 H68        -4.2114   45.1903   26.2905 H         1 UNK         0.0000 
     69 H69        -4.9729   46.6440   25.6865 H         1 UNK         0.0000 
     70 H70        -4.1637   45.5527   24.5700 H         1 UNK         0.0000 
     71 H71        -3.2118   53.5219   25.0968 H         1 UNK         0.0000 
     72 H72        -4.6606   54.3740   26.8786 H         1 UNK         0.0000 
     73 H73        -7.2815   51.0146   26.3576 H         1 UNK         0.0000 
     74 H74        -5.8809   50.1817   24.5858 H         1 UNK         0.0000 
     75 H75        -7.4467   51.3410   28.4614 H         1 UNK         0.0000 
     76 H76        -8.0039   52.0546   30.7425 H         1 UNK         0.0000 
     77 H77        -6.3186   52.3786   30.3638 H         1 UNK         0.0000 
     78 H78        -7.4866   53.6974   30.3847 H         1 UNK         0.0000 
     79 H79        -9.7786   52.1202   28.7919 H         1 UNK         0.0000 
     80 H80        -9.3022   53.7879   28.4830 H         1 UNK         0.0000 
     81 H81        -9.2442   52.5955   27.1837 H         1 UNK         0.0000 
@<TRIPOS>BOND
     1    1    2 1    
     2    1   40 1    
     3    1   41 1    
     4    1   42 1    
     5    2    3 1    
     6    2   43 1    
     7    2   44 1    
     8    3    4 1    
     9    3   45 1    
    10    3   46 1    
    11    4    9 1    
    12    4   13 1    
    13    4    5 1    
    14    5    6 1    
    15    5   47 1    
    16    5   48 1    
    17    6    7 1    
    18    6   28 am   BACKBONE|DICT|INTERRES
    19    7    8 1    
    20    7   49 1    
    21    7   50 1    
    22    8    9 1    
    23    8   11 1    
    24    8   26 1    
    25    9   10 2    
    26   11   12 1    
    27   11   51 1    
    28   11   52 1    
    29   12   13 1    
    30   12   14 am   BACKBONE|DICT|INTERRES
    31   13   53 1    
    32   13   54 1    
    33   14   15 2    
    34   14   16 1    
    35   16   21 ar   
    36   16   17 ar   
    37   17   18 ar   
    38   17   55 1    
    39   18   19 ar   
    40   18   56 1    
    41   19   20 ar   
    42   19   22 1    
    43   20   21 ar   
    44   20   57 1    
    45   21   58 1    
    46   22   23 1    
    47   23   24 1    
    48   23   25 1    
    49   23   59 1    
    50   24   60 1    
    51   24   61 1    
    52   24   62 1    
    53   25   63 1    
    54   25   64 1    
    55   25   65 1    
    56   26   27 1    
    57   26   66 1    
    58   26   67 1    
    59   27   68 1    
    60   27   69 1    
    61   27   70 1    
    62   28   29 2    
    63   28   30 1    
    64   30   35 ar   
    65   30   31 ar   
    66   31   32 ar   
    67   31   71 1    
    68   32   33 ar   
    69   32   72 1    
    70   33   34 ar   
    71   33   36 1    
    72   34   35 ar   
    73   34   73 1    
    74   35   74 1    
    75   36   37 1    
    76   37   38 1    
    77   37   39 1    
    78   37   75 1    
    79   38   76 1    
    80   38   77 1    
    81   38   78 1    
    82   39   79 1    
    83   39   80 1    
    84   39   81 1    
@<TRIPOS>SUBSTRUCTURE
     1 UNK         1 GROUP             0       ****    0 ROOT    
