ZINC11394997_1885
                    3D
 Schrodinger Suite 2024-2.
 48 50  0  0  1  0            999 V2000
    2.6679   53.6819   27.9445 C   0  0  0  0  0  0
    1.4218   52.9440   27.5149 C   0  0  0  0  0  0
    0.1864   52.8978   28.1492 C   0  0  0  0  0  0
   -0.9016   51.9148   27.2177 S   0  0  0  0  0  0
    0.3879   51.6383   26.0817 C   0  0  0  0  0  0
    1.5044   52.2468   26.3977 N   0  0  0  0  0  0
    0.2055   50.7236   24.9348 C   0  0  0  0  0  0
    0.1131   49.4163   25.2473 C   0  0  0  0  0  0
   -0.3009   48.4662   24.3554 N   0  0  0  0  0  0
   -0.8140   48.8019   23.1273 C   0  0  0  0  0  0
   -0.6874   50.0609   22.6519 C   0  0  0  0  0  0
    0.0349   51.1912   23.4478 C   0  0  0  0  0  0
   -0.8200   52.4808   23.3602 C   0  0  0  0  0  0
   -0.0770   53.7333   23.8208 C   0  0  0  0  0  0
    1.2785   53.9397   23.1246 C   0  0  0  0  0  0
    2.1759   52.6940   23.1855 C   0  0  0  0  0  0
    1.4215   51.4168   22.7650 C   0  0  0  0  0  0
   -1.2442   50.3715   21.3705 C   0  0  0  0  0  0
   -1.7096   50.6663   20.3518 N   0  0  0  0  0  0
   -1.6954   47.4733   22.3160 S   0  0  0  0  0  0
   -2.7893   46.7919   23.6047 C   0  0  0  0  0  0
   -3.6349   47.8562   24.3294 C   0  0  0  0  0  0
   -3.6961   45.7009   23.0128 C   0  0  0  0  0  0
    0.3048   48.8967   26.4817 N   0  0  0  0  0  0
    2.5195   54.2204   28.8805 H   0  0  0  0  0  0
    3.5086   53.0037   28.0962 H   0  0  0  0  0  0
    2.9776   54.4182   27.2015 H   0  0  0  0  0  0
   -0.1203   53.3691   29.0707 H   0  0  0  0  0  0
   -0.3893   47.5188   24.6855 H   0  0  0  0  0  0
   -1.7407   52.3618   23.9340 H   0  0  0  0  0  0
   -1.1361   52.6663   22.3342 H   0  0  0  0  0  0
    0.0849   53.6968   24.8817 H   0  0  0  0  0  0
   -0.7432   54.5747   23.6817 H   0  0  0  0  0  0
    1.7955   54.7996   23.5522 H   0  0  0  0  0  0
    1.1053   54.1754   22.0816 H   0  0  0  0  0  0
    2.5997   52.5765   24.1787 H   0  0  0  0  0  0
    3.0368   52.8377   22.5310 H   0  0  0  0  0  0
    1.2844   51.4735   21.6832 H   0  0  0  0  0  0
    2.0620   50.5478   22.9279 H   0  0  0  0  0  0
   -2.1414   46.3208   24.3450 H   0  0  0  0  0  0
   -4.2819   47.4031   25.0816 H   0  0  0  0  0  0
   -3.0144   48.5839   24.8525 H   0  0  0  0  0  0
   -4.2700   48.4032   23.6317 H   0  0  0  0  0  0
   -4.3115   45.2328   23.7815 H   0  0  0  0  0  0
   -4.3733   46.1178   22.2658 H   0  0  0  0  0  0
   -3.1152   44.9182   22.5247 H   0  0  0  0  0  0
    0.1530   49.4716   27.2974 H   0  0  0  0  0  0
    0.3043   47.8936   26.6443 H   0  0  0  0  0  0
  1  2  1  0  0  0
  1 25  1  0  0  0
  1 26  1  0  0  0
  1 27  1  0  0  0
  2  6  1  0  0  0
  2  3  2  0  0  0
  3  4  1  0  0  0
  3 28  1  0  0  0
  4  5  1  0  0  0
  5  6  2  0  0  0
  5  7  1  0  0  0
  7 12  1  0  0  0
  7  8  2  0  0  0
  8  9  1  0  0  0
  8 24  1  0  0  0
  9 10  1  0  0  0
  9 29  1  0  0  0
 10 11  2  0  0  0
 10 20  1  0  0  0
 11 12  1  0  0  0
 11 18  1  0  0  0
 12 17  1  0  0  0
 12 13  1  0  0  0
 13 14  1  0  0  0
 13 30  1  0  0  0
 13 31  1  0  0  0
 14 15  1  0  0  0
 14 32  1  0  0  0
 14 33  1  0  0  0
 15 16  1  0  0  0
 15 34  1  0  0  0
 15 35  1  0  0  0
 16 17  1  0  0  0
 16 36  1  0  0  0
 16 37  1  0  0  0
 17 38  1  0  0  0
 17 39  1  0  0  0
 18 19  3  0  0  0
 20 21  1  0  0  0
 21 22  1  0  0  0
 21 23  1  0  0  0
 21 40  1  0  0  0
 22 41  1  0  0  0
 22 42  1  0  0  0
 22 43  1  0  0  0
 23 44  1  0  0  0
 23 45  1  0  0  0
 23 46  1  0  0  0
 24 47  1  0  0  0
 24 48  1  0  0  0
M  END
> <i_i_glide_confnum>
9

> <i_i_glide_lignum>
1886

> <i_i_glide_posenum>
233

> <i_i_glide_rotatable_bonds>
4

> <i_m_Source_File_Index>
644

> <b_m_subgroup_collapsed>
0

> <r_i_docking_score>
-3.70619

> <r_i_glide_ecoul>
-4.28223

> <r_i_glide_eff_state_penalty>
0

> <r_i_glide_einternal>
2.85805

> <r_i_glide_emodel>
-26.3962

> <r_i_glide_energy>
-22.0855

> <r_i_glide_erotb>
0.295101

> <r_i_glide_esite>
-0.103621

> <r_i_glide_evdw>
-17.8032

> <r_i_glide_gscore>
-3.70619

> <r_i_glide_hbond>
-0.324696

> <r_i_glide_ligand_efficiency>
-0.154425

> <r_i_glide_ligand_efficiency_ln>
-0.887061

> <r_i_glide_ligand_efficiency_sa>
-0.445437

> <r_i_glide_lipo>
-1.08963

> <r_i_glide_metal>
0

> <r_i_glide_rewards>
-0.95085

> <s_i_glide_gridfile>
wee1_glide-grid

> <s_m_Source_File>
wee1_decoys_glide_SP.sdf

> <s_m_Source_Path>
/Users/zhangxujun/Desktop

> <s_m_entry_id>
919

> <s_m_entry_name>
wee1_decoys_glide_SP.644

> <s_m_subgroup_title>
wee1_decoys_glide_SP

> <s_m_subgroupid>
wee1_decoys_glide_SP


$$$$
