@<TRIPOS>MOLECULE
ZINC14544862_2351
58   63    1
SMALL
USER_CHARGES


@<TRIPOS>ATOM
      1 C1          4.8564   58.1562   16.8725 C.ar      1 UNK         0.0000 
      2 C2          6.0649   57.8156   17.4749 C.ar      1 UNK         0.0000 
      3 C3          6.1979   56.5817   18.1065 C.ar      1 UNK         0.0000 
      4 C4          5.1136   55.7008   18.1512 C.ar      1 UNK         0.0000 
      5 C5          3.9059   56.0463   17.5345 C.ar      1 UNK         0.0000 
      6 C6          3.7796   57.2723   16.8857 C.ar      1 UNK         0.0000 
      7 C7          5.2473   54.3669   18.8733 C.3       1 UNK         0.0000 
      8 N8          4.3043   54.2981   20.0037 N.pl3     1 UNK         0.0000 
      9 S9          3.8673   52.6971   20.5764 S.o2      1 UNK         0.0000 
     10 O10         2.8394   52.1599   19.6796 O.2       1 UNK         0.0000 
     11 O11         5.1043   51.9600   20.8481 O.2       1 UNK         0.0000 
     12 C12         3.1144   52.9612   22.1678 C.ar      1 UNK         0.0000 
     13 C13         3.6599   53.9062   23.0335 C.ar      1 UNK         0.0000 
     14 C14         3.1281   54.0608   24.3079 C.ar      1 UNK         0.0000 
     15 C15         2.0593   53.2659   24.7216 C.ar      1 UNK         0.0000 
     16 C16         1.5041   52.2945   23.8728 C.ar      1 UNK         0.0000 
     17 C17         2.0319   52.1805   22.5778 C.ar      1 UNK         0.0000 
     18 C18         0.3562   51.4036   24.3439 C.3       1 UNK         0.0000 
     19 H19        -0.5081   51.6890   23.7438 H         1 UNK         0.0000 
     20 C20         0.6058   49.9207   24.1476 C.2       1 UNK         0.0000 
     21 C21         0.2088   49.2086   25.2109 C.2       1 UNK         0.0000 
     22 C22        -0.3172   50.0966   26.3114 C.3       1 UNK         0.0000 
     23 C23         0.0027   51.5327   25.8510 C.3       1 UNK         0.0000 
     24 H24        -0.9039   52.1383   25.9195 H         1 UNK         0.0000 
     25 C25         1.0816   52.2284   26.7464 C.3       1 UNK         0.0000 
     26 H26         1.9038   51.5313   26.8821 H         1 UNK         0.0000 
     27 N27         1.6635   53.3725   26.0563 N.pl3     1 UNK         0.0000 
     28 C28         0.6152   52.6150   28.1602 C.ar      1 UNK         0.0000 
     29 C29        -0.1742   51.8636   29.0245 C.ar      1 UNK         0.0000 
     30 N30        -0.3337   52.4916   30.2299 N.pl3     1 UNK         0.0000 
     31 H31        -0.8547   52.0902   31.0044 H         1 UNK         0.0000 
     32 C32         0.3020   53.7058   30.1969 C.ar      1 UNK         0.0000 
     33 C33         0.9267   53.8215   28.9153 C.ar      1 UNK         0.0000 
     34 C34         1.6703   54.9972   28.6623 C.ar      1 UNK         0.0000 
     35 C35         1.7434   55.9956   29.6273 C.ar      1 UNK         0.0000 
     36 C36         1.1044   55.8532   30.8495 C.ar      1 UNK         0.0000 
     37 C37         0.3755   54.7041   31.1677 C.ar      1 UNK         0.0000 
     38 H38         4.7526   59.1217   16.3939 H         1 UNK         0.0000 
     39 H39         6.8878   58.5155   17.4564 H         1 UNK         0.0000 
     40 H40         7.1363   56.3223   18.5754 H         1 UNK         0.0000 
     41 H41         3.0627   55.3705   17.5620 H         1 UNK         0.0000 
     42 H42         2.8468   57.5506   16.4174 H         1 UNK         0.0000 
     43 H43         5.1232   53.5104   18.2058 H         1 UNK         0.0000 
     44 H44         6.2534   54.2894   19.2858 H         1 UNK         0.0000 
     45 H45         3.4334   54.7469   19.6986 H         1 UNK         0.0000 
     46 H46         4.5077   54.5026   22.7311 H         1 UNK         0.0000 
     47 H47         3.5703   54.7801   24.9833 H         1 UNK         0.0000 
     48 H48         1.6254   51.4450   21.8992 H         1 UNK         0.0000 
     49 H49         1.0030   49.5120   23.2294 H         1 UNK         0.0000 
     50 H50         0.2519   48.1330   25.3173 H         1 UNK         0.0000 
     51 H51         0.1991   49.8272   27.2298 H         1 UNK         0.0000 
     52 H52        -1.3855   49.9381   26.4657 H         1 UNK         0.0000 
     53 H53         2.2183   53.9503   26.6660 H         1 UNK         0.0000 
     54 H54        -0.6392   50.8955   28.8970 H         1 UNK         0.0000 
     55 H55         2.1818   55.1640   27.7299 H         1 UNK         0.0000 
     56 H56         2.3028   56.8988   29.4263 H         1 UNK         0.0000 
     57 H57         1.1869   56.6473   31.5790 H         1 UNK         0.0000 
     58 H58        -0.0951   54.5851   32.1335 H         1 UNK         0.0000 
@<TRIPOS>BOND
     1    1    6 ar   
     2    1    2 ar   
     3    1   38 1    
     4    2    3 ar   
     5    2   39 1    
     6    3    4 ar   
     7    3   40 1    
     8    4    5 ar   
     9    4    7 1    
    10    5    6 ar   
    11    5   41 1    
    12    6   42 1    
    13    7    8 1    
    14    7   43 1    
    15    7   44 1    
    16    8    9 1    
    17    8   45 1    
    18    9   10 2    
    19    9   11 2    
    20    9   12 1    
    21   12   17 ar   
    22   12   13 ar   
    23   13   14 ar   
    24   13   46 1    
    25   14   15 ar   
    26   14   47 1    
    27   15   27 1    
    28   15   16 ar   
    29   16   17 ar   
    30   16   18 1    
    31   17   48 1    
    32   18   19 1    
    33   18   23 1    
    34   18   20 1    
    35   20   21 2    
    36   20   49 1    
    37   21   22 1    
    38   21   50 1    
    39   22   23 1    
    40   22   51 1    
    41   22   52 1    
    42   23   24 1    
    43   23   25 1    
    44   25   26 1    
    45   25   27 1    
    46   25   28 1    
    47   27   53 1    
    48   28   33 ar   
    49   28   29 ar   
    50   29   30 ar   
    51   29   54 1    
    52   30   31 1    
    53   30   32 ar   
    54   32   37 ar   
    55   32   33 ar   
    56   33   34 ar   
    57   34   35 ar   
    58   34   55 1    
    59   35   36 ar   
    60   35   56 1    
    61   36   37 ar   
    62   36   57 1    
    63   37   58 1    
@<TRIPOS>SUBSTRUCTURE
     1 UNK         1 GROUP             0       ****    0 ROOT    
