@<TRIPOS>MOLECULE
ZINC39693324_401
76   80    1
SMALL
USER_CHARGES


@<TRIPOS>ATOM
      1 C1          2.7724   57.0056   16.2853 C.ar      1 UNK         0.0000 
      2 C2          2.4674   55.6616   16.4551 C.ar      1 UNK         0.0000 
      3 C3          3.2854   54.8414   17.2283 C.ar      1 UNK         0.0000 
      4 C4          4.4412   55.3606   17.8804 C.ar      1 UNK         0.0000 
      5 C5          4.7502   56.7476   17.6863 C.ar      1 UNK         0.0000 
      6 C6          3.9025   57.5515   16.8826 C.ar      1 UNK         0.0000 
      7 C7          5.9049   57.2971   18.2952 C.ar      1 UNK         0.0000 
      8 C8          6.7353   56.5021   19.0757 C.ar      1 UNK         0.0000 
      9 C9          6.4473   55.1579   19.2683 C.ar      1 UNK         0.0000 
     10 C10         5.3209   54.5657   18.6941 C.ar      1 UNK         0.0000 
     11 C11         5.1116   53.0560   18.8813 C.3       1 UNK         0.0000 
     12 C12         3.8620   52.6503   19.6799 C.2       1 UNK         0.0000 
     13 O13         3.6277   53.1524   20.7794 O.2       1 UNK         0.0000 
     14 N14         3.1044   51.6969   19.1039 N.am      1 UNK         0.0000 
     15 C15         1.8602   51.0876   19.5707 C.3       1 UNK         0.0000 
     16 C16         0.7594   52.0613   20.0362 C.3       1 UNK         0.0000 
     17 N17         0.9442   52.4963   21.4206 N.am      1 UNK         0.0000 
     18 C18         0.0002   52.4072   22.3682 C.2       1 UNK         0.0000 
     19 O19        -1.1556   52.0828   22.0927 O.2       1 UNK         0.0000 
     20 C20         0.3061   52.8320   23.8242 C.3       1 UNK         0.0000 
     21 H21        -0.2867   53.7327   23.9913 H         1 UNK         0.0000 
     22 C22         1.7791   53.2297   24.0539 C.3       1 UNK         0.0000 
     23 N23         1.9043   53.1324   25.5159 N.am      1 UNK         0.0000 
     24 C24         0.8286   52.3080   26.0843 C.3       1 UNK         0.0000 
     25 C25         0.0358   51.7350   24.8859 C.3       1 UNK         0.0000 
     26 C26         0.5590   50.3209   24.4670 C.3       1 UNK         0.0000 
     27 C27         0.4390   49.2895   25.6099 C.3       1 UNK         0.0000 
     28 N28        -1.0340   49.2536   26.0816 N.4       1 UNK         0.0000 
     29 C29        -1.6772   50.6209   26.3977 C.3       1 UNK         0.0000 
     30 C30        -1.4717   51.5364   25.1820 C.3       1 UNK         0.0000 
     31 C31         2.8250   53.8657   26.2045 C.2       1 UNK         0.0000 
     32 O32         3.6530   54.5543   25.6028 O.2       1 UNK         0.0000 
     33 C33         2.9139   53.8607   27.7610 C.3       1 UNK         0.0000 
     34 H34         3.7031   54.5851   27.9777 H         1 UNK         0.0000 
     35 C35         3.4627   52.5066   28.2744 C.3       1 UNK         0.0000 
     36 C36         3.5263   52.4426   29.8128 C.3       1 UNK         0.0000 
     37 C37         2.2119   52.8943   30.4228 C.2       1 UNK         0.0000 
     38 C38         1.3870   53.7772   29.8311 C.2       1 UNK         0.0000 
     39 C39         1.6539   54.4437   28.4839 C.3       1 UNK         0.0000 
     40 H40         2.1301   57.6327   15.6846 H         1 UNK         0.0000 
     41 H41         1.5906   55.2487   15.9779 H         1 UNK         0.0000 
     42 H42         3.0279   53.7990   17.3250 H         1 UNK         0.0000 
     43 H43         4.1339   58.5990   16.7446 H         1 UNK         0.0000 
     44 H44         6.1357   58.3436   18.1451 H         1 UNK         0.0000 
     45 H45         7.6231   56.9241   19.5222 H         1 UNK         0.0000 
     46 H46         7.1252   54.5669   19.8657 H         1 UNK         0.0000 
     47 H47         5.1037   52.5978   17.8908 H         1 UNK         0.0000 
     48 H48         5.9625   52.6100   19.3934 H         1 UNK         0.0000 
     49 H49         3.5587   51.2157   18.3310 H         1 UNK         0.0000 
     50 H50         1.4684   50.3568   18.8624 H         1 UNK         0.0000 
     51 H51         2.1614   50.4798   20.4268 H         1 UNK         0.0000 
     52 H52         0.8517   52.9773   19.4501 H         1 UNK         0.0000 
     53 H53        -0.2326   51.6858   19.7773 H         1 UNK         0.0000 
     54 H54         1.8416   52.9268   21.6193 H         1 UNK         0.0000 
     55 H55         2.4411   52.4786   23.6202 H         1 UNK         0.0000 
     56 H56         1.9811   54.2233   23.6465 H         1 UNK         0.0000 
     57 H57         0.1255   52.9803   26.5637 H         1 UNK         0.0000 
     58 H58         1.1034   51.5790   26.8393 H         1 UNK         0.0000 
     59 H59         0.0538   49.9508   23.5727 H         1 UNK         0.0000 
     60 H60         1.6115   50.3802   24.1896 H         1 UNK         0.0000 
     61 H61         0.6830   48.2759   25.2834 H         1 UNK         0.0000 
     62 H62         1.0499   49.5137   26.4840 H         1 UNK         0.0000 
     63 H63        -1.5980   48.7664   25.4018 H         1 UNK         0.0000 
     64 H64        -2.7296   50.4179   26.6061 H         1 UNK         0.0000 
     65 H65        -1.2053   50.9810   27.3135 H         1 UNK         0.0000 
     66 H66        -1.9194   52.5015   25.4230 H         1 UNK         0.0000 
     67 H67        -2.0219   51.1745   24.3120 H         1 UNK         0.0000 
     68 H68         2.8181   51.6751   27.9938 H         1 UNK         0.0000 
     69 H69         4.4830   52.3534   27.9180 H         1 UNK         0.0000 
     70 H70         4.3267   53.0816   30.1825 H         1 UNK         0.0000 
     71 H71         3.7801   51.4303   30.1285 H         1 UNK         0.0000 
     72 H72         1.9233   52.4979   31.3873 H         1 UNK         0.0000 
     73 H73         0.4809   54.0363   30.3597 H         1 UNK         0.0000 
     74 H74         1.6918   55.5330   28.5472 H         1 UNK         0.0000 
     75 H75         0.7409   54.2234   27.9457 H         1 UNK         0.0000 
     76 H76        -1.1140   48.7177   26.9650 H         1 UNK         0.0000 
@<TRIPOS>BOND
     1    1    6 ar   
     2    1    2 ar   
     3    1   40 1    
     4    2    3 ar   
     5    2   41 1    
     6    3    4 ar   
     7    3   42 1    
     8    4   10 ar   
     9    4    5 ar   
    10    5    6 ar   
    11    5    7 ar   
    12    6   43 1    
    13    7    8 ar   
    14    7   44 1    
    15    8    9 ar   
    16    8   45 1    
    17    9   10 ar   
    18    9   46 1    
    19   10   11 1    
    20   11   12 1    
    21   11   47 1    
    22   11   48 1    
    23   12   13 2    
    24   12   14 am   BACKBONE|DICT|INTERRES
    25   14   15 1    
    26   14   49 1    
    27   15   16 1    
    28   15   50 1    
    29   15   51 1    
    30   16   17 1    
    31   16   52 1    
    32   16   53 1    
    33   17   18 am   BACKBONE|DICT|INTERRES
    34   17   54 1    
    35   18   19 2    
    36   18   20 1    
    37   20   21 1    
    38   20   25 1    
    39   20   22 1    
    40   22   23 1    
    41   22   55 1    
    42   22   56 1    
    43   23   24 1    
    44   23   31 am   BACKBONE|DICT|INTERRES
    45   24   25 1    
    46   24   57 1    
    47   24   58 1    
    48   25   30 1    
    49   25   26 1    
    50   26   27 1    
    51   26   59 1    
    52   26   60 1    
    53   27   28 1    
    54   27   61 1    
    55   27   62 1    
    56   28   29 1    
    57   28   63 1    
    58   28   76 1    
    59   29   30 1    
    60   29   64 1    
    61   29   65 1    
    62   30   66 1    
    63   30   67 1    
    64   31   32 2    
    65   31   33 1    
    66   33   34 1    
    67   33   39 1    
    68   33   35 1    
    69   35   36 1    
    70   35   68 1    
    71   35   69 1    
    72   36   37 1    
    73   36   70 1    
    74   36   71 1    
    75   37   38 2    
    76   37   72 1    
    77   38   39 1    
    78   38   73 1    
    79   39   74 1    
    80   39   75 1    
@<TRIPOS>SUBSTRUCTURE
     1 UNK         1 GROUP             0       ****    0 ROOT    
