@<TRIPOS>MOLECULE
ZINC24028573_2076
55   58    1
SMALL
USER_CHARGES


@<TRIPOS>ATOM
      1 C1          6.5418   56.7743   13.3916 C.ar      1 UNK         0.0000 
      2 C2          5.3978   56.0472   13.7164 C.ar      1 UNK         0.0000 
      3 C3          4.9813   55.9728   15.0427 C.ar      1 UNK         0.0000 
      4 C4          5.7108   56.6301   16.0363 C.ar      1 UNK         0.0000 
      5 C5          6.8588   57.3568   15.7085 C.ar      1 UNK         0.0000 
      6 C6          7.2731   57.4295   14.3812 C.ar      1 UNK         0.0000 
      7 S7          5.1856   56.4999   17.7415 S.o2      1 UNK         0.0000 
      8 O8          3.7224   56.3975   17.7158 O.2       1 UNK         0.0000 
      9 O9          5.8753   57.5668   18.4793 O.2       1 UNK         0.0000 
     10 N10         5.8614   54.9390   18.2587 N.pl3     1 UNK         0.0000 
     11 C11         4.9232   53.8033   18.4704 C.3       1 UNK         0.0000 
     12 C12         4.2278   53.8633   19.8557 C.3       1 UNK         0.0000 
     13 C13         5.2951   54.0490   20.9771 C.3       1 UNK         0.0000 
     14 C14         6.3139   55.2001   20.6944 C.3       1 UNK         0.0000 
     15 C15         6.9237   55.0049   19.2869 C.3       1 UNK         0.0000 
     16 C16         4.7282   54.1053   22.4168 C.2       1 UNK         0.0000 
     17 O17         3.5214   53.9742   22.6183 O.2       1 UNK         0.0000 
     18 N18         5.6581   54.2391   23.3901 N.am      1 UNK         0.0000 
     19 C19         5.5253   54.3203   24.7879 C.ar      1 UNK         0.0000 
     20 C20         6.6984   54.6046   25.4905 C.ar      1 UNK         0.0000 
     21 C21         6.6946   54.6491   26.8835 C.ar      1 UNK         0.0000 
     22 C22         5.5213   54.3973   27.5902 C.ar      1 UNK         0.0000 
     23 C23         4.3316   54.1077   26.9034 C.ar      1 UNK         0.0000 
     24 C24         4.3374   54.0965   25.5030 C.ar      1 UNK         0.0000 
     25 N25         3.1169   53.7570   27.5218 N.am      1 UNK         0.0000 
     26 C26         2.7930   53.6948   28.8327 C.2       1 UNK         0.0000 
     27 O27         3.4877   54.1041   29.7654 O.2       1 UNK         0.0000 
     28 C28         1.5197   53.0553   29.0759 C.2       1 UNK         0.0000 
     29 C29         0.7713   52.2260   28.2290 C.2       1 UNK         0.0000 
     30 C30        -0.3683   51.6964   28.8418 C.2       1 UNK         0.0000 
     31 C31        -0.4954   52.0961   30.1616 C.2       1 UNK         0.0000 
     32 S32         0.7859   53.1468   30.6572 S.3       1 UNK         0.0000 
     33 H33         6.8658   56.8295   12.3621 H         1 UNK         0.0000 
     34 H34         4.8372   55.5422   12.9431 H         1 UNK         0.0000 
     35 H35         4.0963   55.4065   15.2971 H         1 UNK         0.0000 
     36 H36         7.4263   57.8665   16.4743 H         1 UNK         0.0000 
     37 H37         8.1583   57.9914   14.1209 H         1 UNK         0.0000 
     38 H38         5.5245   52.8923   18.4650 H         1 UNK         0.0000 
     39 H39         4.2530   53.7097   17.6155 H         1 UNK         0.0000 
     40 H40         3.6964   52.9176   19.9753 H         1 UNK         0.0000 
     41 H41         3.5124   54.6884   19.8233 H         1 UNK         0.0000 
     42 H42         5.9040   53.1484   21.0217 H         1 UNK         0.0000 
     43 H43         5.8247   56.1755   20.7040 H         1 UNK         0.0000 
     44 H44         7.1593   55.1869   21.3839 H         1 UNK         0.0000 
     45 H45         7.4387   54.0455   19.2802 H         1 UNK         0.0000 
     46 H46         7.6759   55.7385   18.9942 H         1 UNK         0.0000 
     47 H47         6.6083   54.3317   23.0672 H         1 UNK         0.0000 
     48 H48         7.6193   54.7805   24.9536 H         1 UNK         0.0000 
     49 H49         7.6005   54.8623   27.4295 H         1 UNK         0.0000 
     50 H50         5.5729   54.4145   28.6674 H         1 UNK         0.0000 
     51 H51         3.4232   53.8550   24.9840 H         1 UNK         0.0000 
     52 H52         2.4055   53.4392   26.8835 H         1 UNK         0.0000 
     53 H53         1.0439   51.9841   27.2117 H         1 UNK         0.0000 
     54 H54        -1.0540   51.0149   28.3552 H         1 UNK         0.0000 
     55 H55        -1.2475   51.7890   30.8787 H         1 UNK         0.0000 
@<TRIPOS>BOND
     1    1    6 ar   
     2    1    2 ar   
     3    1   33 1    
     4    2    3 ar   
     5    2   34 1    
     6    3    4 ar   
     7    3   35 1    
     8    4    5 ar   
     9    4    7 1    
    10    5    6 ar   
    11    5   36 1    
    12    6   37 1    
    13    7    8 2    
    14    7    9 2    
    15    7   10 1    
    16   10   15 1    
    17   10   11 1    
    18   11   12 1    
    19   11   38 1    
    20   11   39 1    
    21   12   13 1    
    22   12   40 1    
    23   12   41 1    
    24   13   14 1    
    25   13   16 1    
    26   13   42 1    
    27   14   15 1    
    28   14   43 1    
    29   14   44 1    
    30   15   45 1    
    31   15   46 1    
    32   16   17 2    
    33   16   18 am   BACKBONE|DICT|INTERRES
    34   18   19 1    
    35   18   47 1    
    36   19   24 ar   
    37   19   20 ar   
    38   20   21 ar   
    39   20   48 1    
    40   21   22 ar   
    41   21   49 1    
    42   22   23 ar   
    43   22   50 1    
    44   23   24 ar   
    45   23   25 1    
    46   24   51 1    
    47   25   26 am   BACKBONE|DICT|INTERRES
    48   25   52 1    
    49   26   27 2    
    50   26   28 1    
    51   28   32 1    
    52   28   29 2    
    53   29   30 1    
    54   29   53 1    
    55   30   31 2    
    56   30   54 1    
    57   31   32 1    
    58   31   55 1    
@<TRIPOS>SUBSTRUCTURE
     1 UNK         1 GROUP             0       ****    0 ROOT    
