@<TRIPOS>MOLECULE
ZINC65074676_152
58   61    1
SMALL
USER_CHARGES


@<TRIPOS>ATOM
      1 C1          6.7148   54.9856   24.5584 C.3       1 UNK         0.0000 
      2 C2          5.9923   54.4844   25.7955 C.ar      1 UNK         0.0000 
      3 C3          6.7048   54.2623   26.9746 C.ar      1 UNK         0.0000 
      4 C4          6.0486   53.7875   28.1047 C.ar      1 UNK         0.0000 
      5 C5          4.6744   53.5369   28.0678 C.ar      1 UNK         0.0000 
      6 C6          3.9626   53.7672   26.8895 C.ar      1 UNK         0.0000 
      7 C7          4.6178   54.2454   25.7569 C.ar      1 UNK         0.0000 
      8 S8          3.8792   52.9559   29.5696 S.o2      1 UNK         0.0000 
      9 O9          3.9042   54.0967   30.4814 O.2       1 UNK         0.0000 
     10 O10         4.5399   51.6969   29.9137 O.2       1 UNK         0.0000 
     11 N11         2.1828   52.5975   29.2230 N.pl3     1 UNK         0.0000 
     12 C12         1.7424   51.2415   28.8821 C.3       1 UNK         0.0000 
     13 C13         1.1093   51.2771   27.4895 C.3       1 UNK         0.0000 
     14 C14        -0.0493   52.3027   27.3549 C.3       1 UNK         0.0000 
     15 C15         0.3608   53.6803   27.9808 C.3       1 UNK         0.0000 
     16 C16         1.1095   53.6040   29.3257 C.3       1 UNK         0.0000 
     17 C17        -0.4342   52.4938   25.8652 C.2       1 UNK         0.0000 
     18 N18        -1.6750   52.3044   25.3900 N.pl3     1 UNK         0.0000 
     19 C19        -2.7468   51.6876   26.1565 C.3       1 UNK         0.0000 
     20 C20        -2.0782   50.8958   27.2763 C.3       1 UNK         0.0000 
     21 N21        -1.2461   51.8013   28.0505 N.3       1 UNK         0.0000 
     22 N22         0.5664   52.8253   25.0322 N.pl3     1 UNK         0.0000 
     23 C23         0.4814   53.1392   23.6040 C.3       1 UNK         0.0000 
     24 C24         1.7241   52.7523   22.8236 C.ar      1 UNK         0.0000 
     25 C25         1.8573   51.4612   22.2999 C.ar      1 UNK         0.0000 
     26 C26         2.9692   51.1254   21.5251 C.ar      1 UNK         0.0000 
     27 C27         3.9620   52.0750   21.2804 C.ar      1 UNK         0.0000 
     28 C28         3.8425   53.3577   21.8124 C.ar      1 UNK         0.0000 
     29 C29         2.7246   53.6972   22.5753 C.ar      1 UNK         0.0000 
     30 F30         4.8041   54.2785   21.5809 F         1 UNK         0.0000 
     31 H31         7.4051   55.7935   24.8081 H         1 UNK         0.0000 
     32 H32         7.2972   54.1789   24.1088 H         1 UNK         0.0000 
     33 H33         6.0165   55.3726   23.8140 H         1 UNK         0.0000 
     34 H34         7.7652   54.4501   27.0266 H         1 UNK         0.0000 
     35 H35         6.6120   53.6217   29.0107 H         1 UNK         0.0000 
     36 H36         2.9115   53.5712   26.8351 H         1 UNK         0.0000 
     37 H37         4.0613   54.4167   24.8507 H         1 UNK         0.0000 
     38 H38         1.0587   50.8968   29.6587 H         1 UNK         0.0000 
     39 H39         2.6017   50.5719   28.8817 H         1 UNK         0.0000 
     40 H40         0.7998   50.2786   27.1757 H         1 UNK         0.0000 
     41 H41         1.8984   51.5841   26.8189 H         1 UNK         0.0000 
     42 H42         0.9980   54.2227   27.2889 H         1 UNK         0.0000 
     43 H43        -0.5161   54.3154   28.0817 H         1 UNK         0.0000 
     44 H44         0.4442   53.3210   30.1430 H         1 UNK         0.0000 
     45 H45         1.5419   54.5695   29.5925 H         1 UNK         0.0000 
     46 H46        -3.3978   52.4721   26.5439 H         1 UNK         0.0000 
     47 H47        -3.3261   51.0373   25.5015 H         1 UNK         0.0000 
     48 H48        -2.8204   50.4411   27.9360 H         1 UNK         0.0000 
     49 H49        -1.4899   50.0610   26.8828 H         1 UNK         0.0000 
     50 H50        -0.9646   51.3540   28.9153 H         1 UNK         0.0000 
     51 H51         1.4882   52.8826   25.4399 H         1 UNK         0.0000 
     52 H52         0.3023   54.2094   23.5341 H         1 UNK         0.0000 
     53 H53        -0.3811   52.6328   23.1734 H         1 UNK         0.0000 
     54 H54         1.0911   50.7178   22.4748 H         1 UNK         0.0000 
     55 H55         3.0609   50.1324   21.1090 H         1 UNK         0.0000 
     56 H56         4.8162   51.8210   20.6711 H         1 UNK         0.0000 
     57 H57         2.6339   54.7049   22.9533 H         1 UNK         0.0000 
     58 H58        -1.8363   52.5076   24.4144 H         1 UNK         0.0000 
@<TRIPOS>BOND
     1    1    2 1    
     2    1   31 1    
     3    1   32 1    
     4    1   33 1    
     5    2    7 ar   
     6    2    3 ar   
     7    3    4 ar   
     8    3   34 1    
     9    4    5 ar   
    10    4   35 1    
    11    5    6 ar   
    12    5    8 1    
    13    6    7 ar   
    14    6   36 1    
    15    7   37 1    
    16    8    9 2    
    17    8   10 2    
    18    8   11 1    
    19   11   16 1    
    20   11   12 1    
    21   12   13 1    
    22   12   38 1    
    23   12   39 1    
    24   13   14 1    
    25   13   40 1    
    26   13   41 1    
    27   14   21 1    
    28   14   15 1    
    29   14   17 1    
    30   15   16 1    
    31   15   42 1    
    32   15   43 1    
    33   16   44 1    
    34   16   45 1    
    35   17   18 2    
    36   17   22 1    
    37   18   19 1    
    38   18   58 1    
    39   19   20 1    
    40   19   46 1    
    41   19   47 1    
    42   20   21 1    
    43   20   48 1    
    44   20   49 1    
    45   21   50 1    
    46   22   23 1    
    47   22   51 1    
    48   23   24 1    
    49   23   52 1    
    50   23   53 1    
    51   24   29 ar   
    52   24   25 ar   
    53   25   26 ar   
    54   25   54 1    
    55   26   27 ar   
    56   26   55 1    
    57   27   28 ar   
    58   27   56 1    
    59   28   29 ar   
    60   28   30 1    
    61   29   57 1    
@<TRIPOS>SUBSTRUCTURE
     1 UNK         1 GROUP             0       ****    0 ROOT    
