@<TRIPOS>MOLECULE
ZINC17958711_3527
55   56    1
SMALL
USER_CHARGES


@<TRIPOS>ATOM
      1 C1          2.3715   53.6755   25.0690 C.3       1 UNK         0.0000 
      2 C2          2.8079   53.6966   26.5308 C.ar      1 UNK         0.0000 
      3 C3          1.8879   53.2985   27.5082 C.ar      1 UNK         0.0000 
      4 C4          2.2415   53.2916   28.8557 C.ar      1 UNK         0.0000 
      5 C5          3.5188   53.6866   29.2392 C.ar      1 UNK         0.0000 
      6 C6          4.4407   54.0955   28.2796 C.ar      1 UNK         0.0000 
      7 C7          4.1047   54.0974   26.9125 C.ar      1 UNK         0.0000 
      8 N8          5.0042   54.4870   25.8941 N.am      1 UNK         0.0000 
      9 C9          6.3434   54.6566   25.9503 C.2       1 UNK         0.0000 
     10 O10         7.0259   54.4966   26.9598 O.2       1 UNK         0.0000 
     11 C11         7.1044   55.0773   24.6822 C.3       1 UNK         0.0000 
     12 N12         6.3045   55.2967   23.4812 N.am      1 UNK         0.0000 
     13 C13         5.9129   54.3279   22.6452 C.2       1 UNK         0.0000 
     14 O14         6.1060   53.1402   22.8817 O.2       1 UNK         0.0000 
     15 C15         5.2113   54.7670   21.3354 C.3       1 UNK         0.0000 
     16 H16         5.1045   55.8476   21.3359 H         1 UNK         0.0000 
     17 C17         3.7854   54.1895   21.1167 C.3       1 UNK         0.0000 
     18 C18         3.4943   52.6858   21.3791 C.3       1 UNK         0.0000 
     19 C19         1.9819   52.3883   21.2978 C.3       1 UNK         0.0000 
     20 C20         4.3077   51.7311   20.4816 C.3       1 UNK         0.0000 
     21 N21         6.0327   54.4967   20.1590 N.am      1 UNK         0.0000 
     22 C22         7.0087   55.2967   19.6905 C.2       1 UNK         0.0000 
     23 O23         7.2842   56.3872   20.2001 O.2       1 UNK         0.0000 
     24 C24         7.8073   54.7472   18.5303 C.ar      1 UNK         0.0000 
     25 C25         7.2888   53.7524   17.6819 C.ar      1 UNK         0.0000 
     26 C26         8.0688   53.2253   16.6565 C.ar      1 UNK         0.0000 
     27 C27         9.3662   53.6917   16.4634 C.ar      1 UNK         0.0000 
     28 C28         9.8875   54.6874   17.2849 C.ar      1 UNK         0.0000 
     29 C29         9.1095   55.2156   18.3113 C.ar      1 UNK         0.0000 
     30 Cl30       10.3346   53.0317   15.1969 Cl        1 UNK         0.0000 
     31 Br31        0.9803   52.7496   30.1739 Br        1 UNK         0.0000 
     32 H32         1.3021   53.4928   24.9573 H         1 UNK         0.0000 
     33 H33         2.5892   54.6273   24.5835 H         1 UNK         0.0000 
     34 H34         2.9148   52.8977   24.5334 H         1 UNK         0.0000 
     35 H35         0.8931   52.9852   27.2263 H         1 UNK         0.0000 
     36 H36         3.8020   53.6778   30.2801 H         1 UNK         0.0000 
     37 H37         5.4082   54.4119   28.6351 H         1 UNK         0.0000 
     38 H38         4.5921   54.5818   24.9795 H         1 UNK         0.0000 
     39 H39         7.8538   54.3102   24.4818 H         1 UNK         0.0000 
     40 H40         7.6330   56.0080   24.8818 H         1 UNK         0.0000 
     41 H41         6.1472   56.2562   23.2153 H         1 UNK         0.0000 
     42 H42         3.1044   54.7800   21.7315 H         1 UNK         0.0000 
     43 H43         3.5044   54.4209   20.0892 H         1 UNK         0.0000 
     44 H44         3.7636   52.4734   22.4111 H         1 UNK         0.0000 
     45 H45         1.7155   51.8230   20.4047 H         1 UNK         0.0000 
     46 H46         1.6546   51.8077   22.1611 H         1 UNK         0.0000 
     47 H47         1.3810   53.2966   21.2823 H         1 UNK         0.0000 
     48 H48         4.7043   52.2284   19.5981 H         1 UNK         0.0000 
     49 H49         5.1465   51.3098   21.0334 H         1 UNK         0.0000 
     50 H50         3.7182   50.8871   20.1223 H         1 UNK         0.0000 
     51 H51         5.8802   53.6028   19.7181 H         1 UNK         0.0000 
     52 H52         6.2869   53.3653   17.8043 H         1 UNK         0.0000 
     53 H53         7.6673   52.4523   16.0172 H         1 UNK         0.0000 
     54 H54        10.8959   55.0445   17.1356 H         1 UNK         0.0000 
     55 H55         9.5401   55.9755   18.9497 H         1 UNK         0.0000 
@<TRIPOS>BOND
     1    1    2 1    
     2    1   32 1    
     3    1   33 1    
     4    1   34 1    
     5    2    7 ar   
     6    2    3 ar   
     7    3    4 ar   
     8    3   35 1    
     9    4    5 ar   
    10    4   31 1    
    11    5    6 ar   
    12    5   36 1    
    13    6    7 ar   
    14    6   37 1    
    15    7    8 1    
    16    8    9 am   BACKBONE|DICT|INTERRES
    17    8   38 1    
    18    9   10 2    
    19    9   11 1    
    20   11   12 1    
    21   11   39 1    
    22   11   40 1    
    23   12   13 am   BACKBONE|DICT|INTERRES
    24   12   41 1    
    25   13   14 2    
    26   13   15 1    
    27   15   16 1    
    28   15   17 1    
    29   15   21 1    
    30   17   18 1    
    31   17   42 1    
    32   17   43 1    
    33   18   19 1    
    34   18   20 1    
    35   18   44 1    
    36   19   45 1    
    37   19   46 1    
    38   19   47 1    
    39   20   48 1    
    40   20   49 1    
    41   20   50 1    
    42   21   22 am   BACKBONE|DICT|INTERRES
    43   21   51 1    
    44   22   23 2    
    45   22   24 1    
    46   24   29 ar   
    47   24   25 ar   
    48   25   26 ar   
    49   25   52 1    
    50   26   27 ar   
    51   26   53 1    
    52   27   28 ar   
    53   27   30 1    
    54   28   29 ar   
    55   28   54 1    
    56   29   55 1    
@<TRIPOS>SUBSTRUCTURE
     1 UNK         1 GROUP             0       ****    0 ROOT    
