ZINC33960462_5608
                    3D
 Schrodinger Suite 2024-2.
 57 60  0  0  1  0            999 V2000
    4.2503   54.5154   29.6820 C   0  0  0  0  0  0
    3.3024   53.6330   28.8621 C   0  0  1  0  0  0
    3.4249   52.1420   29.2695 C   0  0  0  0  0  0
    2.1292   51.5215   28.7120 C   0  0  0  0  0  0
    1.4516   52.7336   28.0205 C   0  0  1  0  0  0
    1.7651   53.9181   28.9871 C   0  0  0  0  0  0
    1.3197   55.3256   28.4817 C   0  0  0  0  0  0
    1.1727   53.7923   30.4272 C   0  0  0  0  0  0
    2.2558   53.1336   26.7416 C   0  0  0  0  0  0
    3.5584   53.6952   27.3318 C   0  0  0  0  0  0
    4.6008   54.1495   26.7565 N   0  0  0  0  0  0
    4.4902   54.0958   25.3524 O   0  0  0  0  0  0
    5.6293   54.4970   24.6922 C   0  0  0  0  0  0
    6.6499   54.9515   25.2287 O   0  0  0  0  0  0
    5.4803   54.3792   23.2032 C   0  0  0  0  0  0
    6.4458   54.9502   22.3638 C   0  0  0  0  0  0
    6.3042   54.8966   20.9781 C   0  0  0  0  0  0
    5.2201   54.2303   20.4099 C   0  0  0  0  0  0
    4.2507   53.6238   21.2211 C   0  0  0  0  0  0
    4.3867   53.7209   22.6141 C   0  0  0  0  0  0
    3.1054   52.8963   20.6214 N   0  3  0  0  0  0
    3.0559   52.7913   19.4003 O   0  0  0  0  0  0
    2.2552   52.4227   21.3722 O   0  5  0  0  0  0
   -0.0448   52.3854   27.7766 C   0  0  0  0  0  0
   -0.8071   52.2705   28.7340 O   0  0  0  0  0  0
   -0.4182   52.1868   26.4964 N   0  0  0  0  0  0
   -1.6812   51.8691   25.9678 C   0  0  0  0  0  0
   -2.7096   51.2710   26.7154 C   0  0  0  0  0  0
   -3.9449   51.0044   26.1253 C   0  0  0  0  0  0
   -4.1604   51.3150   24.7838 C   0  0  0  0  0  0
   -3.1381   51.8879   24.0297 C   0  0  0  0  0  0
   -1.9039   52.1698   24.6144 C   0  0  0  0  0  0
   -0.6753   52.8967   23.6320 Cl  0  0  0  0  0  0
   -5.2081   50.2875   27.0565 Cl  0  0  0  0  0  0
    4.2330   54.2566   30.7382 H   0  0  0  0  0  0
    5.2875   54.4177   29.3577 H   0  0  0  0  0  0
    3.9839   55.5669   29.5856 H   0  0  0  0  0  0
    4.3372   51.6894   28.8819 H   0  0  0  0  0  0
    3.4664   52.0226   30.3529 H   0  0  0  0  0  0
    1.5230   51.1096   29.5208 H   0  0  0  0  0  0
    2.3044   50.7021   28.0169 H   0  0  0  0  0  0
    1.3443   56.0818   29.2676 H   0  0  0  0  0  0
    1.9446   55.7201   27.6826 H   0  0  0  0  0  0
    0.3052   55.2924   28.0833 H   0  0  0  0  0  0
    1.5042   54.6201   31.0477 H   0  0  0  0  0  0
    0.0856   53.8577   30.4225 H   0  0  0  0  0  0
    1.4303   52.8730   30.9497 H   0  0  0  0  0  0
    2.4411   52.2997   26.0687 H   0  0  0  0  0  0
    1.7540   53.9073   26.1587 H   0  0  0  0  0  0
    7.3014   55.4662   22.7770 H   0  0  0  0  0  0
    7.0468   55.3539   20.3405 H   0  0  0  0  0  0
    5.1406   54.1824   19.3320 H   0  0  0  0  0  0
    3.6201   53.2845   23.2381 H   0  0  0  0  0  0
    0.2886   52.3546   25.7971 H   0  0  0  0  0  0
   -2.5655   50.9856   27.7465 H   0  0  0  0  0  0
   -5.1167   51.1038   24.3274 H   0  0  0  0  0  0
   -3.2952   52.1136   22.9875 H   0  0  0  0  0  0
  1  2  1  0  0  0
  1 35  1  0  0  0
  1 36  1  0  0  0
  1 37  1  0  0  0
  2  6  1  0  0  0
  2 10  1  0  0  0
  2  3  1  0  0  0
  3  4  1  0  0  0
  3 38  1  0  0  0
  3 39  1  0  0  0
  4  5  1  0  0  0
  4 40  1  0  0  0
  4 41  1  0  0  0
  5  6  1  0  0  0
  5  9  1  0  0  0
  5 24  1  0  0  0
  6  7  1  0  0  0
  6  8  1  0  0  0
  7 42  1  0  0  0
  7 43  1  0  0  0
  7 44  1  0  0  0
  8 45  1  0  0  0
  8 46  1  0  0  0
  8 47  1  0  0  0
  9 10  1  0  0  0
  9 48  1  0  0  0
  9 49  1  0  0  0
 10 11  2  0  0  0
 11 12  1  0  0  0
 12 13  1  0  0  0
 13 14  2  0  0  0
 13 15  1  0  0  0
 15 20  2  0  0  0
 15 16  1  0  0  0
 16 17  2  0  0  0
 16 50  1  0  0  0
 17 18  1  0  0  0
 17 51  1  0  0  0
 18 19  2  0  0  0
 18 52  1  0  0  0
 19 20  1  0  0  0
 19 21  1  0  0  0
 20 53  1  0  0  0
 21 22  2  0  0  0
 21 23  1  0  0  0
 24 25  2  0  0  0
 24 26  1  0  0  0
 26 27  1  0  0  0
 26 54  1  0  0  0
 27 32  2  0  0  0
 27 28  1  0  0  0
 28 29  2  0  0  0
 28 55  1  0  0  0
 29 30  1  0  0  0
 29 34  1  0  0  0
 30 31  2  0  0  0
 30 56  1  0  0  0
 31 32  1  0  0  0
 31 57  1  0  0  0
 32 33  1  0  0  0
M  CHG  2  21   1  23  -1
M  END
> <i_i_glide_confnum>
53

> <i_i_glide_lignum>
5609

> <i_i_glide_posenum>
149

> <i_i_glide_rotatable_bonds>
7

> <i_m_Source_File_Index>
6007

> <b_m_subgroup_collapsed>
0

> <r_i_docking_score>
-5.15279

> <r_i_glide_ecoul>
-0.0437448

> <r_i_glide_eff_state_penalty>
0

> <r_i_glide_einternal>
0.891191

> <r_i_glide_emodel>
-61.8056

> <r_i_glide_energy>
-46.956

> <r_i_glide_erotb>
0.482256

> <r_i_glide_esite>
-0.0390325

> <r_i_glide_evdw>
-46.9122

> <r_i_glide_gscore>
-5.15279

> <r_i_glide_hbond>
-0.0775714

> <r_i_glide_ligand_efficiency>
-0.151553

> <r_i_glide_ligand_efficiency_ln>
-1.1384

> <r_i_glide_ligand_efficiency_sa>
-0.490972

> <r_i_glide_lipo>
-2.49311

> <r_i_glide_metal>
0

> <r_i_glide_rewards>
-0.67316

> <s_i_glide_gridfile>
wee1_glide-grid

> <s_m_Source_File>
wee1_decoys_glide_SP.sdf

> <s_m_Source_Path>
/Users/zhangxujun/Desktop

> <s_m_entry_id>
6282

> <s_m_entry_name>
wee1_decoys_glide_SP.6007

> <s_m_subgroup_title>
wee1_decoys_glide_SP

> <s_m_subgroupid>
wee1_decoys_glide_SP


$$$$
