ZINC03764216_5732
                    3D
 Schrodinger Suite 2024-2.
 67 71  0  0  1  0            999 V2000
    2.0906   41.6279   16.5945 C   0  0  0  0  0  0
    1.5934   41.9399   17.9955 C   0  0  0  0  0  0
    2.2369   41.3907   19.1068 C   0  0  0  0  0  0
    1.7944   41.7005   20.3922 C   0  0  0  0  0  0
    0.7134   42.5589   20.5739 C   0  0  0  0  0  0
    0.0533   43.1180   19.4659 C   0  0  0  0  0  0
    0.5084   42.8027   18.1790 C   0  0  0  0  0  0
   -1.0357   44.0078   19.5483 N   0  0  0  0  0  0
   -1.8520   44.2583   20.5926 C   0  0  0  0  0  0
   -1.7683   43.6957   21.6820 O   0  0  0  0  0  0
   -2.9686   45.2850   20.3390 C   0  0  0  0  0  0
   -4.0867   45.5836   21.7595 S   0  0  0  0  0  0
   -3.5179   47.1976   22.1777 C   0  0  0  0  0  0
   -3.8369   48.2681   21.4968 N   0  0  0  0  0  0
   -3.1486   49.3344   22.0571 N   0  0  0  0  0  0
   -2.4384   48.8731   23.0598 C   0  0  0  0  0  0
   -2.6478   47.5123   23.2028 N   0  0  0  0  0  0
   -2.0665   46.5850   24.1695 C   0  0  0  0  0  0
   -3.0714   46.1276   25.2156 C   0  0  0  0  0  0
   -2.8335   46.0968   26.5330 C   0  0  0  0  0  0
   -1.5073   49.7346   23.8525 C   0  0  0  0  0  0
   -0.7343   50.6600   23.1433 C   0  0  0  0  0  0
    0.1477   51.4985   23.8068 C   0  0  0  0  0  0
    0.2666   51.4332   25.2046 C   0  0  0  0  0  0
   -0.4978   50.5022   25.9154 C   0  0  0  0  0  0
   -1.3881   49.6634   25.2458 C   0  0  0  0  0  0
    1.1823   52.2125   25.9400 N   0  0  0  0  0  0
    1.8793   53.2971   25.5202 C   0  0  0  0  0  0
    1.6187   53.9437   24.5043 O   0  0  0  0  0  0
    3.0211   53.6411   26.3404 C   0  0  0  0  0  0
    3.0493   53.5796   27.7362 C   0  0  0  0  0  0
    4.5626   54.0828   28.4079 S   0  0  0  0  0  0
    5.1679   54.4549   26.8282 C   0  0  0  0  0  0
    4.2235   54.1894   25.8238 C   0  0  0  0  0  0
    4.5444   54.4078   24.3409 C   0  0  0  0  0  0
    6.0611   54.5857   24.1192 C   0  0  0  0  0  0
    6.6837   55.5321   25.1560 C   0  0  0  0  0  0
    6.5881   54.9499   26.5824 C   0  0  0  0  0  0
    3.1648   41.4360   16.5962 H   0  0  0  0  0  0
    1.9291   42.4751   15.9272 H   0  0  0  0  0  0
    1.5784   40.7572   16.1842 H   0  0  0  0  0  0
    3.0858   40.7341   18.9782 H   0  0  0  0  0  0
    2.3084   41.2968   21.2493 H   0  0  0  0  0  0
    0.4357   42.8145   21.5863 H   0  0  0  0  0  0
    0.0231   43.2305   17.3142 H   0  0  0  0  0  0
   -1.2451   44.4960   18.6907 H   0  0  0  0  0  0
   -2.5288   46.2207   19.9965 H   0  0  0  0  0  0
   -3.5858   44.9141   19.5227 H   0  0  0  0  0  0
   -1.6952   45.7227   23.6149 H   0  0  0  0  0  0
   -1.1936   47.0394   24.6406 H   0  0  0  0  0  0
   -4.0373   45.8088   24.8472 H   0  0  0  0  0  0
   -3.5827   45.7576   27.2330 H   0  0  0  0  0  0
   -1.8844   46.4132   26.9458 H   0  0  0  0  0  0
   -0.8076   50.7238   22.0679 H   0  0  0  0  0  0
    0.7401   52.1715   23.2114 H   0  0  0  0  0  0
   -0.4129   50.4160   26.9901 H   0  0  0  0  0  0
   -1.9757   48.9622   25.8205 H   0  0  0  0  0  0
    1.4190   51.8450   26.8499 H   0  0  0  0  0  0
    2.2624   53.2502   28.4012 H   0  0  0  0  0  0
    4.1812   53.5831   23.7286 H   0  0  0  0  0  0
    4.0058   55.2920   24.0010 H   0  0  0  0  0  0
    6.2399   54.9626   23.1107 H   0  0  0  0  0  0
    6.5567   53.6156   24.1692 H   0  0  0  0  0  0
    6.1744   56.4965   25.1134 H   0  0  0  0  0  0
    7.7191   55.7324   24.8842 H   0  0  0  0  0  0
    6.8744   55.6968   27.3189 H   0  0  0  0  0  0
    7.2862   54.1188   26.6867 H   0  0  0  0  0  0
  1  2  1  0  0  0
  1 39  1  0  0  0
  1 40  1  0  0  0
  1 41  1  0  0  0
  2  7  2  0  0  0
  2  3  1  0  0  0
  3  4  2  0  0  0
  3 42  1  0  0  0
  4  5  1  0  0  0
  4 43  1  0  0  0
  5  6  2  0  0  0
  5 44  1  0  0  0
  6  7  1  0  0  0
  6  8  1  0  0  0
  7 45  1  0  0  0
  8  9  1  0  0  0
  8 46  1  0  0  0
  9 10  2  0  0  0
  9 11  1  0  0  0
 11 12  1  0  0  0
 11 47  1  0  0  0
 11 48  1  0  0  0
 12 13  1  0  0  0
 13 17  1  0  0  0
 13 14  2  0  0  0
 14 15  1  0  0  0
 15 16  2  0  0  0
 16 17  1  0  0  0
 16 21  1  0  0  0
 17 18  1  0  0  0
 18 19  1  0  0  0
 18 49  1  0  0  0
 18 50  1  0  0  0
 19 20  2  0  0  0
 19 51  1  0  0  0
 20 52  1  0  0  0
 20 53  1  0  0  0
 21 26  2  0  0  0
 21 22  1  0  0  0
 22 23  2  0  0  0
 22 54  1  0  0  0
 23 24  1  0  0  0
 23 55  1  0  0  0
 24 25  2  0  0  0
 24 27  1  0  0  0
 25 26  1  0  0  0
 25 56  1  0  0  0
 26 57  1  0  0  0
 27 28  1  0  0  0
 27 58  1  0  0  0
 28 29  2  0  0  0
 28 30  1  0  0  0
 30 34  1  0  0  0
 30 31  2  0  0  0
 31 32  1  0  0  0
 31 59  1  0  0  0
 32 33  1  0  0  0
 33 38  1  0  0  0
 33 34  2  0  0  0
 34 35  1  0  0  0
 35 36  1  0  0  0
 35 60  1  0  0  0
 35 61  1  0  0  0
 36 37  1  0  0  0
 36 62  1  0  0  0
 36 63  1  0  0  0
 37 38  1  0  0  0
 37 64  1  0  0  0
 37 65  1  0  0  0
 38 66  1  0  0  0
 38 67  1  0  0  0
M  END
> <i_i_glide_confnum>
346

> <i_i_glide_lignum>
5733

> <i_i_glide_posenum>
281

> <i_i_glide_rotatable_bonds>
11

> <i_m_Source_File_Index>
4687

> <b_m_subgroup_collapsed>
0

> <r_i_docking_score>
-5.35598

> <r_i_glide_ecoul>
-4.99169

> <r_i_glide_eff_state_penalty>
0

> <r_i_glide_einternal>
10.9118

> <r_i_glide_emodel>
-66.7786

> <r_i_glide_energy>
-53.0825

> <r_i_glide_erotb>
0.770032

> <r_i_glide_esite>
-0.0706776

> <r_i_glide_evdw>
-48.0908

> <r_i_glide_gscore>
-5.35598

> <r_i_glide_hbond>
-0.188552

> <r_i_glide_ligand_efficiency>
-0.140947

> <r_i_glide_ligand_efficiency_ln>
-1.15491

> <r_i_glide_ligand_efficiency_sa>
-0.47386

> <r_i_glide_lipo>
-2.50631

> <r_i_glide_metal>
0

> <r_i_glide_rewards>
-0.20718

> <s_i_glide_gridfile>
wee1_glide-grid

> <s_m_Source_File>
wee1_decoys_glide_SP.sdf

> <s_m_Source_Path>
/Users/zhangxujun/Desktop

> <s_m_entry_id>
4962

> <s_m_entry_name>
wee1_decoys_glide_SP.4687

> <s_m_subgroup_title>
wee1_decoys_glide_SP

> <s_m_subgroupid>
wee1_decoys_glide_SP


$$$$
