ZINC12932265_6097
                    3D
 Schrodinger Suite 2024-2.
 49 52  0  0  1  0            999 V2000
    2.0958   53.4896   29.7025 C   0  0  0  0  0  0
    1.9944   54.4190   28.6694 C   0  0  0  0  0  0
    3.0610   54.5815   27.7892 C   0  0  0  0  0  0
    4.2185   53.8111   27.9220 C   0  0  0  0  0  0
    4.3124   52.8985   28.9720 C   0  0  0  0  0  0
    3.2547   52.7341   29.8639 C   0  0  0  0  0  0
    5.3224   53.9718   27.1082 O   0  0  0  0  0  0
    5.2672   54.1624   25.7376 C   0  0  0  0  0  0
    6.4697   54.5012   25.1160 C   0  0  0  0  0  0
    6.5466   54.6350   23.7313 C   0  0  0  0  0  0
    5.4032   54.4299   22.9481 C   0  0  0  0  0  0
    4.1956   54.0962   23.5607 C   0  0  0  0  0  0
    4.1256   53.9671   24.9467 C   0  0  0  0  0  0
    5.4146   54.4911   21.5448 N   0  0  0  0  0  0
    6.1615   55.2968   20.7586 C   0  0  0  0  0  0
    6.9184   56.1758   21.1756 O   0  0  0  0  0  0
    5.9999   55.0567   19.2782 C   0  0  0  0  0  0
    4.7127   55.0002   18.7171 C   0  0  0  0  0  0
    4.5350   54.7392   17.3567 C   0  0  0  0  0  0
    5.6452   54.5200   16.5413 C   0  0  0  0  0  0
    6.9263   54.5731   17.0849 C   0  0  0  0  0  0
    7.1137   54.8416   18.4412 C   0  0  0  0  0  0
    8.9144   54.8973   19.0796 Br  0  0  0  0  0  0
    2.8840   54.7123   16.6648 S   0  0  0  0  0  0
    2.9708   54.1388   15.3165 O   0  0  0  0  0  0
    2.3231   56.0490   16.8822 O   0  0  0  0  0  0
    1.9841   53.6002   17.6822 N   0  0  0  0  0  0
    2.3100   52.1632   17.6566 C   0  0  0  0  0  0
    1.1606   51.2136   17.9050 C   0  0  0  0  0  0
    1.7161   51.3655   16.5152 C   0  0  0  0  0  0
    1.2678   53.3586   30.3854 H   0  0  0  0  0  0
    1.0985   55.0097   28.5522 H   0  0  0  0  0  0
    2.9952   55.3010   26.9927 H   0  0  0  0  0  0
    5.2126   52.3160   29.0889 H   0  0  0  0  0  0
    3.3339   52.0299   30.6783 H   0  0  0  0  0  0
    7.3568   54.6261   25.7154 H   0  0  0  0  0  0
    7.5005   54.8689   23.2801 H   0  0  0  0  0  0
    3.3088   53.9190   22.9675 H   0  0  0  0  0  0
    3.1902   53.6571   25.3856 H   0  0  0  0  0  0
    4.7625   53.8809   21.0762 H   0  0  0  0  0  0
    3.8365   55.1691   19.3295 H   0  0  0  0  0  0
    5.5200   54.3139   15.4880 H   0  0  0  0  0  0
    7.7814   54.4018   16.4476 H   0  0  0  0  0  0
    1.6750   53.9851   18.5821 H   0  0  0  0  0  0
    3.3096   51.8912   18.0061 H   0  0  0  0  0  0
    0.1781   51.6251   18.1348 H   0  0  0  0  0  0
    1.3663   50.2960   18.4582 H   0  0  0  0  0  0
    2.3050   50.5513   16.0921 H   0  0  0  0  0  0
    1.1379   51.8944   15.7569 H   0  0  0  0  0  0
  1  6  2  0  0  0
  1  2  1  0  0  0
  1 31  1  0  0  0
  2  3  2  0  0  0
  2 32  1  0  0  0
  3  4  1  0  0  0
  3 33  1  0  0  0
  4  5  2  0  0  0
  4  7  1  0  0  0
  5  6  1  0  0  0
  5 34  1  0  0  0
  6 35  1  0  0  0
  7  8  1  0  0  0
  8 13  2  0  0  0
  8  9  1  0  0  0
  9 10  2  0  0  0
  9 36  1  0  0  0
 10 11  1  0  0  0
 10 37  1  0  0  0
 11 12  2  0  0  0
 11 14  1  0  0  0
 12 13  1  0  0  0
 12 38  1  0  0  0
 13 39  1  0  0  0
 14 15  1  0  0  0
 14 40  1  0  0  0
 15 16  2  0  0  0
 15 17  1  0  0  0
 17 22  2  0  0  0
 17 18  1  0  0  0
 18 19  2  0  0  0
 18 41  1  0  0  0
 19 20  1  0  0  0
 19 24  1  0  0  0
 20 21  2  0  0  0
 20 42  1  0  0  0
 21 22  1  0  0  0
 21 43  1  0  0  0
 22 23  1  0  0  0
 24 25  2  0  0  0
 24 26  2  0  0  0
 24 27  1  0  0  0
 27 28  1  0  0  0
 27 44  1  0  0  0
 28 30  1  0  0  0
 28 29  1  0  0  0
 28 45  1  0  0  0
 29 30  1  0  0  0
 29 46  1  0  0  0
 29 47  1  0  0  0
 30 48  1  0  0  0
 30 49  1  0  0  0
M  END
> <i_i_glide_confnum>
97

> <i_i_glide_lignum>
6098

> <i_i_glide_posenum>
343

> <i_i_glide_rotatable_bonds>
8

> <i_m_Source_File_Index>
5491

> <b_m_subgroup_collapsed>
0

> <r_i_docking_score>
-4.83714

> <r_i_glide_ecoul>
-3.92916

> <r_i_glide_eff_state_penalty>
0

> <r_i_glide_einternal>
5.1812

> <r_i_glide_emodel>
-54.956

> <r_i_glide_energy>
-45.0732

> <r_i_glide_erotb>
0.684684

> <r_i_glide_esite>
-0.0177623

> <r_i_glide_evdw>
-41.1441

> <r_i_glide_gscore>
-4.83714

> <r_i_glide_hbond>
-0.400796

> <r_i_glide_ligand_efficiency>
-0.161238

> <r_i_glide_ligand_efficiency_ln>
-1.09905

> <r_i_glide_ligand_efficiency_sa>
-0.501004

> <r_i_glide_lipo>
-3.05089

> <r_i_glide_metal>
0

> <r_i_glide_rewards>
0.594199

> <s_i_glide_gridfile>
wee1_glide-grid

> <s_m_Source_File>
wee1_decoys_glide_SP.sdf

> <s_m_Source_Path>
/Users/zhangxujun/Desktop

> <s_m_entry_id>
5766

> <s_m_entry_name>
wee1_decoys_glide_SP.5491

> <s_m_subgroup_title>
wee1_decoys_glide_SP

> <s_m_subgroupid>
wee1_decoys_glide_SP


$$$$
