@<TRIPOS>MOLECULE
ZINC61093323_4811
29   30    1
SMALL
USER_CHARGES


@<TRIPOS>ATOM
      1 C1          1.0204   52.4955   22.8471 C.ar      1 UNK         0.0000 
      2 C2          0.0082   52.4404   23.8039 C.ar      1 UNK         0.0000 
      3 C3         -0.2570   51.2461   24.4853 C.ar      1 UNK         0.0000 
      4 C4          0.5017   50.1010   24.1955 C.ar      1 UNK         0.0000 
      5 C5          1.5050   50.1649   23.2275 C.ar      1 UNK         0.0000 
      6 C6          1.7676   51.3573   22.5589 C.ar      1 UNK         0.0000 
      7 F7          2.7552   51.4112   21.6382 F         1 UNK         0.0000 
      8 N8          0.3043   48.8940   24.8635 N.pl3     1 UNK         0.0000 
      9 S9         -1.5421   51.2381   25.7406 S.o2      1 UNK         0.0000 
     10 O10        -2.4091   50.0892   25.4617 O.2       1 UNK         0.0000 
     11 O11        -2.0963   52.5930   25.8413 O.2       1 UNK         0.0000 
     12 N12        -0.7198   50.8967   27.2678 N.pl3     1 UNK         0.0000 
     13 C13        -0.0262   51.8761   27.9877 C.ar      1 UNK         0.0000 
     14 C14         0.9528   52.6578   27.3652 C.ar      1 UNK         0.0000 
     15 C15         1.6055   53.6654   28.0715 C.ar      1 UNK         0.0000 
     16 C16         1.2842   53.8992   29.4078 C.ar      1 UNK         0.0000 
     17 C17         0.3227   53.1117   30.0435 C.ar      1 UNK         0.0000 
     18 C18        -0.3321   52.1025   29.3351 C.ar      1 UNK         0.0000 
     19 F19        -1.2738   51.3597   29.9595 F         1 UNK         0.0000 
     20 F20         1.9059   54.8914   30.0817 F         1 UNK         0.0000 
     21 F21         2.5477   54.4161   27.4564 F         1 UNK         0.0000 
     22 H22         1.2336   53.4177   22.3274 H         1 UNK         0.0000 
     23 H23        -0.5594   53.3335   24.0222 H         1 UNK         0.0000 
     24 H24         2.0975   49.2967   22.9856 H         1 UNK         0.0000 
     25 H25         1.0256   48.1856   24.8149 H         1 UNK         0.0000 
     26 H26        -0.4068   48.8395   25.5824 H         1 UNK         0.0000 
     27 H27        -0.8955   49.9861   27.6915 H         1 UNK         0.0000 
     28 H28         1.2190   52.4914   26.3337 H         1 UNK         0.0000 
     29 H29         0.0751   53.2808   31.0821 H         1 UNK         0.0000 
@<TRIPOS>BOND
     1    1    6 ar   
     2    1    2 ar   
     3    1   22 1    
     4    2    3 ar   
     5    2   23 1    
     6    3    4 ar   
     7    3    9 1    
     8    4    5 ar   
     9    4    8 1    
    10    5    6 ar   
    11    5   24 1    
    12    6    7 1    
    13    8   25 1    
    14    8   26 1    
    15    9   10 2    
    16    9   11 2    
    17    9   12 1    
    18   12   13 1    
    19   12   27 1    
    20   13   18 ar   
    21   13   14 ar   
    22   14   15 ar   
    23   14   28 1    
    24   15   16 ar   
    25   15   21 1    
    26   16   17 ar   
    27   16   20 1    
    28   17   18 ar   
    29   17   29 1    
    30   18   19 1    
@<TRIPOS>SUBSTRUCTURE
     1 UNK         1 GROUP             0       ****    0 ROOT    
