@<TRIPOS>MOLECULE
ZINC02428098_2796
59   64    1
SMALL
USER_CHARGES


@<TRIPOS>ATOM
      1 C1         -5.5803   50.8370   31.1851 C.3       1 UNK         0.0000 
      2 C2         -5.3078   50.9917   29.7005 C.ar      1 UNK         0.0000 
      3 C3         -6.2529   51.5925   28.8678 C.ar      1 UNK         0.0000 
      4 C4         -5.9950   51.7221   27.5032 C.ar      1 UNK         0.0000 
      5 C5         -4.7927   51.2594   26.9597 C.ar      1 UNK         0.0000 
      6 C6         -3.8423   50.6812   27.8124 C.ar      1 UNK         0.0000 
      7 C7         -4.0984   50.5440   29.1725 C.ar      1 UNK         0.0000 
      8 C8         -4.5860   51.3838   25.4420 C.3       1 UNK         0.0000 
      9 N9         -3.2364   51.1176   24.9140 N.am      1 UNK         0.0000 
     10 C10        -2.5912   49.8798   24.8894 C.ar      1 UNK         0.0000 
     11 C11        -3.0554   48.6307   25.3103 C.ar      1 UNK         0.0000 
     12 C12        -2.1922   47.5355   25.2666 C.ar      1 UNK         0.0000 
     13 C13        -0.8940   47.6893   24.7767 C.ar      1 UNK         0.0000 
     14 C14        -0.4481   48.9319   24.3290 C.ar      1 UNK         0.0000 
     15 C15        -1.3110   50.0274   24.3878 C.ar      1 UNK         0.0000 
     16 C16        -1.1032   51.4660   24.0331 C.3       1 UNK         0.0000 
     17 C17        -2.4579   52.1109   24.4062 C.2       1 UNK         0.0000 
     18 O18        -2.7587   53.2960   24.2406 O.2       1 UNK         0.0000 
     19 C19         0.0477   52.0733   24.8530 C.ar      1 UNK         0.0000 
     20 C20         0.3767   52.1460   26.2169 C.ar      1 UNK         0.0000 
     21 N21         1.5158   52.7810   26.4081 N.2       1 UNK         0.0000 
     22 N22         2.0235   53.0918   25.1952 N.pl3     1 UNK         0.0000 
     23 C23         1.1283   52.6728   24.2342 C.ar      1 UNK         0.0000 
     24 O24         1.3343   52.8112   22.8843 O.3       1 UNK         0.0000 
     25 C25         0.3541   52.2788   22.1051 C.2       1 UNK         0.0000 
     26 C26        -0.7948   51.6922   22.5315 C.2       1 UNK         0.0000 
     27 C27        -1.7400   51.2552   21.5511 C.1       1 UNK         0.0000 
     28 N28        -2.5082   50.9516   20.7412 N.1       1 UNK         0.0000 
     29 N29         0.7158   52.4944   20.8034 N.pl3     1 UNK         0.0000 
     30 C30         3.3116   53.7061   25.0790 C.ar      1 UNK         0.0000 
     31 C31         3.9172   53.9079   23.8265 C.ar      1 UNK         0.0000 
     32 C32         5.1958   54.4530   23.7366 C.ar      1 UNK         0.0000 
     33 C33         5.8799   54.8212   24.8907 C.ar      1 UNK         0.0000 
     34 C34         5.2920   54.6494   26.1393 C.ar      1 UNK         0.0000 
     35 C35         4.0164   54.0971   26.2332 C.ar      1 UNK         0.0000 
     36 C36        -0.3787   51.6070   27.4094 C.3       1 UNK         0.0000 
     37 H37        -4.6534   50.8965   31.7578 H         1 UNK         0.0000 
     38 H38        -6.2330   51.6268   31.5570 H         1 UNK         0.0000 
     39 H39        -6.0435   49.8711   31.3880 H         1 UNK         0.0000 
     40 H40        -7.1908   51.9440   29.2702 H         1 UNK         0.0000 
     41 H41        -6.7414   52.1717   26.8654 H         1 UNK         0.0000 
     42 H42        -2.9032   50.3010   27.4460 H         1 UNK         0.0000 
     43 H43        -3.3548   50.0795   29.8074 H         1 UNK         0.0000 
     44 H44        -4.9158   52.3812   25.1458 H         1 UNK         0.0000 
     45 H45        -5.2679   50.6795   24.9645 H         1 UNK         0.0000 
     46 H46        -4.0487   48.5054   25.7153 H         1 UNK         0.0000 
     47 H47        -2.5220   46.5759   25.6376 H         1 UNK         0.0000 
     48 H48        -0.2142   46.8528   24.7751 H         1 UNK         0.0000 
     49 H49         0.5659   49.0398   23.9711 H         1 UNK         0.0000 
     50 H50         0.2270   52.0377   20.0473 H         1 UNK         0.0000 
     51 H51         1.3248   53.2652   20.5610 H         1 UNK         0.0000 
     52 H52         3.4392   53.6317   22.9002 H         1 UNK         0.0000 
     53 H53         5.6581   54.5855   22.7692 H         1 UNK         0.0000 
     54 H54         6.8722   55.2414   24.8094 H         1 UNK         0.0000 
     55 H55         5.8250   54.9343   27.0354 H         1 UNK         0.0000 
     56 H56         3.5962   53.9644   27.2200 H         1 UNK         0.0000 
     57 H57        -1.2960   52.1681   27.5851 H         1 UNK         0.0000 
     58 H58        -0.6562   50.5640   27.2572 H         1 UNK         0.0000 
     59 H59         0.2002   51.6389   28.3321 H         1 UNK         0.0000 
@<TRIPOS>BOND
     1    1    2 1    
     2    1   37 1    
     3    1   38 1    
     4    1   39 1    
     5    2    7 ar   
     6    2    3 ar   
     7    3    4 ar   
     8    3   40 1    
     9    4    5 ar   
    10    4   41 1    
    11    5    6 ar   
    12    5    8 1    
    13    6    7 ar   
    14    6   42 1    
    15    7   43 1    
    16    8    9 1    
    17    8   44 1    
    18    8   45 1    
    19    9   17 am   BACKBONE|DICT|INTERRES
    20    9   10 1    
    21   10   15 ar   
    22   10   11 ar   
    23   11   12 ar   
    24   11   46 1    
    25   12   13 ar   
    26   12   47 1    
    27   13   14 ar   
    28   13   48 1    
    29   14   15 ar   
    30   14   49 1    
    31   15   16 1    
    32   16   26 1    
    33   16   17 1    
    34   16   19 1    
    35   17   18 2    
    36   19   23 ar   
    37   19   20 ar   
    38   20   21 ar   
    39   20   36 1    
    40   21   22 ar   
    41   22   23 ar   
    42   22   30 1    
    43   23   24 1    
    44   24   25 1    
    45   25   26 2    
    46   25   29 1    
    47   26   27 1    
    48   27   28 3    
    49   29   50 1    
    50   29   51 1    
    51   30   35 ar   
    52   30   31 ar   
    53   31   32 ar   
    54   31   52 1    
    55   32   33 ar   
    56   32   53 1    
    57   33   34 ar   
    58   33   54 1    
    59   34   35 ar   
    60   34   55 1    
    61   35   56 1    
    62   36   57 1    
    63   36   58 1    
    64   36   59 1    
@<TRIPOS>SUBSTRUCTURE
     1 UNK         1 GROUP             0       ****    0 ROOT    
