@<TRIPOS>MOLECULE
ZINC62824802_2634
32   33    1
SMALL
USER_CHARGES


@<TRIPOS>ATOM
      1 C1          1.5032   56.0609   29.9667 C.3       1 UNK         0.0000 
      2 C2          1.6352   54.7140   29.2850 C.2       1 UNK         0.0000 
      3 C3          2.8158   54.0132   29.0107 C.2       1 UNK         0.0000 
      4 S4          2.3664   52.5354   28.2066 S.3       1 UNK         0.0000 
      5 C5          0.6956   53.0206   28.2654 C.2       1 UNK         0.0000 
      6 N6          0.5051   54.1478   28.8914 N.2       1 UNK         0.0000 
      7 N7         -0.3619   52.3463   27.6559 N.am      1 UNK         0.0000 
      8 C8         -0.2852   51.2172   26.9225 C.2       1 UNK         0.0000 
      9 O9          0.7045   50.4962   26.8771 O.2       1 UNK         0.0000 
     10 N10        -1.4128   51.0046   26.2154 N.am      1 UNK         0.0000 
     11 C11        -1.7547   49.9497   25.3304 C.ar      1 UNK         0.0000 
     12 C12        -1.0197   48.7479   25.2970 C.ar      1 UNK         0.0000 
     13 C13        -1.3642   47.7099   24.4432 C.ar      1 UNK         0.0000 
     14 C14        -2.4555   47.8419   23.6001 C.ar      1 UNK         0.0000 
     15 C15        -3.2026   49.0168   23.6159 C.ar      1 UNK         0.0000 
     16 C16        -2.8823   50.0916   24.4715 C.ar      1 UNK         0.0000 
     17 C17        -3.7553   51.3290   24.4265 C.2       1 UNK         0.0000 
     18 O18        -4.7613   51.3019   23.6817 O.co2     1 UNK         0.0000 
     19 O19        -3.4453   52.3287   25.1180 O.co2     1 UNK         0.0000 
     20 I20        -2.9717   46.2613   22.3315 I         1 UNK         0.0000 
     21 C21         4.2588   54.3613   29.2859 C.3       1 UNK         0.0000 
     22 H22         2.4238   56.6412   29.9081 H         1 UNK         0.0000 
     23 H23         0.7221   56.6801   29.5212 H         1 UNK         0.0000 
     24 H24         1.2571   55.9555   31.0241 H         1 UNK         0.0000 
     25 H25        -1.2522   52.8181   27.6773 H         1 UNK         0.0000 
     26 H26        -2.1053   51.7471   26.2018 H         1 UNK         0.0000 
     27 H27        -0.1903   48.5614   25.9606 H         1 UNK         0.0000 
     28 H28        -0.7875   46.7985   24.4536 H         1 UNK         0.0000 
     29 H29        -4.0501   49.0815   22.9477 H         1 UNK         0.0000 
     30 H30         4.4405   54.4966   30.3513 H         1 UNK         0.0000 
     31 H31         4.9460   53.5881   28.9408 H         1 UNK         0.0000 
     32 H32         4.5478   55.2862   28.7888 H         1 UNK         0.0000 
@<TRIPOS>BOND
     1    1    2 1    
     2    1   22 1    
     3    1   23 1    
     4    1   24 1    
     5    2    6 1    
     6    2    3 2    
     7    3    4 1    
     8    3   21 1    
     9    4    5 1    
    10    5    6 2    
    11    5    7 am   BACKBONE|DICT|INTERRES
    12    7    8 am   BACKBONE|DICT|INTERRES
    13    7   25 1    
    14    8    9 2    
    15    8   10 am   BACKBONE|DICT|INTERRES
    16   10   11 1    
    17   10   26 1    
    18   11   16 ar   
    19   11   12 ar   
    20   12   13 ar   
    21   12   27 1    
    22   13   14 ar   
    23   13   28 1    
    24   14   15 ar   
    25   14   20 1    
    26   15   16 ar   
    27   15   29 1    
    28   16   17 1    
    29   17   18 2    
    30   17   19 1    
    31   21   30 1    
    32   21   31 1    
    33   21   32 1    
@<TRIPOS>SUBSTRUCTURE
     1 UNK         1 GROUP             0       ****    0 ROOT    
