@<TRIPOS>MOLECULE
ZINC39680063_3328
59   63    1
SMALL
USER_CHARGES


@<TRIPOS>ATOM
      1 C1          0.9912   53.4029   27.8707 C.3       1 UNK         0.0000 
      2 C2          2.3167   53.6970   27.2002 C.2       1 UNK         0.0000 
      3 C3          3.5783   54.1167   27.6623 C.2       1 UNK         0.0000 
      4 C4          4.3807   54.2017   26.4880 C.ar      1 UNK         0.0000 
      5 C5          5.7820   54.5461   26.1642 C.ar      1 UNK         0.0000 
      6 O6          6.7044   54.9031   26.8888 O.2       1 UNK         0.0000 
      7 N7          6.0224   54.4076   24.8210 N.pl3     1 UNK         0.0000 
      8 H8          6.9718   54.6104   24.5488 H         1 UNK         0.0000 
      9 C9          5.1544   53.9609   23.8434 C.ar      1 UNK         0.0000 
     10 N10         3.9152   53.7028   24.1136 N.2       1 UNK         0.0000 
     11 C11         3.5600   53.8362   25.4243 C.ar      1 UNK         0.0000 
     12 O12         2.3148   53.5419   25.8491 O.3       1 UNK         0.0000 
     13 C13         5.7322   53.6756   22.4675 C.3       1 UNK         0.0000 
     14 S14         5.1731   54.8966   21.2650 S.3       1 UNK         0.0000 
     15 C15         5.2316   54.0165   19.6708 C.3       1 UNK         0.0000 
     16 H16         5.8403   53.1250   19.8274 H         1 UNK         0.0000 
     17 N17         3.8976   53.5868   19.2804 N.3       1 UNK         0.0000 
     18 C18         3.7984   53.0561   17.9370 C.3       1 UNK         0.0000 
     19 H19         4.3048   52.0967   17.8372 H         1 UNK         0.0000 
     20 C20         4.2816   54.0766   16.9050 C.3       1 UNK         0.0000 
     21 H21         4.5676   53.5396   15.9992 H         1 UNK         0.0000 
     22 C22         3.0971   54.9806   16.5562 C.2       1 UNK         0.0000 
     23 C23         1.9037   54.4312   16.8826 C.2       1 UNK         0.0000 
     24 S24         2.0518   52.7987   17.5732 S.3       1 UNK         0.0000 
     25 C25         0.5490   55.1020   16.6700 C.3       1 UNK         0.0000 
     26 C26         0.6998   56.6134   16.3529 C.3       1 UNK         0.0000 
     27 H27         0.9377   57.1309   17.2817 H         1 UNK         0.0000 
     28 C28         1.8640   56.8432   15.3696 C.3       1 UNK         0.0000 
     29 C29         3.2099   56.3915   15.9703 C.3       1 UNK         0.0000 
     30 C30        -0.6210   57.2042   15.8304 C.3       1 UNK         0.0000 
     31 C31         5.5633   54.8558   17.2958 C.2       1 UNK         0.0000 
     32 O32         6.1940   55.4787   16.4361 O.2       1 UNK         0.0000 
     33 N33         5.9352   54.8120   18.6165 N.am      1 UNK         0.0000 
     34 C34         7.1548   55.5655   18.9823 C.3       1 UNK         0.0000 
     35 C35         6.8897   57.0481   19.2021 C.2       1 UNK         0.0000 
     36 C36         7.4410   58.0374   18.4803 C.2       1 UNK         0.0000 
     37 C37         3.9430   54.3858   29.0674 C.2       1 UNK         0.0000 
     38 O38         5.0602   54.8960   29.2834 O.co2     1 UNK         0.0000 
     39 O39         3.1121   54.0973   29.9626 O.co2     1 UNK         0.0000 
     40 H40         0.3473   52.7791   27.2511 H         1 UNK         0.0000 
     41 H41         1.1193   52.8765   28.8162 H         1 UNK         0.0000 
     42 H42         0.4461   54.3214   28.0850 H         1 UNK         0.0000 
     43 H43         6.8182   53.6965   22.4822 H         1 UNK         0.0000 
     44 H44         5.4280   52.6803   22.1456 H         1 UNK         0.0000 
     45 H45         3.5759   52.8697   19.9135 H         1 UNK         0.0000 
     46 H46         0.0066   54.5949   15.8723 H         1 UNK         0.0000 
     47 H47        -0.0605   54.9843   17.5659 H         1 UNK         0.0000 
     48 H48         1.6601   56.3357   14.4257 H         1 UNK         0.0000 
     49 H49         1.9254   57.9011   15.1087 H         1 UNK         0.0000 
     50 H50         3.5230   57.0946   16.7436 H         1 UNK         0.0000 
     51 H51         3.9959   56.4516   15.2156 H         1 UNK         0.0000 
     52 H52        -1.4261   57.0636   16.5519 H         1 UNK         0.0000 
     53 H53        -0.5291   58.2762   15.6541 H         1 UNK         0.0000 
     54 H54        -0.9261   56.7376   14.8948 H         1 UNK         0.0000 
     55 H55         7.5736   55.1417   19.8937 H         1 UNK         0.0000 
     56 H56         7.9278   55.4366   18.2208 H         1 UNK         0.0000 
     57 H57         6.1948   57.2978   19.9910 H         1 UNK         0.0000 
     58 H58         8.1331   57.8258   17.6782 H         1 UNK         0.0000 
     59 H59         7.2026   59.0739   18.6749 H         1 UNK         0.0000 
@<TRIPOS>BOND
     1    1    2 1    
     2    1   40 1    
     3    1   41 1    
     4    1   42 1    
     5    2   12 1    
     6    2    3 2    
     7    3    4 1    
     8    3   37 1    
     9    4   11 ar   
    10    4    5 ar   
    11    5    6 2    
    12    5    7 ar   
    13    7    8 1    
    14    7    9 ar   
    15    9   10 ar   
    16    9   13 1    
    17   10   11 ar   
    18   11   12 1    
    19   13   14 1    
    20   13   43 1    
    21   13   44 1    
    22   14   15 1    
    23   15   16 1    
    24   15   33 1    
    25   15   17 1    
    26   17   18 1    
    27   17   45 1    
    28   18   19 1    
    29   18   24 1    
    30   18   20 1    
    31   20   21 1    
    32   20   22 1    
    33   20   31 1    
    34   22   29 1    
    35   22   23 2    
    36   23   24 1    
    37   23   25 1    
    38   25   26 1    
    39   25   46 1    
    40   25   47 1    
    41   26   27 1    
    42   26   28 1    
    43   26   30 1    
    44   28   29 1    
    45   28   48 1    
    46   28   49 1    
    47   29   50 1    
    48   29   51 1    
    49   30   52 1    
    50   30   53 1    
    51   30   54 1    
    52   31   32 2    
    53   31   33 am   BACKBONE|DICT|INTERRES
    54   33   34 1    
    55   34   35 1    
    56   34   55 1    
    57   34   56 1    
    58   35   36 2    
    59   35   57 1    
    60   36   58 1    
    61   36   59 1    
    62   37   38 2    
    63   37   39 1    
@<TRIPOS>SUBSTRUCTURE
     1 UNK         1 GROUP             0       ****    0 ROOT    
