@<TRIPOS>MOLECULE
ZINC35668297_5646
47   48    1
SMALL
USER_CHARGES


@<TRIPOS>ATOM
      1 C1          3.3124   52.7987   30.3551 C.3       1 UNK         0.0000 
      2 C2          2.7407   54.0283   29.6639 C.2       1 UNK         0.0000 
      3 C3          1.5979   54.6061   30.0769 C.2       1 UNK         0.0000 
      4 C4          3.5283   54.5616   28.4724 C.3       1 UNK         0.0000 
      5 O5          3.9287   53.4975   27.6166 O.3       1 UNK         0.0000 
      6 C6          4.3865   53.8792   26.3769 C.ar      1 UNK         0.0000 
      7 C7          3.4965   53.9405   25.2957 C.ar      1 UNK         0.0000 
      8 C8          4.0002   54.2469   24.0216 C.ar      1 UNK         0.0000 
      9 C9          5.3622   54.4949   23.8162 C.ar      1 UNK         0.0000 
     10 C10         6.2300   54.4438   24.9063 C.ar      1 UNK         0.0000 
     11 C11         5.7498   54.1244   26.1761 C.ar      1 UNK         0.0000 
     12 I12         7.1042   53.9577   27.7568 I         1 UNK         0.0000 
     13 C13         5.8810   54.8598   22.4807 C.2       1 UNK         0.0000 
     14 C14         5.5480   54.3351   21.2674 C.2       1 UNK         0.0000 
     15 C15         4.6808   53.0612   21.0830 C.2       1 UNK         0.0000 
     16 O16         3.7055   53.1905   20.3142 O.co2     1 UNK         0.0000 
     17 O17         5.1041   52.0489   21.6816 O.co2     1 UNK         0.0000 
     18 N18         5.9268   54.7964   20.0323 N.am      1 UNK         0.0000 
     19 C19         6.4211   56.0029   19.6824 C.2       1 UNK         0.0000 
     20 O20         6.7059   56.8985   20.4792 O.2       1 UNK         0.0000 
     21 C21         6.6377   56.2091   18.2016 C.ar      1 UNK         0.0000 
     22 C22         5.8595   55.5313   17.2474 C.ar      1 UNK         0.0000 
     23 C23         6.0642   55.7505   15.8879 C.ar      1 UNK         0.0000 
     24 C24         7.0429   56.6482   15.4727 C.ar      1 UNK         0.0000 
     25 C25         7.8167   57.3332   16.4053 C.ar      1 UNK         0.0000 
     26 C26         7.6158   57.1137   17.7648 C.ar      1 UNK         0.0000 
     27 O27         2.1617   53.6790   25.5500 O.3       1 UNK         0.0000 
     28 C28         1.2482   53.6005   24.4603 C.3       1 UNK         0.0000 
     29 H29         3.3987   51.9715   29.6490 H         1 UNK         0.0000 
     30 H30         4.3033   53.0144   30.7563 H         1 UNK         0.0000 
     31 H31         2.6799   52.4597   31.1789 H         1 UNK         0.0000 
     32 H32         1.1964   55.4786   29.5806 H         1 UNK         0.0000 
     33 H33         1.0409   54.2181   30.9174 H         1 UNK         0.0000 
     34 H34         2.9291   55.2959   27.9291 H         1 UNK         0.0000 
     35 H35         4.4083   55.0817   28.8537 H         1 UNK         0.0000 
     36 H36         3.3334   54.3136   23.1757 H         1 UNK         0.0000 
     37 H37         7.2849   54.6267   24.7584 H         1 UNK         0.0000 
     38 H38         6.5668   55.6910   22.5152 H         1 UNK         0.0000 
     39 H39         5.6854   54.1735   19.2743 H         1 UNK         0.0000 
     40 H40         5.0797   54.8418   17.5392 H         1 UNK         0.0000 
     41 H41         5.4634   55.2278   15.1577 H         1 UNK         0.0000 
     42 H42         7.1988   56.8202   14.4170 H         1 UNK         0.0000 
     43 H43         8.5709   58.0315   16.0741 H         1 UNK         0.0000 
     44 H44         8.2246   57.6565   18.4740 H         1 UNK         0.0000 
     45 H45         0.2658   53.3134   24.8338 H         1 UNK         0.0000 
     46 H46         1.1420   54.5620   23.9556 H         1 UNK         0.0000 
     47 H47         1.5534   52.8457   23.7325 H         1 UNK         0.0000 
@<TRIPOS>BOND
     1    1    2 1    
     2    1   29 1    
     3    1   30 1    
     4    1   31 1    
     5    2    3 2    
     6    2    4 1    
     7    3   32 1    
     8    3   33 1    
     9    4    5 1    
    10    4   34 1    
    11    4   35 1    
    12    5    6 1    
    13    6   11 ar   
    14    6    7 ar   
    15    7    8 ar   
    16    7   27 1    
    17    8    9 ar   
    18    8   36 1    
    19    9   10 ar   
    20    9   13 1    
    21   10   11 ar   
    22   10   37 1    
    23   11   12 1    
    24   13   14 2    
    25   13   38 1    
    26   14   15 1    
    27   14   18 1    
    28   15   16 2    
    29   15   17 1    
    30   18   19 am   BACKBONE|DICT|INTERRES
    31   18   39 1    
    32   19   20 2    
    33   19   21 1    
    34   21   26 ar   
    35   21   22 ar   
    36   22   23 ar   
    37   22   40 1    
    38   23   24 ar   
    39   23   41 1    
    40   24   25 ar   
    41   24   42 1    
    42   25   26 ar   
    43   25   43 1    
    44   26   44 1    
    45   27   28 1    
    46   28   45 1    
    47   28   46 1    
    48   28   47 1    
@<TRIPOS>SUBSTRUCTURE
     1 UNK         1 GROUP             0       ****    0 ROOT    
