@<TRIPOS>MOLECULE
ZINC06787368_1316
50   51    1
SMALL
USER_CHARGES


@<TRIPOS>ATOM
      1 C1          6.8650   54.3495   27.2660 C.3       1 UNK         0.0000 
      2 C2          6.0344   54.3231   26.0063 C.ar      1 UNK         0.0000 
      3 C3          6.3667   54.1126   24.6787 C.ar      1 UNK         0.0000 
      4 C4          5.1850   54.2253   23.9360 C.ar      1 UNK         0.0000 
      5 N5          4.1742   54.4967   24.7319 N.2       1 UNK         0.0000 
      6 N6          4.6762   54.5491   25.9778 N.pl3     1 UNK         0.0000 
      7 C7          3.7700   54.8043   27.1117 C.3       1 UNK         0.0000 
      8 C8          2.7468   53.7002   27.4199 C.2       1 UNK         0.0000 
      9 O9          2.5382   53.3750   28.5903 O.2       1 UNK         0.0000 
     10 N10         2.0933   53.1965   26.3581 N.am      1 UNK         0.0000 
     11 N11         1.0999   52.2965   26.4340 N.2       1 UNK         0.0000 
     12 C12         0.6653   51.8785   25.3062 C.2       1 UNK         0.0000 
     13 C13        -0.5838   51.0050   25.2448 C.3       1 UNK         0.0000 
     14 C14        -0.3072   49.6092   24.6046 C.3       1 UNK         0.0000 
     15 C15         0.9529   51.0929   22.7903 C.3       1 UNK         0.0000 
     16 C16         1.2669   52.1604   23.8983 C.3       1 UNK         0.0000 
     17 C17        -0.2924   51.4500   21.9468 C.3       1 UNK         0.0000 
     18 C18         2.1993   50.8518   21.9104 C.3       1 UNK         0.0000 
     19 C19         0.3856   48.6708   25.6078 C.3       1 UNK         0.0000 
     20 C20        -1.5954   49.0215   23.9944 C.3       1 UNK         0.0000 
     21 C21         4.9803   54.0637   22.4387 C.3       1 UNK         0.0000 
     22 F22         5.1066   52.7867   22.0811 F         1 UNK         0.0000 
     23 F23         3.7712   54.4706   22.0477 F         1 UNK         0.0000 
     24 F24         5.8833   54.7678   21.7562 F         1 UNK         0.0000 
     25 H25         7.9017   54.0680   27.0901 H         1 UNK         0.0000 
     26 H26         6.8786   55.3543   27.6817 H         1 UNK         0.0000 
     27 H27         6.4770   53.6767   28.0316 H         1 UNK         0.0000 
     28 H28         7.3498   53.9013   24.2838 H         1 UNK         0.0000 
     29 H29         3.1862   55.6961   26.8823 H         1 UNK         0.0000 
     30 H30         4.3579   55.0298   28.0021 H         1 UNK         0.0000 
     31 H31         2.3330   53.4930   25.4240 H         1 UNK         0.0000 
     32 H32        -1.3519   51.5501   24.6990 H         1 UNK         0.0000 
     33 H33        -1.0032   50.8701   26.2451 H         1 UNK         0.0000 
     34 H34         0.9278   53.1417   23.5632 H         1 UNK         0.0000 
     35 H35         2.3484   52.2518   24.0007 H         1 UNK         0.0000 
     36 H36        -0.0975   52.3379   21.3436 H         1 UNK         0.0000 
     37 H37        -0.5549   50.6511   21.2515 H         1 UNK         0.0000 
     38 H38        -1.1735   51.6730   22.5426 H         1 UNK         0.0000 
     39 H39         2.5011   51.7709   21.4049 H         1 UNK         0.0000 
     40 H40         3.0617   50.5052   22.4809 H         1 UNK         0.0000 
     41 H41         2.0129   50.1134   21.1285 H         1 UNK         0.0000 
     42 H42        -0.2437   48.4969   26.4814 H         1 UNK         0.0000 
     43 H43         1.3316   49.0625   25.9790 H         1 UNK         0.0000 
     44 H44         0.5914   47.6966   25.1669 H         1 UNK         0.0000 
     45 H45        -2.3472   48.8698   24.7708 H         1 UNK         0.0000 
     46 H46        -2.0443   49.6668   23.2406 H         1 UNK         0.0000 
     47 H47        -1.4187   48.0490   23.5331 H         1 UNK         0.0000 
     48 N48         0.7035   49.7082   23.4353 N.4       1 UNK         0.0000 
     49 H49         1.5964   49.4027   23.7987 H         1 UNK         0.0000 
     50 H50         0.4667   49.0319   22.7255 H         1 UNK         0.0000 
@<TRIPOS>BOND
     1    1    2 1    
     2    1   25 1    
     3    1   26 1    
     4    1   27 1    
     5    2    6 ar   
     6    2    3 ar   
     7    3    4 ar   
     8    3   28 1    
     9    4    5 ar   
    10    4   21 1    
    11    5    6 ar   
    12    6    7 1    
    13    7    8 1    
    14    7   29 1    
    15    7   30 1    
    16    8    9 2    
    17    8   10 am   BACKBONE|DICT|INTERRES
    18   10   11 1    
    19   10   31 1    
    20   11   12 2    
    21   12   16 1    
    22   12   13 1    
    23   13   14 1    
    24   13   32 1    
    25   13   33 1    
    26   14   19 1    
    27   14   20 1    
    28   14   48 1    
    29   15   16 1    
    30   15   17 1    
    31   15   18 1    
    32   15   48 1    
    33   16   34 1    
    34   16   35 1    
    35   17   36 1    
    36   17   37 1    
    37   17   38 1    
    38   18   39 1    
    39   18   40 1    
    40   18   41 1    
    41   19   42 1    
    42   19   43 1    
    43   19   44 1    
    44   20   45 1    
    45   20   46 1    
    46   20   47 1    
    47   21   22 1    
    48   21   23 1    
    49   21   24 1    
    50   48   49 1    
    51   48   50 1    
@<TRIPOS>SUBSTRUCTURE
     1 UNK         1 GROUP             0       ****    0 ROOT    
