@<TRIPOS>MOLECULE
ZINC15946935_2906
59   62    1
SMALL
USER_CHARGES


@<TRIPOS>ATOM
      1 C1          4.4754   53.0426   15.4063 C.3       1 UNK         0.0000 
      2 C2          5.0325   53.7230   16.6704 C.3       1 UNK         0.0000 
      3 H3          6.1171   53.5845   16.6705 H         1 UNK         0.0000 
      4 C4          4.6933   55.2123   16.7764 C.ar      1 UNK         0.0000 
      5 C5          3.3840   55.6668   16.5821 C.ar      1 UNK         0.0000 
      6 C6          3.1025   57.0302   16.6227 C.ar      1 UNK         0.0000 
      7 C7          4.1260   57.9410   16.8696 C.ar      1 UNK         0.0000 
      8 C8          5.4278   57.4997   17.0863 C.ar      1 UNK         0.0000 
      9 C9          5.7126   56.1367   17.0390 C.ar      1 UNK         0.0000 
     10 C10         5.2621   53.2195   19.2248 C.3       1 UNK         0.0000 
     11 C11         4.2875   53.9959   20.1302 C.3       1 UNK         0.0000 
     12 C12         4.9512   54.3850   21.4550 C.2       1 UNK         0.0000 
     13 O13         6.0518   54.9348   21.4252 O.2       1 UNK         0.0000 
     14 N14         4.2487   54.0968   22.5726 N.am      1 UNK         0.0000 
     15 C15         4.6423   54.2137   23.9078 C.2       1 UNK         0.0000 
     16 C16         3.8251   53.9367   25.0343 C.2       1 UNK         0.0000 
     17 C17         4.5754   54.0969   26.2313 C.2       1 UNK         0.0000 
     18 C18         5.8825   54.4735   26.0236 C.2       1 UNK         0.0000 
     19 S19         6.2845   54.6532   24.3666 S.3       1 UNK         0.0000 
     20 C20         6.6808   54.6378   27.2795 C.3       1 UNK         0.0000 
     21 C21         5.6349   54.3877   28.3732 C.3       1 UNK         0.0000 
     22 C22         4.3199   53.9304   27.7132 C.3       1 UNK         0.0000 
     23 C23         2.4120   53.5603   24.9605 C.2       1 UNK         0.0000 
     24 O24         1.7761   53.6884   23.9131 O.2       1 UNK         0.0000 
     25 N25         1.9068   53.0504   26.1075 N.am      1 UNK         0.0000 
     26 C26         0.6459   52.4969   26.3843 C.ar      1 UNK         0.0000 
     27 C27         0.3844   52.2207   27.7298 C.ar      1 UNK         0.0000 
     28 C28        -0.8472   51.6971   28.1131 C.ar      1 UNK         0.0000 
     29 C29        -1.8226   51.4545   27.1500 C.ar      1 UNK         0.0000 
     30 C30        -1.5627   51.6955   25.8032 C.ar      1 UNK         0.0000 
     31 C31        -0.3277   52.2084   25.4147 C.ar      1 UNK         0.0000 
     32 Br32       -3.5298   50.8063   27.6835 Br        1 UNK         0.0000 
     33 H33         4.8188   53.5558   14.5055 H         1 UNK         0.0000 
     34 H34         4.8072   52.0048   15.3327 H         1 UNK         0.0000 
     35 H35         3.3854   53.0354   15.3831 H         1 UNK         0.0000 
     36 H36         2.5809   54.9721   16.3856 H         1 UNK         0.0000 
     37 H37         2.0947   57.3840   16.4618 H         1 UNK         0.0000 
     38 H38         3.9116   59.0012   16.8910 H         1 UNK         0.0000 
     39 H39         6.2129   58.2174   17.2769 H         1 UNK         0.0000 
     40 H40         6.7289   55.8053   17.1920 H         1 UNK         0.0000 
     41 H41         5.5051   52.2362   19.6366 H         1 UNK         0.0000 
     42 H42         6.1853   53.7562   18.9902 H         1 UNK         0.0000 
     43 H43         3.9603   54.9078   19.6381 H         1 UNK         0.0000 
     44 H44         3.3932   53.3983   20.3196 H         1 UNK         0.0000 
     45 H45         3.2979   53.7738   22.4468 H         1 UNK         0.0000 
     46 H46         7.5024   53.9238   27.3466 H         1 UNK         0.0000 
     47 H47         7.1031   55.6375   27.3630 H         1 UNK         0.0000 
     48 H48         5.9971   53.6372   29.0715 H         1 UNK         0.0000 
     49 H49         5.4792   55.2967   28.9571 H         1 UNK         0.0000 
     50 H50         3.4803   54.5273   28.0711 H         1 UNK         0.0000 
     51 H51         4.1259   52.8896   27.9732 H         1 UNK         0.0000 
     52 H52         2.5423   53.0456   26.8908 H         1 UNK         0.0000 
     53 H53         1.1255   52.4168   28.4907 H         1 UNK         0.0000 
     54 H54        -1.0525   51.4833   29.1518 H         1 UNK         0.0000 
     55 H55        -2.3195   51.4896   25.0624 H         1 UNK         0.0000 
     56 H56        -0.1585   52.3815   24.3646 H         1 UNK         0.0000 
     57 N57         4.5749   52.8967   17.8861 N.4       1 UNK         0.0000 
     58 H58         3.5721   52.9651   17.9882 H         1 UNK         0.0000 
     59 H59         4.7863   51.9120   17.7004 H         1 UNK         0.0000 
@<TRIPOS>BOND
     1    1    2 1    
     2    1   33 1    
     3    1   34 1    
     4    1   35 1    
     5    2    3 1    
     6    2    4 1    
     7    2   57 1    
     8    4    9 ar   
     9    4    5 ar   
    10    5    6 ar   
    11    5   36 1    
    12    6    7 ar   
    13    6   37 1    
    14    7    8 ar   
    15    7   38 1    
    16    8    9 ar   
    17    8   39 1    
    18    9   40 1    
    19   10   11 1    
    20   10   41 1    
    21   10   42 1    
    22   10   57 1    
    23   11   12 1    
    24   11   43 1    
    25   11   44 1    
    26   12   13 2    
    27   12   14 am   BACKBONE|DICT|INTERRES
    28   14   15 am   BACKBONE|DICT|INTERRES
    29   14   45 1    
    30   15   19 1    
    31   15   16 2    
    32   16   17 1    
    33   16   23 1    
    34   17   22 1    
    35   17   18 2    
    36   18   19 1    
    37   18   20 1    
    38   20   21 1    
    39   20   46 1    
    40   20   47 1    
    41   21   22 1    
    42   21   48 1    
    43   21   49 1    
    44   22   50 1    
    45   22   51 1    
    46   23   24 2    
    47   23   25 am   BACKBONE|DICT|INTERRES
    48   25   26 1    
    49   25   52 1    
    50   26   31 ar   
    51   26   27 ar   
    52   27   28 ar   
    53   27   53 1    
    54   28   29 ar   
    55   28   54 1    
    56   29   30 ar   
    57   29   32 1    
    58   30   31 ar   
    59   30   55 1    
    60   31   56 1    
    61   57   58 1    
    62   57   59 1    
@<TRIPOS>SUBSTRUCTURE
     1 UNK         1 GROUP             0       ****    0 ROOT    
