@<TRIPOS>MOLECULE
ZINC36646604_4138
42   45    1
SMALL
USER_CHARGES


@<TRIPOS>ATOM
      1 C1         -1.9300   48.1867   19.9827 C.ar      1 UNK         0.0000 
      2 C2         -1.7451   47.2259   18.9919 C.ar      1 UNK         0.0000 
      3 C3         -0.4792   47.0307   18.4436 C.ar      1 UNK         0.0000 
      4 C4          0.6062   47.7950   18.8762 C.ar      1 UNK         0.0000 
      5 C5          0.4275   48.7762   19.8681 C.ar      1 UNK         0.0000 
      6 C6         -0.8499   48.9538   20.4171 C.ar      1 UNK         0.0000 
      7 C7          1.5131   49.6571   20.4052 C.ar      1 UNK         0.0000 
      8 N8          1.7645   49.7824   21.6874 N.2       1 UNK         0.0000 
      9 N9          2.7184   50.7816   21.8321 N.2       1 UNK         0.0000 
     10 C10         3.0476   51.1922   20.6317 C.ar      1 UNK         0.0000 
     11 N11         2.2997   50.5312   19.6800 N.pl3     1 UNK         0.0000 
     12 N12         2.3044   50.7498   18.3126 N.3       1 UNK         0.0000 
     13 S13         4.1968   52.4947   20.3039 S.3       1 UNK         0.0000 
     14 C14         3.5043   53.7916   21.3711 C.3       1 UNK         0.0000 
     15 C15         4.2663   53.9664   22.6612 C.2       1 UNK         0.0000 
     16 N16         3.7794   54.0081   23.8692 N.2       1 UNK         0.0000 
     17 C17         4.8650   54.1712   24.6049 C.2       1 UNK         0.0000 
     18 N18         5.9988   54.2781   23.9377 N.2       1 UNK         0.0000 
     19 O19         5.6069   54.1546   22.6073 O.3       1 UNK         0.0000 
     20 C20         4.8087   54.2287   26.1047 C.ar      1 UNK         0.0000 
     21 C21         5.9751   54.0965   26.8705 C.ar      1 UNK         0.0000 
     22 C22         5.9210   54.1540   28.2605 C.ar      1 UNK         0.0000 
     23 C23         4.7042   54.3600   28.9050 C.ar      1 UNK         0.0000 
     24 C24         3.5229   54.4875   28.1677 C.ar      1 UNK         0.0000 
     25 C25         3.5867   54.4092   26.7708 C.ar      1 UNK         0.0000 
     26 C26         2.1872   54.7089   28.8778 C.3       1 UNK         0.0000 
     27 F27         1.1698   54.2100   28.1739 F         1 UNK         0.0000 
     28 F28         1.9891   56.0174   29.0371 F         1 UNK         0.0000 
     29 F29         2.1818   54.1317   30.0810 F         1 UNK         0.0000 
     30 Br30        2.3057   47.4303   18.0991 Br        1 UNK         0.0000 
     31 H31        -2.9086   48.3395   20.4137 H         1 UNK         0.0000 
     32 H32        -2.5804   46.6322   18.6510 H         1 UNK         0.0000 
     33 H33        -0.3365   46.2804   17.6799 H         1 UNK         0.0000 
     34 H34        -1.0100   49.6969   21.1857 H         1 UNK         0.0000 
     35 H35         2.9397   50.0991   17.8495 H         1 UNK         0.0000 
     36 H36         1.3739   50.6554   17.9374 H         1 UNK         0.0000 
     37 H37         2.4476   53.5968   21.5551 H         1 UNK         0.0000 
     38 H38         3.5263   54.7170   20.7995 H         1 UNK         0.0000 
     39 H39         6.9308   53.9391   26.3920 H         1 UNK         0.0000 
     40 H40         6.8270   54.0586   28.8421 H         1 UNK         0.0000 
     41 H41         4.6879   54.4241   29.9830 H         1 UNK         0.0000 
     42 H42         2.6766   54.4966   26.1960 H         1 UNK         0.0000 
@<TRIPOS>BOND
     1    1    6 ar   
     2    1    2 ar   
     3    1   31 1    
     4    2    3 ar   
     5    2   32 1    
     6    3    4 ar   
     7    3   33 1    
     8    4    5 ar   
     9    4   30 1    
    10    5    6 ar   
    11    5    7 1    
    12    6   34 1    
    13    7   11 ar   
    14    7    8 ar   
    15    8    9 ar   
    16    9   10 ar   
    17   10   11 ar   
    18   10   13 1    
    19   11   12 1    
    20   12   35 1    
    21   12   36 1    
    22   13   14 1    
    23   14   15 1    
    24   14   37 1    
    25   14   38 1    
    26   15   19 1    
    27   15   16 2    
    28   16   17 1    
    29   17   18 2    
    30   17   20 1    
    31   18   19 1    
    32   20   25 ar   
    33   20   21 ar   
    34   21   22 ar   
    35   21   39 1    
    36   22   23 ar   
    37   22   40 1    
    38   23   24 ar   
    39   23   41 1    
    40   24   25 ar   
    41   24   26 1    
    42   25   42 1    
    43   26   27 1    
    44   26   28 1    
    45   26   29 1    
@<TRIPOS>SUBSTRUCTURE
     1 UNK         1 GROUP             0       ****    0 ROOT    
