@<TRIPOS>MOLECULE
ZINC39632622_2153
60   63    1
SMALL
USER_CHARGES


@<TRIPOS>ATOM
      1 C1          1.7125   55.3964   29.9074 C.3       1 UNK         0.0000 
      2 O2          2.4365   54.1986   29.6370 O.3       1 UNK         0.0000 
      3 C3          3.0134   54.1660   28.3874 C.ar      1 UNK         0.0000 
      4 C4          4.3597   54.4898   28.2301 C.ar      1 UNK         0.0000 
      5 C5          4.9436   54.4922   26.9632 C.ar      1 UNK         0.0000 
      6 C6          4.2036   54.1904   25.8044 C.ar      1 UNK         0.0000 
      7 C7          2.8425   53.8744   25.9881 C.ar      1 UNK         0.0000 
      8 C8          2.2691   53.8140   27.2602 C.ar      1 UNK         0.0000 
      9 Cl9         0.6324   53.2889   27.4275 Cl        1 UNK         0.0000 
     10 C10         4.9193   54.2393   24.4490 C.2       1 UNK         0.0000 
     11 O11         6.0327   54.7745   24.4158 O.2       1 UNK         0.0000 
     12 N12         4.4010   53.6967   23.3054 N.am      1 UNK         0.0000 
     13 C13         3.1648   52.9226   23.1484 C.3       1 UNK         0.0000 
     14 C14         3.3997   52.0857   21.8738 C.3       1 UNK         0.0000 
     15 H15         3.9481   51.1683   22.0815 H         1 UNK         0.0000 
     16 C16         4.3072   52.9876   20.9981 C.3       1 UNK         0.0000 
     17 C17         5.2131   53.6274   22.0740 C.3       1 UNK         0.0000 
     18 C18         5.0385   52.2021   19.9002 C.3       1 UNK         0.0000 
     19 C19         5.9559   53.0703   19.0112 C.3       1 UNK         0.0000 
     20 N20         5.0715   54.1083   18.3067 N.4       1 UNK         0.0000 
     21 C21         4.3560   55.0029   19.3327 C.3       1 UNK         0.0000 
     22 C22         3.5277   54.1049   20.2756 C.3       1 UNK         0.0000 
     23 C23         2.0390   51.5720   21.3235 C.2       1 UNK         0.0000 
     24 O24         1.8341   51.4927   20.1141 O.2       1 UNK         0.0000 
     25 N25         1.1117   51.2078   22.2307 N.am      1 UNK         0.0000 
     26 C26        -0.2102   50.6433   21.9480 C.3       1 UNK         0.0000 
     27 C27        -0.1619   49.1145   21.8661 C.3       1 UNK         0.0000 
     28 C28        -0.2866   48.6356   23.3211 C.3       1 UNK         0.0000 
     29 C29        -1.0036   49.7623   24.0892 C.3       1 UNK         0.0000 
     30 C30        -1.1820   50.9249   23.0982 C.3       1 UNK         0.0000 
     31 Cl31        5.3120   54.8968   29.6044 Cl        1 UNK         0.0000 
     32 H32         1.2310   55.3232   30.8825 H         1 UNK         0.0000 
     33 H33         2.3680   56.2684   29.9250 H         1 UNK         0.0000 
     34 H34         0.9288   55.5770   29.1707 H         1 UNK         0.0000 
     35 H35         5.9934   54.7440   26.8958 H         1 UNK         0.0000 
     36 H36         2.1641   53.6957   25.1757 H         1 UNK         0.0000 
     37 H37         2.3637   53.6358   22.9419 H         1 UNK         0.0000 
     38 H38         2.9240   52.2522   23.9712 H         1 UNK         0.0000 
     39 H39         6.0178   52.9245   22.2906 H         1 UNK         0.0000 
     40 H40         5.6992   54.5544   21.7684 H         1 UNK         0.0000 
     41 H41         5.6159   51.3994   20.3456 H         1 UNK         0.0000 
     42 H42         4.2982   51.6970   19.2819 H         1 UNK         0.0000 
     43 H43         6.7038   53.6553   19.5493 H         1 UNK         0.0000 
     44 H44         6.4360   52.4966   18.2169 H         1 UNK         0.0000 
     45 H45         5.6268   54.6692   17.6743 H         1 UNK         0.0000 
     46 H46         5.1275   55.5786   19.8456 H         1 UNK         0.0000 
     47 H47         3.7261   55.6862   18.7603 H         1 UNK         0.0000 
     48 H48         2.7046   53.6965   19.6928 H         1 UNK         0.0000 
     49 H49         3.1044   54.7312   21.0563 H         1 UNK         0.0000 
     50 H50         1.3794   51.1943   23.2019 H         1 UNK         0.0000 
     51 H51        -0.5492   51.0924   21.0102 H         1 UNK         0.0000 
     52 H52         0.7230   48.7385   21.3498 H         1 UNK         0.0000 
     53 H53        -1.0188   48.7620   21.2902 H         1 UNK         0.0000 
     54 H54         0.7050   48.4753   23.7477 H         1 UNK         0.0000 
     55 H55        -0.8225   47.6882   23.3907 H         1 UNK         0.0000 
     56 H56        -0.4032   50.0759   24.9451 H         1 UNK         0.0000 
     57 H57        -1.9642   49.4300   24.4854 H         1 UNK         0.0000 
     58 H58        -2.2013   50.9073   22.7094 H         1 UNK         0.0000 
     59 H59        -1.0509   51.9117   23.5454 H         1 UNK         0.0000 
     60 H60         4.3868   53.6182   17.7447 H         1 UNK         0.0000 
@<TRIPOS>BOND
     1    1    2 1    
     2    1   32 1    
     3    1   33 1    
     4    1   34 1    
     5    2    3 1    
     6    3    8 ar   
     7    3    4 ar   
     8    4    5 ar   
     9    4   31 1    
    10    5    6 ar   
    11    5   35 1    
    12    6    7 ar   
    13    6   10 1    
    14    7    8 ar   
    15    7   36 1    
    16    8    9 1    
    17   10   11 2    
    18   10   12 am   BACKBONE|DICT|INTERRES
    19   12   17 1    
    20   12   13 1    
    21   13   14 1    
    22   13   37 1    
    23   13   38 1    
    24   14   15 1    
    25   14   16 1    
    26   14   23 1    
    27   16   22 1    
    28   16   17 1    
    29   16   18 1    
    30   17   39 1    
    31   17   40 1    
    32   18   19 1    
    33   18   41 1    
    34   18   42 1    
    35   19   20 1    
    36   19   43 1    
    37   19   44 1    
    38   20   21 1    
    39   20   45 1    
    40   20   60 1    
    41   21   22 1    
    42   21   46 1    
    43   21   47 1    
    44   22   48 1    
    45   22   49 1    
    46   23   24 2    
    47   23   25 am   BACKBONE|DICT|INTERRES
    48   25   26 1    
    49   25   50 1    
    50   26   30 1    
    51   26   27 1    
    52   26   51 1    
    53   27   28 1    
    54   27   52 1    
    55   27   53 1    
    56   28   29 1    
    57   28   54 1    
    58   28   55 1    
    59   29   30 1    
    60   29   56 1    
    61   29   57 1    
    62   30   58 1    
    63   30   59 1    
@<TRIPOS>SUBSTRUCTURE
     1 UNK         1 GROUP             0       ****    0 ROOT    
