ZINC39632622_2153
                    3D
 Schrodinger Suite 2024-2.
 60 63  0  0  1  0            999 V2000
    1.7125   55.3964   29.9074 C   0  0  0  0  0  0
    2.4365   54.1986   29.6370 O   0  0  0  0  0  0
    3.0134   54.1660   28.3874 C   0  0  0  0  0  0
    4.3597   54.4898   28.2301 C   0  0  0  0  0  0
    4.9436   54.4922   26.9632 C   0  0  0  0  0  0
    4.2036   54.1904   25.8044 C   0  0  0  0  0  0
    2.8425   53.8744   25.9881 C   0  0  0  0  0  0
    2.2691   53.8140   27.2602 C   0  0  0  0  0  0
    0.6324   53.2889   27.4275 Cl  0  0  0  0  0  0
    4.9193   54.2393   24.4490 C   0  0  0  0  0  0
    6.0327   54.7745   24.4158 O   0  0  0  0  0  0
    4.4010   53.6967   23.3054 N   0  0  0  0  0  0
    3.1648   52.9226   23.1484 C   0  0  0  0  0  0
    3.3997   52.0857   21.8738 C   0  0  2  0  0  0
    3.9481   51.1683   22.0815 H   0  0  0  0  0  0
    4.3072   52.9876   20.9981 C   0  0  0  0  0  0
    5.2131   53.6274   22.0740 C   0  0  0  0  0  0
    5.0385   52.2021   19.9002 C   0  0  0  0  0  0
    5.9559   53.0703   19.0112 C   0  0  0  0  0  0
    5.0715   54.1083   18.3067 N   0  3  0  0  0  0
    4.3560   55.0029   19.3327 C   0  0  0  0  0  0
    3.5277   54.1049   20.2756 C   0  0  0  0  0  0
    2.0390   51.5720   21.3235 C   0  0  0  0  0  0
    1.8341   51.4927   20.1141 O   0  0  0  0  0  0
    1.1117   51.2078   22.2307 N   0  0  0  0  0  0
   -0.2102   50.6433   21.9480 C   0  0  0  0  0  0
   -0.1619   49.1145   21.8661 C   0  0  0  0  0  0
   -0.2866   48.6356   23.3211 C   0  0  0  0  0  0
   -1.0036   49.7623   24.0892 C   0  0  0  0  0  0
   -1.1820   50.9249   23.0982 C   0  0  0  0  0  0
    5.3120   54.8968   29.6044 Cl  0  0  0  0  0  0
    1.2310   55.3232   30.8825 H   0  0  0  0  0  0
    2.3680   56.2684   29.9250 H   0  0  0  0  0  0
    0.9288   55.5770   29.1707 H   0  0  0  0  0  0
    5.9934   54.7440   26.8958 H   0  0  0  0  0  0
    2.1641   53.6957   25.1757 H   0  0  0  0  0  0
    2.3637   53.6358   22.9419 H   0  0  0  0  0  0
    2.9240   52.2522   23.9712 H   0  0  0  0  0  0
    6.0178   52.9245   22.2906 H   0  0  0  0  0  0
    5.6992   54.5544   21.7684 H   0  0  0  0  0  0
    5.6159   51.3994   20.3456 H   0  0  0  0  0  0
    4.2982   51.6970   19.2819 H   0  0  0  0  0  0
    6.7038   53.6553   19.5493 H   0  0  0  0  0  0
    6.4360   52.4966   18.2169 H   0  0  0  0  0  0
    5.6268   54.6692   17.6743 H   0  0  0  0  0  0
    5.1275   55.5786   19.8456 H   0  0  0  0  0  0
    3.7261   55.6862   18.7603 H   0  0  0  0  0  0
    2.7046   53.6965   19.6928 H   0  0  0  0  0  0
    3.1044   54.7312   21.0563 H   0  0  0  0  0  0
    1.3794   51.1943   23.2019 H   0  0  0  0  0  0
   -0.5492   51.0924   21.0102 H   0  0  0  0  0  0
    0.7230   48.7385   21.3498 H   0  0  0  0  0  0
   -1.0188   48.7620   21.2902 H   0  0  0  0  0  0
    0.7050   48.4753   23.7477 H   0  0  0  0  0  0
   -0.8225   47.6882   23.3907 H   0  0  0  0  0  0
   -0.4032   50.0759   24.9451 H   0  0  0  0  0  0
   -1.9642   49.4300   24.4854 H   0  0  0  0  0  0
   -2.2013   50.9073   22.7094 H   0  0  0  0  0  0
   -1.0509   51.9117   23.5454 H   0  0  0  0  0  0
    4.3868   53.6182   17.7447 H   0  0  0  0  0  0
  1  2  1  0  0  0
  1 32  1  0  0  0
  1 33  1  0  0  0
  1 34  1  0  0  0
  2  3  1  0  0  0
  3  8  2  0  0  0
  3  4  1  0  0  0
  4  5  2  0  0  0
  4 31  1  0  0  0
  5  6  1  0  0  0
  5 35  1  0  0  0
  6  7  2  0  0  0
  6 10  1  0  0  0
  7  8  1  0  0  0
  7 36  1  0  0  0
  8  9  1  0  0  0
 10 11  2  0  0  0
 10 12  1  0  0  0
 12 17  1  0  0  0
 12 13  1  0  0  0
 13 14  1  0  0  0
 13 37  1  0  0  0
 13 38  1  0  0  0
 14 15  1  0  0  0
 14 16  1  0  0  0
 14 23  1  0  0  0
 16 22  1  0  0  0
 16 17  1  0  0  0
 16 18  1  0  0  0
 17 39  1  0  0  0
 17 40  1  0  0  0
 18 19  1  0  0  0
 18 41  1  0  0  0
 18 42  1  0  0  0
 19 20  1  0  0  0
 19 43  1  0  0  0
 19 44  1  0  0  0
 20 21  1  0  0  0
 20 45  1  0  0  0
 20 60  1  0  0  0
 21 22  1  0  0  0
 21 46  1  0  0  0
 21 47  1  0  0  0
 22 48  1  0  0  0
 22 49  1  0  0  0
 23 24  2  0  0  0
 23 25  1  0  0  0
 25 26  1  0  0  0
 25 50  1  0  0  0
 26 30  1  0  0  0
 26 27  1  0  0  0
 26 51  1  0  0  0
 27 28  1  0  0  0
 27 52  1  0  0  0
 27 53  1  0  0  0
 28 29  1  0  0  0
 28 54  1  0  0  0
 28 55  1  0  0  0
 29 30  1  0  0  0
 29 56  1  0  0  0
 29 57  1  0  0  0
 30 58  1  0  0  0
 30 59  1  0  0  0
M  CHG  1  20   1
M  END
> <i_i_glide_confnum>
786

> <i_i_glide_lignum>
2154

> <i_i_glide_posenum>
240

> <i_i_glide_rotatable_bonds>
6

> <i_m_Source_File_Index>
3224

> <b_m_subgroup_collapsed>
0

> <r_i_docking_score>
-4.52536

> <r_i_glide_ecoul>
-1.29168

> <r_i_glide_eff_state_penalty>
0

> <r_i_glide_einternal>
11.2154

> <r_i_glide_emodel>
-38.8223

> <r_i_glide_energy>
-30.302

> <r_i_glide_erotb>
0.484331

> <r_i_glide_esite>
-0.018205

> <r_i_glide_evdw>
-29.0103

> <r_i_glide_gscore>
-4.52536

> <r_i_glide_hbond>
-0.13301

> <r_i_glide_ligand_efficiency>
-0.150845

> <r_i_glide_ligand_efficiency_ln>
-1.02821

> <r_i_glide_ligand_efficiency_sa>
-0.468712

> <r_i_glide_lipo>
-2.21656

> <r_i_glide_metal>
0

> <r_i_glide_rewards>
-0.997646

> <s_i_glide_gridfile>
wee1_glide-grid

> <s_m_Source_File>
wee1_decoys_glide_SP.sdf

> <s_m_Source_Path>
/Users/zhangxujun/Desktop

> <s_m_entry_id>
3499

> <s_m_entry_name>
wee1_decoys_glide_SP.3224

> <s_m_subgroup_title>
wee1_decoys_glide_SP

> <s_m_subgroupid>
wee1_decoys_glide_SP


$$$$
