@<TRIPOS>MOLECULE
ZINC39665799_382
70   73    1
SMALL
USER_CHARGES


@<TRIPOS>ATOM
      1 C1          0.5766   51.0808   27.6374 C.3       1 UNK         0.0000 
      2 C2          0.0053   50.8157   26.2684 C.2       1 UNK         0.0000 
      3 C3          0.3065   49.9322   25.2439 C.2       1 UNK         0.0000 
      4 C4         -0.5576   50.2187   24.1809 C.2       1 UNK         0.0000 
      5 C5         -1.3656   51.2702   24.6106 C.2       1 UNK         0.0000 
      6 O6         -1.0187   51.6161   25.8796 O.3       1 UNK         0.0000 
      7 C7         -2.4619   52.0989   23.9666 C.3       1 UNK         0.0000 
      8 F8         -2.0169   53.3161   23.6802 F         1 UNK         0.0000 
      9 F9         -2.8862   51.5601   22.8258 F         1 UNK         0.0000 
     10 F10        -3.5170   52.2269   24.7671 F         1 UNK         0.0000 
     11 C11        -0.5163   49.6734   22.8535 C.2       1 UNK         0.0000 
     12 O12        -1.2044   48.6923   22.5700 O.2       1 UNK         0.0000 
     13 N13         0.2387   50.3503   21.9509 N.am      1 UNK         0.0000 
     14 C14         1.2247   51.3965   22.2607 C.3       1 UNK         0.0000 
     15 C15         1.6958   51.8715   20.8677 C.3       1 UNK         0.0000 
     16 H16         1.0875   52.7271   20.5637 H         1 UNK         0.0000 
     17 C17         1.4391   50.6643   19.9150 C.3       1 UNK         0.0000 
     18 C18         0.1526   50.0671   20.5203 C.3       1 UNK         0.0000 
     19 C19         2.5880   49.6154   19.9306 C.3       1 UNK         0.0000 
     20 C20         2.2735   48.3517   19.1205 C.3       1 UNK         0.0000 
     21 N21         1.9043   48.7560   17.6804 N.4       1 UNK         0.0000 
     22 C22         0.8698   49.8965   17.5448 C.3       1 UNK         0.0000 
     23 C23         1.3211   51.0787   18.4273 C.3       1 UNK         0.0000 
     24 C24         3.1806   52.3182   20.9485 C.2       1 UNK         0.0000 
     25 O25         3.9872   51.7351   21.6728 O.2       1 UNK         0.0000 
     26 N26         3.5083   53.4023   20.2301 N.am      1 UNK         0.0000 
     27 C27         4.8511   53.9761   20.1036 C.3       1 UNK         0.0000 
     28 C28         5.3127   54.7897   21.3322 C.3       1 UNK         0.0000 
     29 H29         4.4328   55.2989   21.7143 H         1 UNK         0.0000 
     30 C30         6.3887   55.8296   20.9814 C.3       1 UNK         0.0000 
     31 O31         5.8777   53.9175   22.3123 O.3       1 UNK         0.0000 
     32 C32         5.5163   54.0799   23.6302 C.ar      1 UNK         0.0000 
     33 C33         6.5360   54.1091   24.5772 C.ar      1 UNK         0.0000 
     34 C34         6.2343   54.2039   25.9322 C.ar      1 UNK         0.0000 
     35 C35         4.8965   54.2732   26.3515 C.ar      1 UNK         0.0000 
     36 C36         3.8798   54.2444   25.3963 C.ar      1 UNK         0.0000 
     37 C37         4.1831   54.1321   24.0427 C.ar      1 UNK         0.0000 
     38 O38         4.4949   54.3711   27.6684 O.3       1 UNK         0.0000 
     39 C39         5.4629   54.2050   28.6981 C.3       1 UNK         0.0000 
     40 H40         1.4789   50.4979   27.8197 H         1 UNK         0.0000 
     41 H41         0.8440   52.1310   27.7625 H         1 UNK         0.0000 
     42 H42        -0.1366   50.8343   28.4222 H         1 UNK         0.0000 
     43 H43         1.0899   49.1854   25.2567 H         1 UNK         0.0000 
     44 H44         2.0244   50.8858   22.8013 H         1 UNK         0.0000 
     45 H45         0.8079   52.2201   22.8428 H         1 UNK         0.0000 
     46 H46        -0.6920   50.6413   20.1381 H         1 UNK         0.0000 
     47 H47        -0.0338   49.0288   20.2509 H         1 UNK         0.0000 
     48 H48         3.5142   50.0506   19.5636 H         1 UNK         0.0000 
     49 H49         2.7916   49.3035   20.9569 H         1 UNK         0.0000 
     50 H50         3.1837   47.7725   19.0049 H         1 UNK         0.0000 
     51 H51         1.4716   47.7304   19.5173 H         1 UNK         0.0000 
     52 H52         2.7952   49.0433   17.2418 H         1 UNK         0.0000 
     53 H53         0.8442   50.1526   16.4839 H         1 UNK         0.0000 
     54 H54        -0.0977   49.4839   17.8361 H         1 UNK         0.0000 
     55 H55         0.5695   51.8611   18.3273 H         1 UNK         0.0000 
     56 H56         2.2519   51.5190   18.0620 H         1 UNK         0.0000 
     57 H57         2.7580   53.9183   19.7785 H         1 UNK         0.0000 
     58 H58         4.8211   54.6268   19.2292 H         1 UNK         0.0000 
     59 H59         5.5712   53.1895   19.8667 H         1 UNK         0.0000 
     60 H60         6.0261   56.5393   20.2382 H         1 UNK         0.0000 
     61 H61         6.6837   56.4000   21.8609 H         1 UNK         0.0000 
     62 H62         7.2846   55.3496   20.5842 H         1 UNK         0.0000 
     63 H63         7.5640   54.0478   24.2548 H         1 UNK         0.0000 
     64 H64         7.0476   54.2098   26.6408 H         1 UNK         0.0000 
     65 H65         2.8506   54.2814   25.7145 H         1 UNK         0.0000 
     66 H66         3.3843   54.0726   23.3206 H         1 UNK         0.0000 
     67 H67         4.9966   54.3972   29.6641 H         1 UNK         0.0000 
     68 H68         6.3000   54.8948   28.5958 H         1 UNK         0.0000 
     69 H69         5.8534   53.1872   28.7064 H         1 UNK         0.0000 
     70 H70         1.6130   47.9469   17.1524 H         1 UNK         0.0000 
@<TRIPOS>BOND
     1    1    2 1    
     2    1   40 1    
     3    1   41 1    
     4    1   42 1    
     5    2    6 1    
     6    2    3 2    
     7    3    4 1    
     8    3   43 1    
     9    4    5 2    
    10    4   11 1    
    11    5    6 1    
    12    5    7 1    
    13    7    8 1    
    14    7    9 1    
    15    7   10 1    
    16   11   12 2    
    17   11   13 am   BACKBONE|DICT|INTERRES
    18   13   18 1    
    19   13   14 1    
    20   14   15 1    
    21   14   44 1    
    22   14   45 1    
    23   15   16 1    
    24   15   17 1    
    25   15   24 1    
    26   17   23 1    
    27   17   18 1    
    28   17   19 1    
    29   18   46 1    
    30   18   47 1    
    31   19   20 1    
    32   19   48 1    
    33   19   49 1    
    34   20   21 1    
    35   20   50 1    
    36   20   51 1    
    37   21   22 1    
    38   21   52 1    
    39   21   70 1    
    40   22   23 1    
    41   22   53 1    
    42   22   54 1    
    43   23   55 1    
    44   23   56 1    
    45   24   25 2    
    46   24   26 am   BACKBONE|DICT|INTERRES
    47   26   27 1    
    48   26   57 1    
    49   27   28 1    
    50   27   58 1    
    51   27   59 1    
    52   28   29 1    
    53   28   30 1    
    54   28   31 1    
    55   30   60 1    
    56   30   61 1    
    57   30   62 1    
    58   31   32 1    
    59   32   37 ar   
    60   32   33 ar   
    61   33   34 ar   
    62   33   63 1    
    63   34   35 ar   
    64   34   64 1    
    65   35   36 ar   
    66   35   38 1    
    67   36   37 ar   
    68   36   65 1    
    69   37   66 1    
    70   38   39 1    
    71   39   67 1    
    72   39   68 1    
    73   39   69 1    
@<TRIPOS>SUBSTRUCTURE
     1 UNK         1 GROUP             0       ****    0 ROOT    
