ZINC20570674_5040
                    3D
 Schrodinger Suite 2024-2.
 53 56  0  0  1  0            999 V2000
   -2.0141   57.1856   16.6263 C   0  0  0  0  0  0
   -1.5519   55.7646   16.8941 C   0  0  0  0  0  0
   -2.4884   54.7331   17.0132 C   0  0  0  0  0  0
   -2.0592   53.4387   17.2893 C   0  0  0  0  0  0
   -0.6943   53.1697   17.4244 C   0  0  0  0  0  0
    0.2413   54.1961   17.2818 C   0  0  0  0  0  0
   -0.1888   55.4950   17.0234 C   0  0  0  0  0  0
   -0.1372   51.4985   17.7555 S   0  0  0  0  0  0
    1.1149   51.2951   17.0232 O   0  0  0  0  0  0
   -1.2879   50.6128   17.5361 O   0  0  0  0  0  0
    0.1971   51.4072   19.5027 N   0  0  0  0  0  0
    1.3094   51.9565   20.1610 C   0  0  0  0  0  0
    2.5936   51.9830   19.6041 C   0  0  0  0  0  0
    3.6643   52.4994   20.3330 C   0  0  0  0  0  0
    3.4720   52.9715   21.6322 C   0  0  0  0  0  0
    2.1972   52.9320   22.2253 C   0  0  0  0  0  0
    1.1271   52.4226   21.4671 C   0  0  0  0  0  0
    1.9525   53.3914   23.6499 C   0  0  0  0  0  0
    0.8144   53.6978   24.0118 O   0  0  0  0  0  0
    3.0440   53.4597   24.4425 N   0  0  0  0  0  0
    3.1181   53.6952   25.8183 C   0  0  0  0  0  0
    2.1571   53.2832   26.8244 C   0  0  0  0  0  0
    0.9771   52.5074   26.7286 C   0  0  0  0  0  0
    0.2102   52.2341   27.8595 C   0  0  0  0  0  0
    0.5881   52.7075   29.1063 C   0  0  0  0  0  0
    1.7574   53.4428   29.2664 C   0  0  0  0  0  0
    2.5430   53.7005   28.1337 C   0  0  0  0  0  0
    4.0992   54.4949   28.1318 S   0  0  0  0  0  0
    4.2588   54.2829   26.3949 C   0  0  0  0  0  0
    5.5398   54.7310   25.8029 C   0  0  0  0  0  0
    6.4895   55.1695   26.4618 O   0  0  0  0  0  0
    5.5470   54.5953   24.4551 O   0  0  0  0  0  0
    6.7046   54.9193   23.7028 C   0  0  0  0  0  0
   -3.0669   57.3240   16.8832 H   0  0  0  0  0  0
   -1.4415   57.8922   17.2318 H   0  0  0  0  0  0
   -1.8643   57.4436   15.5740 H   0  0  0  0  0  0
   -3.5434   54.9314   16.8830 H   0  0  0  0  0  0
   -2.7861   52.6478   17.3771 H   0  0  0  0  0  0
    1.2987   53.9913   17.3846 H   0  0  0  0  0  0
    0.5372   56.2888   16.9318 H   0  0  0  0  0  0
   -0.6154   51.2263   20.0714 H   0  0  0  0  0  0
    2.7997   51.5855   18.6217 H   0  0  0  0  0  0
    4.6495   52.5094   19.8892 H   0  0  0  0  0  0
    4.3288   53.3656   22.1588 H   0  0  0  0  0  0
    0.1389   52.3740   21.9054 H   0  0  0  0  0  0
    3.9287   53.5463   23.9639 H   0  0  0  0  0  0
    0.6533   52.0935   25.7853 H   0  0  0  0  0  0
   -0.6862   51.6367   27.7692 H   0  0  0  0  0  0
   -0.0230   52.4727   29.9686 H   0  0  0  0  0  0
    2.0611   53.7775   30.2448 H   0  0  0  0  0  0
    6.4795   54.8841   22.6367 H   0  0  0  0  0  0
    7.0727   55.9200   23.9377 H   0  0  0  0  0  0
    7.5020   54.2020   23.9039 H   0  0  0  0  0  0
  1  2  1  0  0  0
  1 34  1  0  0  0
  1 35  1  0  0  0
  1 36  1  0  0  0
  2  7  2  0  0  0
  2  3  1  0  0  0
  3  4  2  0  0  0
  3 37  1  0  0  0
  4  5  1  0  0  0
  4 38  1  0  0  0
  5  6  2  0  0  0
  5  8  1  0  0  0
  6  7  1  0  0  0
  6 39  1  0  0  0
  7 40  1  0  0  0
  8  9  2  0  0  0
  8 10  2  0  0  0
  8 11  1  0  0  0
 11 12  1  0  0  0
 11 41  1  0  0  0
 12 17  2  0  0  0
 12 13  1  0  0  0
 13 14  2  0  0  0
 13 42  1  0  0  0
 14 15  1  0  0  0
 14 43  1  0  0  0
 15 16  2  0  0  0
 15 44  1  0  0  0
 16 17  1  0  0  0
 16 18  1  0  0  0
 17 45  1  0  0  0
 18 19  2  0  0  0
 18 20  1  0  0  0
 20 21  1  0  0  0
 20 46  1  0  0  0
 21 29  2  0  0  0
 21 22  1  0  0  0
 22 27  2  0  0  0
 22 23  1  0  0  0
 23 24  2  0  0  0
 23 47  1  0  0  0
 24 25  1  0  0  0
 24 48  1  0  0  0
 25 26  2  0  0  0
 25 49  1  0  0  0
 26 27  1  0  0  0
 26 50  1  0  0  0
 27 28  1  0  0  0
 28 29  1  0  0  0
 29 30  1  0  0  0
 30 31  2  0  0  0
 30 32  1  0  0  0
 32 33  1  0  0  0
 33 51  1  0  0  0
 33 52  1  0  0  0
 33 53  1  0  0  0
M  END
> <i_i_glide_confnum>
179

> <i_i_glide_lignum>
5041

> <i_i_glide_posenum>
353

> <i_i_glide_rotatable_bonds>
8

> <i_m_Source_File_Index>
2114

> <b_m_subgroup_collapsed>
0

> <r_i_docking_score>
-4.78503

> <r_i_glide_ecoul>
-0.457084

> <r_i_glide_eff_state_penalty>
0

> <r_i_glide_einternal>
6.13226

> <r_i_glide_emodel>
-60.8634

> <r_i_glide_energy>
-47.4582

> <r_i_glide_erotb>
0.614713

> <r_i_glide_esite>
-0.0541286

> <r_i_glide_evdw>
-47.0011

> <r_i_glide_gscore>
-4.78503

> <r_i_glide_hbond>
-0.153935

> <r_i_glide_ligand_efficiency>
-0.145001

> <r_i_glide_ligand_efficiency_ln>
-1.06417

> <r_i_glide_ligand_efficiency_sa>
-0.465095

> <r_i_glide_lipo>
-1.95312

> <r_i_glide_metal>
0

> <r_i_glide_rewards>
-0.819938

> <s_i_glide_gridfile>
wee1_glide-grid

> <s_m_Source_File>
wee1_decoys_glide_SP.sdf

> <s_m_Source_Path>
/Users/zhangxujun/Desktop

> <s_m_entry_id>
2389

> <s_m_entry_name>
wee1_decoys_glide_SP.2114

> <s_m_subgroup_title>
wee1_decoys_glide_SP

> <s_m_subgroupid>
wee1_decoys_glide_SP


$$$$
