ZINC12906964_2450
                    3D
 Schrodinger Suite 2024-2.
 66 68  0  0  1  0            999 V2000
    4.5464   54.0923   27.7522 C   0  0  0  0  0  0
    4.3769   54.1015   26.2434 C   0  0  0  0  0  0
    3.1073   53.9919   25.6772 C   0  0  0  0  0  0
    2.9379   53.9991   24.2899 C   0  0  0  0  0  0
    4.0633   54.0955   23.4506 C   0  0  0  0  0  0
    5.3500   54.2467   24.0233 C   0  0  0  0  0  0
    5.4863   54.2454   25.4153 C   0  0  0  0  0  0
    6.6092   54.4768   23.1948 C   0  0  0  0  0  0
    3.8546   54.1000   22.0570 N   0  0  0  0  0  0
    4.4124   53.2573   21.1675 C   0  0  0  0  0  0
    5.1041   52.2838   21.4852 O   0  0  0  0  0  0
    4.0758   53.5253   19.6890 C   0  0  0  0  0  0
    5.2314   53.2537   18.8309 N   0  0  0  0  0  0
    6.2562   54.0985   18.6029 C   0  0  0  0  0  0
    6.3270   55.2093   19.1367 O   0  0  0  0  0  0
    7.3450   53.6119   17.6703 C   0  0  0  0  0  0
    7.1140   52.5782   16.7473 C   0  0  0  0  0  0
    8.1270   52.1389   15.9011 C   0  0  0  0  0  0
    9.3828   52.7414   15.9533 C   0  0  0  0  0  0
    9.6309   53.7678   16.8655 C   0  0  0  0  0  0
    8.6170   54.2013   17.7164 C   0  0  0  0  0  0
   10.6708   52.2050   14.8260 S   0  0  0  0  0  0
    9.9969   51.6655   13.6381 O   0  0  0  0  0  0
   11.6190   53.3199   14.7084 O   0  0  0  0  0  0
   11.4909   50.8842   15.6670 N   0  0  0  0  0  0
   12.3110   51.1406   16.8694 C   0  0  0  0  0  0
   13.7708   50.7165   16.5966 C   0  0  2  0  0  0
   14.1430   51.3149   15.7622 H   0  0  0  0  0  0
   13.7762   49.2289   16.1581 C   0  0  0  0  0  0
   12.8833   48.9832   14.9112 C   0  0  2  0  0  0
   13.2706   49.5954   14.0931 H   0  0  0  0  0  0
   11.4414   49.4758   15.2032 C   0  0  0  0  0  0
   12.9236   47.5079   14.4815 C   0  0  0  0  0  0
   14.6615   50.9530   17.8251 C   0  0  0  0  0  0
    1.5259   53.8712   23.7271 C   0  0  0  0  0  0
    3.6751   54.5273   28.2454 H   0  0  0  0  0  0
    5.4055   54.6937   28.0559 H   0  0  0  0  0  0
    4.6844   53.0718   28.1150 H   0  0  0  0  0  0
    2.2480   53.8944   26.3242 H   0  0  0  0  0  0
    6.4660   54.3515   25.8575 H   0  0  0  0  0  0
    6.3942   55.0390   22.2844 H   0  0  0  0  0  0
    7.3392   55.0710   23.7450 H   0  0  0  0  0  0
    7.0706   53.5275   22.9254 H   0  0  0  0  0  0
    3.1904   54.7758   21.7071 H   0  0  0  0  0  0
    3.2548   52.8739   19.3938 H   0  0  0  0  0  0
    3.7358   54.5525   19.5408 H   0  0  0  0  0  0
    5.3027   52.2995   18.4815 H   0  0  0  0  0  0
    6.1499   52.0967   16.6719 H   0  0  0  0  0  0
    7.9299   51.3402   15.2021 H   0  0  0  0  0  0
   10.6019   54.2391   16.9127 H   0  0  0  0  0  0
    8.8319   54.9977   18.4140 H   0  0  0  0  0  0
   12.2477   52.1973   17.1337 H   0  0  0  0  0  0
   11.8663   50.5688   17.6825 H   0  0  0  0  0  0
   14.7961   48.8881   15.9733 H   0  0  0  0  0  0
   13.4448   48.5950   16.9843 H   0  0  0  0  0  0
   10.9545   48.8963   15.9868 H   0  0  0  0  0  0
   10.8202   49.4068   14.3088 H   0  0  0  0  0  0
   12.7038   46.8354   15.3063 H   0  0  0  0  0  0
   12.2052   47.3054   13.6874 H   0  0  0  0  0  0
   13.9076   47.2396   14.0971 H   0  0  0  0  0  0
   14.3233   50.3623   18.6803 H   0  0  0  0  0  0
   15.6955   50.6747   17.6182 H   0  0  0  0  0  0
   14.6555   52.0026   18.1207 H   0  0  0  0  0  0
    1.2599   54.7655   23.1629 H   0  0  0  0  0  0
    1.4720   53.0251   23.0404 H   0  0  0  0  0  0
    0.7756   53.7162   24.5045 H   0  0  0  0  0  0
  1  2  1  0  0  0
  1 36  1  0  0  0
  1 37  1  0  0  0
  1 38  1  0  0  0
  2  7  2  0  0  0
  2  3  1  0  0  0
  3  4  2  0  0  0
  3 39  1  0  0  0
  4  5  1  0  0  0
  4 35  1  0  0  0
  5  6  2  0  0  0
  5  9  1  0  0  0
  6  7  1  0  0  0
  6  8  1  0  0  0
  7 40  1  0  0  0
  8 41  1  0  0  0
  8 42  1  0  0  0
  8 43  1  0  0  0
  9 10  1  0  0  0
  9 44  1  0  0  0
 10 11  2  0  0  0
 10 12  1  0  0  0
 12 13  1  0  0  0
 12 45  1  0  0  0
 12 46  1  0  0  0
 13 14  1  0  0  0
 13 47  1  0  0  0
 14 15  2  0  0  0
 14 16  1  0  0  0
 16 21  2  0  0  0
 16 17  1  0  0  0
 17 18  2  0  0  0
 17 48  1  0  0  0
 18 19  1  0  0  0
 18 49  1  0  0  0
 19 20  2  0  0  0
 19 22  1  0  0  0
 20 21  1  0  0  0
 20 50  1  0  0  0
 21 51  1  0  0  0
 22 23  2  0  0  0
 22 24  2  0  0  0
 22 25  1  0  0  0
 25 32  1  0  0  0
 25 26  1  0  0  0
 26 27  1  0  0  0
 26 52  1  0  0  0
 26 53  1  0  0  0
 27 28  1  0  0  0
 27 29  1  0  0  0
 27 34  1  0  0  0
 29 30  1  0  0  0
 29 54  1  0  0  0
 29 55  1  0  0  0
 30 31  1  0  0  0
 30 32  1  0  0  0
 30 33  1  0  0  0
 32 56  1  0  0  0
 32 57  1  0  0  0
 33 58  1  0  0  0
 33 59  1  0  0  0
 33 60  1  0  0  0
 34 61  1  0  0  0
 34 62  1  0  0  0
 34 63  1  0  0  0
 35 64  1  0  0  0
 35 65  1  0  0  0
 35 66  1  0  0  0
M  END
> <i_i_glide_confnum>
270

> <i_i_glide_lignum>
2451

> <i_i_glide_posenum>
73

> <i_i_glide_rotatable_bonds>
8

> <i_m_Source_File_Index>
5563

> <b_m_subgroup_collapsed>
0

> <r_i_docking_score>
-5.37837

> <r_i_glide_ecoul>
-5.92006

> <r_i_glide_eff_state_penalty>
0

> <r_i_glide_einternal>
4.37167

> <r_i_glide_emodel>
-59.0595

> <r_i_glide_energy>
-45.9518

> <r_i_glide_erotb>
0.727056

> <r_i_glide_esite>
-0.103901

> <r_i_glide_evdw>
-40.0317

> <r_i_glide_gscore>
-5.37837

> <r_i_glide_hbond>
-0.163574

> <r_i_glide_ligand_efficiency>
-0.162981

> <r_i_glide_ligand_efficiency_ln>
-1.19612

> <r_i_glide_ligand_efficiency_sa>
-0.522767

> <r_i_glide_lipo>
-2.56809

> <r_i_glide_metal>
0

> <r_i_glide_rewards>
-0.380264

> <s_i_glide_gridfile>
wee1_glide-grid

> <s_m_Source_File>
wee1_decoys_glide_SP.sdf

> <s_m_Source_Path>
/Users/zhangxujun/Desktop

> <s_m_entry_id>
5838

> <s_m_entry_name>
wee1_decoys_glide_SP.5563

> <s_m_subgroup_title>
wee1_decoys_glide_SP

> <s_m_subgroupid>
wee1_decoys_glide_SP


$$$$
