@<TRIPOS>MOLECULE
ZINC66185281_3653
50   51    1
SMALL
USER_CHARGES


@<TRIPOS>ATOM
      1 C1         -6.0616   50.8961   26.8239 C.3       1 UNK         0.0000 
      2 C2         -4.6176   51.3055   26.5519 C.ar      1 UNK         0.0000 
      3 C3         -4.3372   51.9554   25.3449 C.ar      1 UNK         0.0000 
      4 C4         -3.0258   52.2705   24.9870 C.ar      1 UNK         0.0000 
      5 C5         -1.9653   51.9206   25.8302 C.ar      1 UNK         0.0000 
      6 C6         -2.2411   51.2959   27.0480 C.ar      1 UNK         0.0000 
      7 C7         -3.5533   50.9936   27.4259 C.ar      1 UNK         0.0000 
      8 N8         -3.6957   50.3300   28.6572 N.am      1 UNK         0.0000 
      9 C9         -4.4932   50.6876   29.6827 C.2       1 UNK         0.0000 
     10 O10        -5.2600   51.6550   29.6842 O.2       1 UNK         0.0000 
     11 C11        -4.3887   49.8176   30.9289 C.3       1 UNK         0.0000 
     12 N12        -0.6195   52.2306   25.5571 N.pl3     1 UNK         0.0000 
     13 C13         0.1262   52.2597   24.3993 C.2       1 UNK         0.0000 
     14 S14        -0.3705   51.6997   22.9094 S.2       1 UNK         0.0000 
     15 N15         1.3990   52.7681   24.4683 N.am      1 UNK         0.0000 
     16 C16         2.0442   53.3930   25.4892 C.2       1 UNK         0.0000 
     17 O17         1.5136   53.6776   26.5673 O.2       1 UNK         0.0000 
     18 C18         3.5035   53.7429   25.2520 C.ar      1 UNK         0.0000 
     19 C19         3.9600   54.0969   23.9696 C.ar      1 UNK         0.0000 
     20 C20         5.2972   54.4345   23.7555 C.ar      1 UNK         0.0000 
     21 C21         6.1953   54.4382   24.8157 C.ar      1 UNK         0.0000 
     22 C22         5.7646   54.0853   26.0899 C.ar      1 UNK         0.0000 
     23 C23         4.4238   53.7294   26.3251 C.ar      1 UNK         0.0000 
     24 O24         3.9607   53.2947   27.5538 O.3       1 UNK         0.0000 
     25 C25         4.7260   53.3600   28.7465 C.3       1 UNK         0.0000 
     26 C26         4.9467   54.8223   29.1577 C.3       1 UNK         0.0000 
     27 C27         3.8863   52.5895   29.7779 C.3       1 UNK         0.0000 
     28 Br28        5.9048   54.8964   22.0107 Br        1 UNK         0.0000 
     29 H29        -6.6194   50.7682   25.8938 H         1 UNK         0.0000 
     30 H30        -6.1030   49.9335   27.3366 H         1 UNK         0.0000 
     31 H31        -6.5734   51.6432   27.4321 H         1 UNK         0.0000 
     32 H32        -5.1385   52.2120   24.6679 H         1 UNK         0.0000 
     33 H33        -2.8488   52.7918   24.0586 H         1 UNK         0.0000 
     34 H34        -1.4261   51.0306   27.7086 H         1 UNK         0.0000 
     35 H35        -3.0052   49.6026   28.8392 H         1 UNK         0.0000 
     36 H36        -4.2800   48.7652   30.6574 H         1 UNK         0.0000 
     37 H37        -5.2774   49.9245   31.5543 H         1 UNK         0.0000 
     38 H38        -3.5164   50.1054   31.5213 H         1 UNK         0.0000 
     39 H39        -0.0851   52.4155   26.3951 H         1 UNK         0.0000 
     40 H40         1.9481   52.6308   23.6335 H         1 UNK         0.0000 
     41 H41         3.2860   54.1249   23.1230 H         1 UNK         0.0000 
     42 H42         7.2303   54.6904   24.6409 H         1 UNK         0.0000 
     43 H43         6.4980   54.0506   26.8795 H         1 UNK         0.0000 
     44 H44         5.6813   52.8465   28.6185 H         1 UNK         0.0000 
     45 H45         5.5058   54.8985   30.0845 H         1 UNK         0.0000 
     46 H46         5.5315   55.3555   28.4138 H         1 UNK         0.0000 
     47 H47         3.9979   55.3459   29.2822 H         1 UNK         0.0000 
     48 H48         4.3046   52.6240   30.7821 H         1 UNK         0.0000 
     49 H49         2.8759   52.9939   29.8378 H         1 UNK         0.0000 
     50 H50         3.7984   51.5428   29.4915 H         1 UNK         0.0000 
@<TRIPOS>BOND
     1    1    2 1    
     2    1   29 1    
     3    1   30 1    
     4    1   31 1    
     5    2    7 ar   
     6    2    3 ar   
     7    3    4 ar   
     8    3   32 1    
     9    4    5 ar   
    10    4   33 1    
    11    5    6 ar   
    12    5   12 1    
    13    6    7 ar   
    14    6   34 1    
    15    7    8 1    
    16    8    9 am   BACKBONE|DICT|INTERRES
    17    8   35 1    
    18    9   10 2    
    19    9   11 1    
    20   11   36 1    
    21   11   37 1    
    22   11   38 1    
    23   12   13 1    
    24   12   39 1    
    25   13   14 2    
    26   13   15 am   BACKBONE|DICT|INTERRES
    27   15   16 am   BACKBONE|DICT|INTERRES
    28   15   40 1    
    29   16   17 2    
    30   16   18 1    
    31   18   23 ar   
    32   18   19 ar   
    33   19   20 ar   
    34   19   41 1    
    35   20   21 ar   
    36   20   28 1    
    37   21   22 ar   
    38   21   42 1    
    39   22   23 ar   
    40   22   43 1    
    41   23   24 1    
    42   24   25 1    
    43   25   26 1    
    44   25   27 1    
    45   25   44 1    
    46   26   45 1    
    47   26   46 1    
    48   26   47 1    
    49   27   48 1    
    50   27   49 1    
    51   27   50 1    
@<TRIPOS>SUBSTRUCTURE
     1 UNK         1 GROUP             0       ****    0 ROOT    
