ZINC34762337_5442
                    3D
 Schrodinger Suite 2024-2.
 74 77  0  0  1  0            999 V2000
    6.5562   54.4278   23.7522 C   0  0  0  0  0  0
    5.3695   55.0944   24.4823 C   0  0  0  0  0  0
    4.8917   54.3698   25.7263 C   0  0  0  0  0  0
    5.6564   54.3761   26.8865 C   0  0  0  0  0  0
    4.8425   53.6983   28.2673 S   0  0  0  0  0  0
    3.4393   53.3809   27.2934 C   0  0  0  0  0  0
    3.6152   53.6971   25.9061 C   0  0  0  0  0  0
    2.4903   53.3490   25.0759 C   0  0  0  0  0  0
    1.3558   52.8492   25.6498 N   0  0  0  0  0  0
    1.3445   52.6124   26.9810 C   0  0  0  0  0  0
    2.3446   52.8653   27.8465 N   0  0  0  0  0  0
   -0.0680   51.8255   27.6931 S   0  0  0  0  0  0
   -1.0288   51.0335   26.3682 C   0  0  0  0  0  0
   -2.3064   51.8045   26.0132 C   0  0  0  0  0  0
   -2.2859   52.5004   24.9962 O   0  0  0  0  0  0
   -3.4105   51.6845   26.7974 N   0  0  0  0  0  0
   -3.4888   50.8664   28.0134 C   0  0  0  0  0  0
   -4.6860   52.3098   26.4408 C   0  0  0  0  0  0
    2.4425   53.4036   23.6719 N   0  0  0  0  0  0
    1.1852   53.5478   22.9059 C   0  0  0  0  0  0
    0.9369   52.4917   21.8044 C   0  0  0  0  0  0
    2.1663   52.4357   20.8722 N   0  3  0  0  0  0
    3.4279   52.1169   21.6900 C   0  0  0  0  0  0
    3.5938   53.1959   22.7784 C   0  0  0  0  0  0
    2.0329   51.5095   19.6220 C   0  0  0  0  0  0
    1.8168   50.0056   19.9063 C   0  0  0  0  0  0
    1.5374   49.5828   21.0268 O   0  0  0  0  0  0
    1.9310   49.1963   18.8398 N   0  0  0  0  0  0
    1.6521   47.7569   18.8242 C   0  0  0  0  0  0
    0.1501   47.4250   19.0545 C   0  0  0  0  0  0
   -0.7524   47.9932   17.9328 C   0  0  0  0  0  0
   -0.3028   47.5027   16.5372 C   0  0  0  0  0  0
    1.2100   47.7020   16.2934 C   0  0  0  0  0  0
    2.0417   47.1318   17.4641 C   0  0  0  0  0  0
    7.0354   54.9462   27.0617 C   0  0  0  0  0  0
    6.6377   54.7985   22.7299 H   0  0  0  0  0  0
    7.5036   54.6516   24.2429 H   0  0  0  0  0  0
    6.4764   53.3424   23.7054 H   0  0  0  0  0  0
    4.5368   55.2958   23.8227 H   0  0  0  0  0  0
    5.6982   56.0962   24.7630 H   0  0  0  0  0  0
   -0.4209   50.9048   25.4745 H   0  0  0  0  0  0
   -1.2833   50.0177   26.6675 H   0  0  0  0  0  0
   -4.1297   49.9997   27.8463 H   0  0  0  0  0  0
   -2.5268   50.4990   28.3695 H   0  0  0  0  0  0
   -3.9256   51.4419   28.8310 H   0  0  0  0  0  0
   -5.0676   52.8966   27.2786 H   0  0  0  0  0  0
   -4.6090   52.9745   25.5799 H   0  0  0  0  0  0
   -5.4277   51.5454   26.2034 H   0  0  0  0  0  0
    1.2780   54.5352   22.4544 H   0  0  0  0  0  0
    0.3113   53.6084   23.5559 H   0  0  0  0  0  0
    0.1059   52.8001   21.1694 H   0  0  0  0  0  0
    0.7434   51.5070   22.2288 H   0  0  0  0  0  0
    3.3299   51.1060   22.0897 H   0  0  0  0  0  0
    4.2655   52.1654   20.9923 H   0  0  0  0  0  0
    4.4647   52.9182   23.3589 H   0  0  0  0  0  0
    3.7786   54.1498   22.2854 H   0  0  0  0  0  0
    2.9451   51.6594   19.0380 H   0  0  0  0  0  0
    1.1830   51.9028   19.0636 H   0  0  0  0  0  0
    2.4115   49.5481   18.0176 H   0  0  0  0  0  0
    2.2400   47.3030   19.6261 H   0  0  0  0  0  0
   -0.1792   47.8106   20.0208 H   0  0  0  0  0  0
    0.0186   46.3432   19.1150 H   0  0  0  0  0  0
   -0.7294   49.0834   17.9605 H   0  0  0  0  0  0
   -1.7935   47.7112   18.1080 H   0  0  0  0  0  0
   -0.8755   48.0096   15.7572 H   0  0  0  0  0  0
   -0.5393   46.4413   16.4406 H   0  0  0  0  0  0
    1.4304   48.7630   16.1610 H   0  0  0  0  0  0
    1.5020   47.2217   15.3589 H   0  0  0  0  0  0
    1.9057   46.0510   17.5023 H   0  0  0  0  0  0
    3.1035   47.2903   17.2783 H   0  0  0  0  0  0
    7.0526   55.9869   26.7508 H   0  0  0  0  0  0
    7.3896   54.8887   28.0817 H   0  0  0  0  0  0
    7.7652   54.4257   26.4585 H   0  0  0  0  0  0
    2.2748   53.3772   20.5066 H   0  0  0  0  0  0
  1  2  1  0  0  0
  1 36  1  0  0  0
  1 37  1  0  0  0
  1 38  1  0  0  0
  2  3  1  0  0  0
  2 39  1  0  0  0
  2 40  1  0  0  0
  3  7  1  0  0  0
  3  4  2  0  0  0
  4  5  1  0  0  0
  4 35  1  0  0  0
  5  6  1  0  0  0
  6 11  2  0  0  0
  6  7  1  0  0  0
  7  8  2  0  0  0
  8  9  1  0  0  0
  8 19  1  0  0  0
  9 10  2  0  0  0
 10 11  1  0  0  0
 10 12  1  0  0  0
 12 13  1  0  0  0
 13 14  1  0  0  0
 13 41  1  0  0  0
 13 42  1  0  0  0
 14 15  2  0  0  0
 14 16  1  0  0  0
 16 17  1  0  0  0
 16 18  1  0  0  0
 17 43  1  0  0  0
 17 44  1  0  0  0
 17 45  1  0  0  0
 18 46  1  0  0  0
 18 47  1  0  0  0
 18 48  1  0  0  0
 19 24  1  0  0  0
 19 20  1  0  0  0
 20 21  1  0  0  0
 20 49  1  0  0  0
 20 50  1  0  0  0
 21 22  1  0  0  0
 21 51  1  0  0  0
 21 52  1  0  0  0
 22 23  1  0  0  0
 22 25  1  0  0  0
 22 74  1  0  0  0
 23 24  1  0  0  0
 23 53  1  0  0  0
 23 54  1  0  0  0
 24 55  1  0  0  0
 24 56  1  0  0  0
 25 26  1  0  0  0
 25 57  1  0  0  0
 25 58  1  0  0  0
 26 27  2  0  0  0
 26 28  1  0  0  0
 28 29  1  0  0  0
 28 59  1  0  0  0
 29 34  1  0  0  0
 29 30  1  0  0  0
 29 60  1  0  0  0
 30 31  1  0  0  0
 30 61  1  0  0  0
 30 62  1  0  0  0
 31 32  1  0  0  0
 31 63  1  0  0  0
 31 64  1  0  0  0
 32 33  1  0  0  0
 32 65  1  0  0  0
 32 66  1  0  0  0
 33 34  1  0  0  0
 33 67  1  0  0  0
 33 68  1  0  0  0
 34 69  1  0  0  0
 34 70  1  0  0  0
 35 71  1  0  0  0
 35 72  1  0  0  0
 35 73  1  0  0  0
M  CHG  1  22   1
M  END
> <i_i_glide_confnum>
66

> <i_i_glide_lignum>
5443

> <i_i_glide_posenum>
260

> <i_i_glide_rotatable_bonds>
10

> <i_m_Source_File_Index>
5765

> <b_m_subgroup_collapsed>
0

> <r_i_docking_score>
-5.26695

> <r_i_glide_ecoul>
-4.45435

> <r_i_glide_eff_state_penalty>
0

> <r_i_glide_einternal>
11.386

> <r_i_glide_emodel>
-58.9258

> <r_i_glide_energy>
-46.7911

> <r_i_glide_erotb>
0.532422

> <r_i_glide_esite>
-0.175852

> <r_i_glide_evdw>
-42.3368

> <r_i_glide_gscore>
-5.26695

> <r_i_glide_hbond>
-0.0542131

> <r_i_glide_ligand_efficiency>
-0.150484

> <r_i_glide_ligand_efficiency_ln>
-1.15621

> <r_i_glide_ligand_efficiency_sa>
-0.492244

> <r_i_glide_lipo>
-2.20231

> <r_i_glide_metal>
0

> <r_i_glide_rewards>
-0.582002

> <s_i_glide_gridfile>
wee1_glide-grid

> <s_m_Source_File>
wee1_decoys_glide_SP.sdf

> <s_m_Source_Path>
/Users/zhangxujun/Desktop

> <s_m_entry_id>
6040

> <s_m_entry_name>
wee1_decoys_glide_SP.5765

> <s_m_subgroup_title>
wee1_decoys_glide_SP

> <s_m_subgroupid>
wee1_decoys_glide_SP


$$$$
