@<TRIPOS>MOLECULE
ZINC00649125_4051
51   54    1
SMALL
USER_CHARGES


@<TRIPOS>ATOM
      1 C1          4.2238   53.6971   23.3430 C.3       1 UNK         0.0000 
      2 C2          5.0765   54.3166   24.4314 C.ar      1 UNK         0.0000 
      3 C3          4.9165   54.3775   25.8160 C.ar      1 UNK         0.0000 
      4 C4          6.0407   55.1128   26.2304 C.ar      1 UNK         0.0000 
      5 N5          6.8367   55.4604   25.2548 N.2       1 UNK         0.0000 
      6 N6          6.2497   54.9819   24.1598 N.pl3     1 UNK         0.0000 
      7 C7          6.9016   55.1795   22.8733 C.3       1 UNK         0.0000 
      8 C8          3.7686   53.7666   26.6206 C.3       1 UNK         0.0000 
      9 N9          4.0120   53.2915   28.0070 N.am      1 UNK         0.0000 
     10 C10         5.4073   53.1636   28.4572 C.3       1 UNK         0.0000 
     11 C11         3.0305   52.9058   28.8851 C.2       1 UNK         0.0000 
     12 O12         3.2725   52.7712   30.0902 O.2       1 UNK         0.0000 
     13 C13         1.6914   52.5415   28.4033 C.ar      1 UNK         0.0000 
     14 C14         0.5656   52.3117   29.2362 C.ar      1 UNK         0.0000 
     15 C15        -0.4126   51.8042   28.4034 C.ar      1 UNK         0.0000 
     16 N16         0.1243   51.7778   27.1345 N.pl3     1 UNK         0.0000 
     17 N17         1.3660   52.2795   27.1483 N.2       1 UNK         0.0000 
     18 C18        -0.6074   51.4704   25.8859 C.3       1 UNK         0.0000 
     19 H19        -0.8715   52.4321   25.4435 H         1 UNK         0.0000 
     20 C20        -1.9352   50.7608   26.2782 C.3       1 UNK         0.0000 
     21 C21        -2.5968   51.4363   27.4991 C.3       1 UNK         0.0000 
     22 H22        -2.6963   52.4985   27.2808 H         1 UNK         0.0000 
     23 N23        -1.6762   51.2968   28.6280 N.pl3     1 UNK         0.0000 
     24 C24        -3.9850   50.9117   27.8191 C.2       1 UNK         0.0000 
     25 C25        -4.4206   50.0863   28.8608 C.2       1 UNK         0.0000 
     26 C26        -5.7880   49.8049   28.8471 C.2       1 UNK         0.0000 
     27 C27        -6.4374   50.4059   27.7853 C.2       1 UNK         0.0000 
     28 S28        -5.3431   51.3185   26.8034 S.3       1 UNK         0.0000 
     29 C29         0.2107   50.7030   24.8181 C.3       1 UNK         0.0000 
     30 F30         1.2248   51.4318   24.3507 F         1 UNK         0.0000 
     31 F31         0.7041   49.5600   25.2957 F         1 UNK         0.0000 
     32 F32        -0.5527   50.3905   23.7702 F         1 UNK         0.0000 
     33 Br33        0.3857   52.5583   31.1204 Br        1 UNK         0.0000 
     34 H34         3.3377   53.2057   23.7439 H         1 UNK         0.0000 
     35 H35         3.8706   54.4466   22.6336 H         1 UNK         0.0000 
     36 H36         4.7766   52.9492   22.7736 H         1 UNK         0.0000 
     37 H37         6.2864   55.3893   27.2434 H         1 UNK         0.0000 
     38 H38         6.1552   55.2603   22.0837 H         1 UNK         0.0000 
     39 H39         7.5016   56.0918   22.8848 H         1 UNK         0.0000 
     40 H40         7.5494   54.3274   22.6725 H         1 UNK         0.0000 
     41 H41         2.9244   54.4574   26.6311 H         1 UNK         0.0000 
     42 H42         3.4427   52.8974   26.0531 H         1 UNK         0.0000 
     43 H43         5.5037   52.4706   29.2907 H         1 UNK         0.0000 
     44 H44         6.0413   52.7715   27.6617 H         1 UNK         0.0000 
     45 H45         5.7989   54.1218   28.7945 H         1 UNK         0.0000 
     46 H46        -2.6132   50.7595   25.4240 H         1 UNK         0.0000 
     47 H47        -1.7514   49.7021   26.4817 H         1 UNK         0.0000 
     48 H48        -1.7254   50.3526   29.0015 H         1 UNK         0.0000 
     49 H49        -3.7514   49.6983   29.6162 H         1 UNK         0.0000 
     50 H50        -6.2781   49.1846   29.5835 H         1 UNK         0.0000 
     51 H51        -7.4862   50.3544   27.5334 H         1 UNK         0.0000 
@<TRIPOS>BOND
     1    1    2 1    
     2    1   34 1    
     3    1   35 1    
     4    1   36 1    
     5    2    6 ar   
     6    2    3 ar   
     7    3    4 ar   
     8    3    8 1    
     9    4    5 ar   
    10    4   37 1    
    11    5    6 ar   
    12    6    7 1    
    13    7   38 1    
    14    7   39 1    
    15    7   40 1    
    16    8    9 1    
    17    8   41 1    
    18    8   42 1    
    19    9   10 1    
    20    9   11 am   BACKBONE|DICT|INTERRES
    21   10   43 1    
    22   10   44 1    
    23   10   45 1    
    24   11   12 2    
    25   11   13 1    
    26   13   17 ar   
    27   13   14 ar   
    28   14   15 ar   
    29   14   33 1    
    30   15   23 1    
    31   15   16 ar   
    32   16   17 ar   
    33   16   18 1    
    34   18   19 1    
    35   18   20 1    
    36   18   29 1    
    37   20   21 1    
    38   20   46 1    
    39   20   47 1    
    40   21   22 1    
    41   21   23 1    
    42   21   24 1    
    43   23   48 1    
    44   24   28 1    
    45   24   25 2    
    46   25   26 1    
    47   25   49 1    
    48   26   27 2    
    49   26   50 1    
    50   27   28 1    
    51   27   51 1    
    52   29   30 1    
    53   29   31 1    
    54   29   32 1    
@<TRIPOS>SUBSTRUCTURE
     1 UNK         1 GROUP             0       ****    0 ROOT    
