@<TRIPOS>MOLECULE
ZINC64921775_3242
68   71    1
SMALL
USER_CHARGES


@<TRIPOS>ATOM
      1 C1          6.6666   54.1260   27.0013 C.3       1 UNK         0.0000 
      2 C2          5.5787   53.4906   27.8748 C.3       1 UNK         0.0000 
      3 C3          4.2693   54.3074   27.9366 C.3       1 UNK         0.0000 
      4 H4          4.4960   55.2837   28.3707 H         1 UNK         0.0000 
      5 C5          3.3050   53.5905   28.9385 C.2       1 UNK         0.0000 
      6 O6          3.5011   53.5241   30.1503 O.2       1 UNK         0.0000 
      7 N7          2.2391   53.0201   28.3580 N.am      1 UNK         0.0000 
      8 C8          1.9101   53.0437   27.0113 C.ar      1 UNK         0.0000 
      9 C9          0.7802   52.3777   26.5338 C.ar      1 UNK         0.0000 
     10 C10         0.4191   52.4958   25.1848 C.ar      1 UNK         0.0000 
     11 C11         1.2102   53.2601   24.3173 C.ar      1 UNK         0.0000 
     12 C12         2.3664   53.8839   24.7855 C.ar      1 UNK         0.0000 
     13 C13         2.7028   53.7827   26.1340 C.ar      1 UNK         0.0000 
     14 O14         3.7733   54.5237   26.5869 O.3       1 UNK         0.0000 
     15 S15        -1.0979   51.7438   24.5969 S.o2      1 UNK         0.0000 
     16 O16        -1.8742   52.8048   23.9393 O.2       1 UNK         0.0000 
     17 O17        -1.6788   51.0065   25.7258 O.2       1 UNK         0.0000 
     18 N18        -0.6474   50.5420   23.3696 N.pl3     1 UNK         0.0000 
     19 C19         0.4763   49.6100   23.5813 C.3       1 UNK         0.0000 
     20 C20         1.7197   50.0968   22.7987 C.3       1 UNK         0.0000 
     21 C21         1.3925   50.4973   21.3161 C.3       1 UNK         0.0000 
     22 C22         0.0552   51.2954   21.1356 C.3       1 UNK         0.0000 
     23 C23        -1.0816   50.6896   21.9691 C.3       1 UNK         0.0000 
     24 C24         2.6006   51.2101   20.6546 C.2       1 UNK         0.0000 
     25 O25         3.7488   50.8967   20.9675 O.2       1 UNK         0.0000 
     26 N26         2.3421   52.1375   19.7137 N.am      1 UNK         0.0000 
     27 C27         3.3256   52.8363   18.8822 C.3       1 UNK         0.0000 
     28 C28         2.5856   53.5073   17.6969 C.3       1 UNK         0.0000 
     29 C29         3.4317   54.1437   16.5719 C.3       1 UNK         0.0000 
     30 C30         4.6337   53.3059   16.0768 C.3       1 UNK         0.0000 
     31 C31         6.0128   53.7661   16.5980 C.3       1 UNK         0.0000 
     32 C32         6.2846   53.6010   18.1090 C.3       1 UNK         0.0000 
     33 C33         5.4183   54.4859   19.0345 C.3       1 UNK         0.0000 
     34 C34         4.2459   53.7633   19.7321 C.3       1 UNK         0.0000 
     35 H35         7.5076   53.4420   26.9172 H         1 UNK         0.0000 
     36 H36         6.3086   54.3260   25.9903 H         1 UNK         0.0000 
     37 H37         7.0261   55.0626   27.4299 H         1 UNK         0.0000 
     38 H38         5.9872   53.3382   28.8783 H         1 UNK         0.0000 
     39 H39         5.3631   52.5016   27.4711 H         1 UNK         0.0000 
     40 H40         1.6320   52.5347   29.0021 H         1 UNK         0.0000 
     41 H41         0.1636   51.8079   27.2162 H         1 UNK         0.0000 
     42 H42         0.9314   53.3757   23.2832 H         1 UNK         0.0000 
     43 H43         2.9715   54.4812   24.1197 H         1 UNK         0.0000 
     44 H44         0.1686   48.6184   23.2489 H         1 UNK         0.0000 
     45 H45         0.6900   49.5443   24.6504 H         1 UNK         0.0000 
     46 H46         2.4605   49.2968   22.8416 H         1 UNK         0.0000 
     47 H47         2.0830   50.9599   23.3526 H         1 UNK         0.0000 
     48 H48         1.3103   49.5501   20.7811 H         1 UNK         0.0000 
     49 H49         0.1573   52.3223   21.4881 H         1 UNK         0.0000 
     50 H50        -0.2786   51.2795   20.0972 H         1 UNK         0.0000 
     51 H51        -1.3573   49.7037   21.5871 H         1 UNK         0.0000 
     52 H52        -1.9787   51.3132   21.9314 H         1 UNK         0.0000 
     53 H53         1.3787   52.3482   19.5105 H         1 UNK         0.0000 
     54 H54         3.9070   52.0299   18.4493 H         1 UNK         0.0000 
     55 H55         1.8905   54.2543   18.0820 H         1 UNK         0.0000 
     56 H56         1.9581   52.7485   17.2247 H         1 UNK         0.0000 
     57 H57         3.7468   55.1487   16.8467 H         1 UNK         0.0000 
     58 H58         2.7647   54.3107   15.7258 H         1 UNK         0.0000 
     59 H59         4.6630   53.3761   14.9888 H         1 UNK         0.0000 
     60 H60         4.4869   52.2436   16.2743 H         1 UNK         0.0000 
     61 H61         6.1741   54.8078   16.3151 H         1 UNK         0.0000 
     62 H62         6.7778   53.2028   16.0602 H         1 UNK         0.0000 
     63 H63         7.3305   53.8601   18.2779 H         1 UNK         0.0000 
     64 H64         6.2115   52.5494   18.3943 H         1 UNK         0.0000 
     65 H65         5.0740   55.3788   18.5166 H         1 UNK         0.0000 
     66 H66         6.0620   54.8791   19.8231 H         1 UNK         0.0000 
     67 H67         4.6924   53.1739   20.5318 H         1 UNK         0.0000 
     68 H68         3.6289   54.5002   20.2451 H         1 UNK         0.0000 
@<TRIPOS>BOND
     1    1    2 1    
     2    1   35 1    
     3    1   36 1    
     4    1   37 1    
     5    2    3 1    
     6    2   38 1    
     7    2   39 1    
     8    3    4 1    
     9    3   14 1    
    10    3    5 1    
    11    5    6 2    
    12    5    7 am   BACKBONE|DICT|INTERRES
    13    7    8 1    
    14    7   40 1    
    15    8   13 ar   
    16    8    9 ar   
    17    9   10 ar   
    18    9   41 1    
    19   10   11 ar   
    20   10   15 1    
    21   11   12 ar   
    22   11   42 1    
    23   12   13 ar   
    24   12   43 1    
    25   13   14 1    
    26   15   16 2    
    27   15   17 2    
    28   15   18 1    
    29   18   23 1    
    30   18   19 1    
    31   19   20 1    
    32   19   44 1    
    33   19   45 1    
    34   20   21 1    
    35   20   46 1    
    36   20   47 1    
    37   21   22 1    
    38   21   24 1    
    39   21   48 1    
    40   22   23 1    
    41   22   49 1    
    42   22   50 1    
    43   23   51 1    
    44   23   52 1    
    45   24   25 2    
    46   24   26 am   BACKBONE|DICT|INTERRES
    47   26   27 1    
    48   26   53 1    
    49   27   34 1    
    50   27   28 1    
    51   27   54 1    
    52   28   29 1    
    53   28   55 1    
    54   28   56 1    
    55   29   30 1    
    56   29   57 1    
    57   29   58 1    
    58   30   31 1    
    59   30   59 1    
    60   30   60 1    
    61   31   32 1    
    62   31   61 1    
    63   31   62 1    
    64   32   33 1    
    65   32   63 1    
    66   32   64 1    
    67   33   34 1    
    68   33   65 1    
    69   33   66 1    
    70   34   67 1    
    71   34   68 1    
@<TRIPOS>SUBSTRUCTURE
     1 UNK         1 GROUP             0       ****    0 ROOT    
