ZINC35338802_2770
                    3D
 Schrodinger Suite 2024-2.
 49 52  0  0  1  0            999 V2000
    8.6596   55.8005   19.2755 C   0  0  0  0  0  0
    8.3020   55.6968   20.6177 C   0  0  0  0  0  0
    7.0011   55.3350   20.9781 C   0  0  0  0  0  0
    6.0432   55.1074   19.9759 C   0  0  0  0  0  0
    6.3977   55.2308   18.6281 C   0  0  0  0  0  0
    7.7103   55.5669   18.2831 C   0  0  0  0  0  0
    5.1861   54.9897   17.3279 S   0  0  0  0  0  0
    5.9449   54.2510   16.3129 O   0  0  0  0  0  0
    4.0935   54.2535   17.9772 O   0  0  0  0  0  0
    4.9398   56.7075   17.0243 N   0  0  0  0  0  0
    3.7841   57.0756   16.6539 C   0  0  0  0  0  0
    2.6502   56.3055   16.4497 N   0  0  0  0  0  0
    1.4276   57.0658   16.2927 C   0  0  0  0  0  0
    1.9988   58.3099   15.6376 C   0  0  0  0  0  0
    3.3480   58.4964   16.3335 C   0  0  0  0  0  0
    6.7048   55.2839   22.3467 N   0  0  0  0  0  0
    5.8063   54.4967   22.9734 C   0  0  0  0  0  0
    5.2031   53.5711   22.4312 O   0  0  0  0  0  0
    5.5520   54.8609   24.4558 C   0  0  1  0  0  0
    5.5144   55.9498   24.4856 H   0  0  0  0  0  0
    4.2111   54.2983   24.9874 C   0  0  0  0  0  0
    4.1864   54.3129   26.5110 C   0  0  0  0  0  0
    3.0033   54.0963   27.2272 C   0  0  0  0  0  0
    3.0046   54.0569   28.6223 C   0  0  0  0  0  0
    4.1992   54.2218   29.3187 C   0  0  0  0  0  0
    5.3835   54.4478   28.6276 C   0  0  0  0  0  0
    5.3799   54.4968   27.2378 C   0  0  0  0  0  0
    6.5870   54.8233   26.6497 O   0  0  0  0  0  0
    6.7358   54.3789   25.3048 C   0  0  0  0  0  0
    1.5321   53.8028   29.4848 Cl  0  0  0  0  0  0
    9.6714   56.0664   19.0028 H   0  0  0  0  0  0
    9.0513   55.8865   21.3735 H   0  0  0  0  0  0
    5.0246   54.8583   20.2366 H   0  0  0  0  0  0
    7.9909   55.6580   17.2427 H   0  0  0  0  0  0
    0.6998   56.5321   15.6785 H   0  0  0  0  0  0
    1.0201   57.2821   17.2817 H   0  0  0  0  0  0
    1.3334   59.1664   15.7445 H   0  0  0  0  0  0
    2.1385   58.1495   14.5668 H   0  0  0  0  0  0
    3.2405   59.0714   17.2531 H   0  0  0  0  0  0
    4.0673   59.0114   15.6975 H   0  0  0  0  0  0
    7.2979   55.8520   22.9334 H   0  0  0  0  0  0
    4.0107   53.2895   24.6363 H   0  0  0  0  0  0
    3.3881   54.9292   24.6474 H   0  0  0  0  0  0
    2.0725   53.9476   26.6957 H   0  0  0  0  0  0
    4.2124   54.1860   30.3971 H   0  0  0  0  0  0
    6.3042   54.5920   29.1718 H   0  0  0  0  0  0
    7.6821   54.7729   24.9362 H   0  0  0  0  0  0
    6.7896   53.2960   25.3141 H   0  0  0  0  0  0
    2.4981   55.3491   16.7465 H   0  0  0  0  0  0
  1  6  2  0  0  0
  1  2  1  0  0  0
  1 31  1  0  0  0
  2  3  2  0  0  0
  2 32  1  0  0  0
  3  4  1  0  0  0
  3 16  1  0  0  0
  4  5  2  0  0  0
  4 33  1  0  0  0
  5  6  1  0  0  0
  5  7  1  0  0  0
  6 34  1  0  0  0
  7  8  2  0  0  0
  7  9  2  0  0  0
  7 10  1  0  0  0
 10 11  2  0  0  0
 11 15  1  0  0  0
 11 12  1  0  0  0
 12 13  1  0  0  0
 12 49  1  0  0  0
 13 14  1  0  0  0
 13 35  1  0  0  0
 13 36  1  0  0  0
 14 15  1  0  0  0
 14 37  1  0  0  0
 14 38  1  0  0  0
 15 39  1  0  0  0
 15 40  1  0  0  0
 16 17  1  0  0  0
 16 41  1  0  0  0
 17 18  2  0  0  0
 17 19  1  0  0  0
 19 20  1  0  0  0
 19 29  1  0  0  0
 19 21  1  0  0  0
 21 22  1  0  0  0
 21 42  1  0  0  0
 21 43  1  0  0  0
 22 27  2  0  0  0
 22 23  1  0  0  0
 23 24  2  0  0  0
 23 44  1  0  0  0
 24 25  1  0  0  0
 24 30  1  0  0  0
 25 26  2  0  0  0
 25 45  1  0  0  0
 26 27  1  0  0  0
 26 46  1  0  0  0
 27 28  1  0  0  0
 28 29  1  0  0  0
 29 47  1  0  0  0
 29 48  1  0  0  0
M  END
> <i_i_glide_confnum>
19

> <i_i_glide_lignum>
2771

> <i_i_glide_posenum>
357

> <i_i_glide_rotatable_bonds>
5

> <i_m_Source_File_Index>
5035

> <b_m_subgroup_collapsed>
0

> <r_i_docking_score>
-5.84223

> <r_i_glide_ecoul>
-2.45303

> <r_i_glide_eff_state_penalty>
0

> <r_i_glide_einternal>
6.33888

> <r_i_glide_emodel>
-61.5564

> <r_i_glide_energy>
-47.18

> <r_i_glide_erotb>
0.528774

> <r_i_glide_esite>
-0.0129089

> <r_i_glide_evdw>
-44.727

> <r_i_glide_gscore>
-5.84223

> <r_i_glide_hbond>
-0.106849

> <r_i_glide_ligand_efficiency>
-0.201456

> <r_i_glide_ligand_efficiency_ln>
-1.33772

> <r_i_glide_ligand_efficiency_sa>
-0.618937

> <r_i_glide_lipo>
-2.87844

> <r_i_glide_metal>
0

> <r_i_glide_rewards>
-0.768501

> <s_i_glide_gridfile>
wee1_glide-grid

> <s_m_Source_File>
wee1_decoys_glide_SP.sdf

> <s_m_Source_Path>
/Users/zhangxujun/Desktop

> <s_m_entry_id>
5310

> <s_m_entry_name>
wee1_decoys_glide_SP.5035

> <s_m_subgroup_title>
wee1_decoys_glide_SP

> <s_m_subgroupid>
wee1_decoys_glide_SP


$$$$
