@<TRIPOS>MOLECULE
ZINC33780517_5619
69   73    1
SMALL
USER_CHARGES


@<TRIPOS>ATOM
      1 C1          6.4101   53.4314   27.9439 C.3       1 UNK         0.0000 
      2 C2          4.9689   54.0031   28.0154 C.3       1 UNK         0.0000 
      3 C3          5.0082   55.0767   29.1169 C.3       1 UNK         0.0000 
      4 C4          4.7331   54.6949   26.6468 C.3       1 UNK         0.0000 
      5 C5          3.9326   52.8969   28.4791 C.2       1 UNK         0.0000 
      6 O6          4.3122   52.1694   29.4042 O.2       1 UNK         0.0000 
      7 N7          2.6148   52.8553   28.0942 N.am      1 UNK         0.0000 
      8 C8          2.0505   53.5433   26.9225 C.3       1 UNK         0.0000 
      9 C9          0.7445   52.8967   26.3993 C.3       1 UNK         0.0000 
     10 N10         0.7009   51.4312   26.4887 N.pl3     1 UNK         0.0000 
     11 C11         1.0526   50.9596   27.8408 C.3       1 UNK         0.0000 
     12 C12         1.6616   51.9947   28.8198 C.3       1 UNK         0.0000 
     13 C13         0.0372   50.6025   25.5729 C.ar      1 UNK         0.0000 
     14 C14         0.1285   49.2076   25.6812 C.ar      1 UNK         0.0000 
     15 C15        -0.4729   48.3630   24.7524 C.ar      1 UNK         0.0000 
     16 C16        -1.1846   48.9022   23.6749 C.ar      1 UNK         0.0000 
     17 C17        -1.2847   50.2864   23.5496 C.ar      1 UNK         0.0000 
     18 C18        -0.6886   51.1231   24.4893 C.ar      1 UNK         0.0000 
     19 N19        -1.7790   48.1338   22.6567 N.am      1 UNK         0.0000 
     20 C20        -2.1589   46.8378   22.6818 C.2       1 UNK         0.0000 
     21 O21        -2.0970   46.1070   23.6721 O.2       1 UNK         0.0000 
     22 C22        -2.7398   46.3107   21.3615 C.3       1 UNK         0.0000 
     23 S23        -2.9313   44.4962   21.2820 S.3       1 UNK         0.0000 
     24 C24        -1.4513   44.1153   20.4148 C.2       1 UNK         0.0000 
     25 N25        -0.4956   43.2965   20.7746 N.2       1 UNK         0.0000 
     26 N26         0.3547   43.1959   19.6800 N.2       1 UNK         0.0000 
     27 C27        -0.1618   43.9600   18.7442 C.2       1 UNK         0.0000 
     28 O28        -1.3086   44.5705   19.1469 O.3       1 UNK         0.0000 
     29 C29         0.3044   44.1416   17.3387 C.ar      1 UNK         0.0000 
     30 C30         1.2696   43.2873   16.8025 C.ar      1 UNK         0.0000 
     31 C31         1.6798   43.4071   15.4772 C.ar      1 UNK         0.0000 
     32 C32         1.1253   44.4099   14.6470 C.ar      1 UNK         0.0000 
     33 C33         1.5044   44.5475   13.2887 C.ar      1 UNK         0.0000 
     34 C34         0.9535   45.5567   12.5036 C.ar      1 UNK         0.0000 
     35 C35         0.0190   46.4372   13.0372 C.ar      1 UNK         0.0000 
     36 C36        -0.3856   46.3209   14.3659 C.ar      1 UNK         0.0000 
     37 C37         0.1543   45.3039   15.1916 C.ar      1 UNK         0.0000 
     38 C38        -0.2460   45.1483   16.5414 C.ar      1 UNK         0.0000 
     39 H39         7.1001   54.1105   27.4395 H         1 UNK         0.0000 
     40 H40         6.4494   52.4966   27.3985 H         1 UNK         0.0000 
     41 H41         6.8430   53.2966   28.9320 H         1 UNK         0.0000 
     42 H42         4.1092   55.6967   29.1166 H         1 UNK         0.0000 
     43 H43         5.0831   54.6469   30.1120 H         1 UNK         0.0000 
     44 H44         5.9007   55.6963   28.9908 H         1 UNK         0.0000 
     45 H45         3.8301   55.2964   26.6227 H         1 UNK         0.0000 
     46 H46         5.5385   55.3917   26.4117 H         1 UNK         0.0000 
     47 H47         4.7129   53.9781   25.8253 H         1 UNK         0.0000 
     48 H48         1.8886   54.6026   27.1097 H         1 UNK         0.0000 
     49 H49         2.7350   53.3894   26.0934 H         1 UNK         0.0000 
     50 H50         0.5774   53.2485   25.3855 H         1 UNK         0.0000 
     51 H51        -0.0840   53.2456   27.0189 H         1 UNK         0.0000 
     52 H52         1.8399   50.2217   27.6813 H         1 UNK         0.0000 
     53 H53         0.1738   50.5061   28.3004 H         1 UNK         0.0000 
     54 H54         2.0655   51.5023   29.7055 H         1 UNK         0.0000 
     55 H55         0.8596   52.6399   29.1818 H         1 UNK         0.0000 
     56 H56         0.6790   48.7432   26.4841 H         1 UNK         0.0000 
     57 H57        -0.3518   47.2986   24.8820 H         1 UNK         0.0000 
     58 H58        -1.8241   50.7306   22.7250 H         1 UNK         0.0000 
     59 H59        -0.8071   52.1838   24.3463 H         1 UNK         0.0000 
     60 H60        -1.9889   48.6490   21.8170 H         1 UNK         0.0000 
     61 H61        -3.7352   46.7422   21.2553 H         1 UNK         0.0000 
     62 H62        -2.1533   46.6704   20.5156 H         1 UNK         0.0000 
     63 H63         1.7028   42.5067   17.4115 H         1 UNK         0.0000 
     64 H64         2.4181   42.7272   15.0744 H         1 UNK         0.0000 
     65 H65         2.2310   43.8670   12.8650 H         1 UNK         0.0000 
     66 H66         1.2534   45.6560   11.4705 H         1 UNK         0.0000 
     67 H67        -0.3984   47.2163   12.4163 H         1 UNK         0.0000 
     68 H68        -1.1166   47.0062   14.7711 H         1 UNK         0.0000 
     69 H69        -0.9869   45.8247   16.9450 H         1 UNK         0.0000 
@<TRIPOS>BOND
     1    1    2 1    
     2    1   39 1    
     3    1   40 1    
     4    1   41 1    
     5    2    3 1    
     6    2    4 1    
     7    2    5 1    
     8    3   42 1    
     9    3   43 1    
    10    3   44 1    
    11    4   45 1    
    12    4   46 1    
    13    4   47 1    
    14    5    6 2    
    15    5    7 am   BACKBONE|DICT|INTERRES
    16    7   12 1    
    17    7    8 1    
    18    8    9 1    
    19    8   48 1    
    20    8   49 1    
    21    9   10 1    
    22    9   50 1    
    23    9   51 1    
    24   10   11 1    
    25   10   13 1    
    26   11   12 1    
    27   11   52 1    
    28   11   53 1    
    29   12   54 1    
    30   12   55 1    
    31   13   18 ar   
    32   13   14 ar   
    33   14   15 ar   
    34   14   56 1    
    35   15   16 ar   
    36   15   57 1    
    37   16   17 ar   
    38   16   19 1    
    39   17   18 ar   
    40   17   58 1    
    41   18   59 1    
    42   19   20 am   BACKBONE|DICT|INTERRES
    43   19   60 1    
    44   20   21 2    
    45   20   22 1    
    46   22   23 1    
    47   22   61 1    
    48   22   62 1    
    49   23   24 1    
    50   24   28 1    
    51   24   25 2    
    52   25   26 1    
    53   26   27 2    
    54   27   28 1    
    55   27   29 1    
    56   29   38 ar   
    57   29   30 ar   
    58   30   31 ar   
    59   30   63 1    
    60   31   32 ar   
    61   31   64 1    
    62   32   37 ar   
    63   32   33 ar   
    64   33   34 ar   
    65   33   65 1    
    66   34   35 ar   
    67   34   66 1    
    68   35   36 ar   
    69   35   67 1    
    70   36   37 ar   
    71   36   68 1    
    72   37   38 ar   
    73   38   69 1    
@<TRIPOS>SUBSTRUCTURE
     1 UNK         1 GROUP             0       ****    0 ROOT    
