@<TRIPOS>MOLECULE
ZINC44016887_4583
59   61    1
SMALL
USER_CHARGES


@<TRIPOS>ATOM
      1 C1          4.1455   61.9784   12.4273 C.3       1 UNK         0.0000 
      2 C2          3.1702   61.0842   13.2272 C.3       1 UNK         0.0000 
      3 C3          2.3197   61.9736   14.1580 C.3       1 UNK         0.0000 
      4 C4          2.2118   60.3458   12.2573 C.3       1 UNK         0.0000 
      5 N5          3.9128   60.1503   14.0817 N.am      1 UNK         0.0000 
      6 C6          4.6799   59.0956   13.7284 C.2       1 UNK         0.0000 
      7 O7          4.8944   58.7908   12.5534 O.2       1 UNK         0.0000 
      8 C8          5.2781   58.2803   14.8598 C.ar      1 UNK         0.0000 
      9 C9          4.9101   58.4968   16.1972 C.ar      1 UNK         0.0000 
     10 C10         5.4850   57.7525   17.2196 C.ar      1 UNK         0.0000 
     11 C11         6.4466   56.7765   16.9299 C.ar      1 UNK         0.0000 
     12 C12         6.7909   56.5250   15.6012 C.ar      1 UNK         0.0000 
     13 C13         6.2168   57.2746   14.5764 C.ar      1 UNK         0.0000 
     14 N14         7.0737   56.0019   17.9215 N.am      1 UNK         0.0000 
     15 C15         7.3084   56.3578   19.1997 C.2       1 UNK         0.0000 
     16 O16         7.0800   57.4675   19.6816 O.2       1 UNK         0.0000 
     17 N17         7.8082   55.3449   19.9205 N.am      1 UNK         0.0000 
     18 C18         7.9602   55.3706   21.3771 C.3       1 UNK         0.0000 
     19 C19         6.6402   55.4365   22.1744 C.3       1 UNK         0.0000 
     20 H20         6.3045   56.4684   22.1079 H         1 UNK         0.0000 
     21 C21         5.5193   54.4932   21.7458 C.3       1 UNK         0.0000 
     22 C22         4.6641   54.3280   23.0071 C.3       1 UNK         0.0000 
     23 N23         5.4938   54.6440   24.1725 N.pl3     1 UNK         0.0000 
     24 C24         6.7913   55.0692   23.6529 C.3       1 UNK         0.0000 
     25 C25         5.1581   54.4457   25.5223 C.ar      1 UNK         0.0000 
     26 C26         3.8520   54.0968   25.8903 C.ar      1 UNK         0.0000 
     27 C27         3.5208   53.8953   27.2278 C.ar      1 UNK         0.0000 
     28 C28         4.4979   54.0392   28.2091 C.ar      1 UNK         0.0000 
     29 C29         5.8014   54.3809   27.8631 C.ar      1 UNK         0.0000 
     30 C30         6.1272   54.5838   26.5256 C.ar      1 UNK         0.0000 
     31 H31         3.6103   62.7091   11.8193 H         1 UNK         0.0000 
     32 H32         4.7703   61.3930   11.7516 H         1 UNK         0.0000 
     33 H33         4.8108   62.5301   13.0951 H         1 UNK         0.0000 
     34 H34         1.6077   61.3803   14.7361 H         1 UNK         0.0000 
     35 H35         2.9383   62.5165   14.8781 H         1 UNK         0.0000 
     36 H36         1.7484   62.7142   13.5954 H         1 UNK         0.0000 
     37 H37         1.5484   59.6672   12.7938 H         1 UNK         0.0000 
     38 H38         1.5845   61.0472   11.7055 H         1 UNK         0.0000 
     39 H39         2.7528   59.7542   11.5180 H         1 UNK         0.0000 
     40 H40         3.9432   60.4332   15.0574 H         1 UNK         0.0000 
     41 H41         4.1858   59.2529   16.4717 H         1 UNK         0.0000 
     42 H42         5.1727   57.9443   18.2334 H         1 UNK         0.0000 
     43 H43         7.5161   55.7621   15.3572 H         1 UNK         0.0000 
     44 H44         6.5167   57.0736   13.5566 H         1 UNK         0.0000 
     45 H45         7.4709   55.1331   17.6007 H         1 UNK         0.0000 
     46 H46         8.1016   54.5054   19.4449 H         1 UNK         0.0000 
     47 H47         8.5170   54.4972   21.6806 H         1 UNK         0.0000 
     48 H48         8.6068   56.2014   21.6634 H         1 UNK         0.0000 
     49 H49         4.9600   54.8609   20.8846 H         1 UNK         0.0000 
     50 H50         5.9039   53.5081   21.4870 H         1 UNK         0.0000 
     51 H51         3.7627   54.9363   22.9585 H         1 UNK         0.0000 
     52 H52         4.3577   53.2838   23.0770 H         1 UNK         0.0000 
     53 H53         7.5101   54.2652   23.7981 H         1 UNK         0.0000 
     54 H54         7.1757   55.9281   24.2030 H         1 UNK         0.0000 
     55 H55         3.0842   53.9787   25.1409 H         1 UNK         0.0000 
     56 H56         2.5113   53.6244   27.5000 H         1 UNK         0.0000 
     57 H57         4.2423   53.8811   29.2461 H         1 UNK         0.0000 
     58 H58         6.5557   54.4909   28.6295 H         1 UNK         0.0000 
     59 H59         7.1438   54.8417   26.2773 H         1 UNK         0.0000 
@<TRIPOS>BOND
     1    1    2 1    
     2    1   31 1    
     3    1   32 1    
     4    1   33 1    
     5    2    3 1    
     6    2    4 1    
     7    2    5 1    
     8    3   34 1    
     9    3   35 1    
    10    3   36 1    
    11    4   37 1    
    12    4   38 1    
    13    4   39 1    
    14    5    6 am   BACKBONE|DICT|INTERRES
    15    5   40 1    
    16    6    7 2    
    17    6    8 1    
    18    8   13 ar   
    19    8    9 ar   
    20    9   10 ar   
    21    9   41 1    
    22   10   11 ar   
    23   10   42 1    
    24   11   12 ar   
    25   11   14 1    
    26   12   13 ar   
    27   12   43 1    
    28   13   44 1    
    29   14   15 am   BACKBONE|DICT|INTERRES
    30   14   45 1    
    31   15   16 2    
    32   15   17 am   BACKBONE|DICT|INTERRES
    33   17   18 1    
    34   17   46 1    
    35   18   19 1    
    36   18   47 1    
    37   18   48 1    
    38   19   20 1    
    39   19   24 1    
    40   19   21 1    
    41   21   22 1    
    42   21   49 1    
    43   21   50 1    
    44   22   23 1    
    45   22   51 1    
    46   22   52 1    
    47   23   24 1    
    48   23   25 1    
    49   24   53 1    
    50   24   54 1    
    51   25   30 ar   
    52   25   26 ar   
    53   26   27 ar   
    54   26   55 1    
    55   27   28 ar   
    56   27   56 1    
    57   28   29 ar   
    58   28   57 1    
    59   29   30 ar   
    60   29   58 1    
    61   30   59 1    
@<TRIPOS>SUBSTRUCTURE
     1 UNK         1 GROUP             0       ****    0 ROOT    
