ZINC64965867_2333
                    3D
 Schrodinger Suite 2024-2.
 51 55  0  0  1  0            999 V2000
    3.1322   52.0968   30.9046 C   0  0  0  0  0  0
    3.9672   52.2582   29.8024 C   0  0  0  0  0  0
    3.4552   52.7759   28.6168 C   0  0  0  0  0  0
    2.1043   53.1289   28.5291 C   0  0  0  0  0  0
    1.2683   52.9405   29.6333 C   0  0  0  0  0  0
    1.7823   52.4344   30.8241 C   0  0  0  0  0  0
    1.5186   53.7924   27.2828 C   0  0  0  0  0  0
    2.0539   53.4255   25.9557 N   0  0  0  0  0  0
    1.5453   52.5540   24.9882 C   0  0  0  0  0  0
    0.6000   51.5017   24.9184 C   0  0  0  0  0  0
    0.4171   50.8354   23.7339 N   0  0  0  0  0  0
    1.1810   51.1852   22.6591 C   0  0  0  0  0  0
    2.1459   52.1407   22.6841 N   0  0  0  0  0  0
    2.3030   52.7877   23.8655 C   0  0  0  0  0  0
    3.2680   53.7265   24.1736 N   0  0  0  0  0  0
    3.1379   54.0979   25.4749 C   0  0  0  0  0  0
    3.8519   54.8974   26.0881 O   0  0  0  0  0  0
    4.3337   54.0968   23.3197 C   0  0  0  0  0  0
    4.0654   54.4818   22.0003 C   0  0  0  0  0  0
    5.1049   54.8707   21.1586 C   0  0  0  0  0  0
    6.4087   54.8972   21.6402 C   0  0  0  0  0  0
    6.6879   54.4982   22.9423 C   0  0  0  0  0  0
    5.6568   54.0951   23.7818 C   0  0  0  0  0  0
    7.4139   55.3053   20.8340 F   0  0  0  0  0  0
    0.9546   50.4646   21.3636 C   0  0  0  0  0  0
    0.2618   49.2430   21.3215 C   0  0  0  0  0  0
    0.0515   48.5689   20.1184 C   0  0  0  0  0  0
    0.5223   49.1093   18.9248 C   0  0  0  0  0  0
    1.2051   50.3245   18.9376 C   0  0  0  0  0  0
    1.4230   50.9884   20.1448 C   0  0  0  0  0  0
    1.6454   50.8711   17.7821 F   0  0  0  0  0  0
    0.3042   48.4566   17.7604 F   0  0  0  0  0  0
   -0.2203   50.9836   26.0805 C   0  0  0  0  0  0
   -0.6123   51.7044   26.9901 O   0  0  0  0  0  0
   -0.5003   49.6771   26.0829 N   0  0  0  0  0  0
    3.5328   51.7107   31.8316 H   0  0  0  0  0  0
    5.0157   52.0008   29.8666 H   0  0  0  0  0  0
    4.1237   52.9128   27.7810 H   0  0  0  0  0  0
    0.2217   53.2039   29.5774 H   0  0  0  0  0  0
    1.1345   52.2997   31.6796 H   0  0  0  0  0  0
    1.6604   54.8644   27.4294 H   0  0  0  0  0  0
    0.4403   53.6830   27.2851 H   0  0  0  0  0  0
    3.0525   54.4945   21.6259 H   0  0  0  0  0  0
    4.8988   55.1679   20.1407 H   0  0  0  0  0  0
    7.7022   54.4909   23.2975 H   0  0  0  0  0  0
    5.8906   53.7856   24.7909 H   0  0  0  0  0  0
   -0.1163   48.7974   22.2299 H   0  0  0  0  0  0
   -0.4796   47.6289   20.1088 H   0  0  0  0  0  0
    1.9547   51.9286   20.1165 H   0  0  0  0  0  0
   -0.1248   49.0641   25.3778 H   0  0  0  0  0  0
   -0.9617   49.2723   26.9019 H   0  0  0  0  0  0
  1  6  2  0  0  0
  1  2  1  0  0  0
  1 36  1  0  0  0
  2  3  2  0  0  0
  2 37  1  0  0  0
  3  4  1  0  0  0
  3 38  1  0  0  0
  4  5  2  0  0  0
  4  7  1  0  0  0
  5  6  1  0  0  0
  5 39  1  0  0  0
  6 40  1  0  0  0
  7  8  1  0  0  0
  7 41  1  0  0  0
  7 42  1  0  0  0
  8 16  1  0  0  0
  8  9  1  0  0  0
  9 14  2  0  0  0
  9 10  1  0  0  0
 10 11  2  0  0  0
 10 33  1  0  0  0
 11 12  1  0  0  0
 12 13  2  0  0  0
 12 25  1  0  0  0
 13 14  1  0  0  0
 14 15  1  0  0  0
 15 16  1  0  0  0
 15 18  1  0  0  0
 16 17  2  0  0  0
 18 23  2  0  0  0
 18 19  1  0  0  0
 19 20  2  0  0  0
 19 43  1  0  0  0
 20 21  1  0  0  0
 20 44  1  0  0  0
 21 22  2  0  0  0
 21 24  1  0  0  0
 22 23  1  0  0  0
 22 45  1  0  0  0
 23 46  1  0  0  0
 25 30  2  0  0  0
 25 26  1  0  0  0
 26 27  2  0  0  0
 26 47  1  0  0  0
 27 28  1  0  0  0
 27 48  1  0  0  0
 28 29  2  0  0  0
 28 32  1  0  0  0
 29 30  1  0  0  0
 29 31  1  0  0  0
 30 49  1  0  0  0
 33 34  2  0  0  0
 33 35  1  0  0  0
 35 50  1  0  0  0
 35 51  1  0  0  0
M  END
> <i_i_glide_confnum>
56

> <i_i_glide_lignum>
2334

> <i_i_glide_posenum>
61

> <i_i_glide_rotatable_bonds>
5

> <i_m_Source_File_Index>
270

> <b_m_subgroup_collapsed>
0

> <r_i_docking_score>
-6.95311

> <r_i_glide_ecoul>
-6.66676

> <r_i_glide_eff_state_penalty>
0

> <r_i_glide_einternal>
5.00657

> <r_i_glide_emodel>
-66.4856

> <r_i_glide_energy>
-47.5803

> <r_i_glide_erotb>
0.358229

> <r_i_glide_esite>
-0.215992

> <r_i_glide_evdw>
-40.9136

> <r_i_glide_gscore>
-6.95311

> <r_i_glide_hbond>
-0.16

> <r_i_glide_ligand_efficiency>
-0.19866

> <r_i_glide_ligand_efficiency_ln>
-1.52636

> <r_i_glide_ligand_efficiency_sa>
-0.649831

> <r_i_glide_lipo>
-2.33481

> <r_i_glide_metal>
0

> <r_i_glide_rewards>
-1.55485

> <s_i_glide_gridfile>
wee1_glide-grid

> <s_m_Source_File>
wee1_decoys_glide_SP.sdf

> <s_m_Source_Path>
/Users/zhangxujun/Desktop

> <s_m_entry_id>
545

> <s_m_entry_name>
wee1_decoys_glide_SP.270

> <s_m_subgroup_title>
wee1_decoys_glide_SP

> <s_m_subgroupid>
wee1_decoys_glide_SP


$$$$
