@<TRIPOS>MOLECULE
ZINC39677000_590
74   77    1
SMALL
USER_CHARGES


@<TRIPOS>ATOM
      1 C1          2.1493   55.1866   29.9369 C.3       1 UNK         0.0000 
      2 C2          1.6125   55.2436   28.4957 C.3       1 UNK         0.0000 
      3 C3          2.0317   54.1214   27.4989 C.3       1 UNK         0.0000 
      4 H4          1.6002   54.4861   26.5694 H         1 UNK         0.0000 
      5 C5          3.5501   54.0426   27.2769 C.ar      1 UNK         0.0000 
      6 C6          4.4126   53.5663   28.2715 C.ar      1 UNK         0.0000 
      7 C7          5.7914   53.6133   28.0815 C.ar      1 UNK         0.0000 
      8 C8          6.3119   54.0964   26.8848 C.ar      1 UNK         0.0000 
      9 C9          5.4654   54.5380   25.8733 C.ar      1 UNK         0.0000 
     10 C10         4.0868   54.5154   26.0726 C.ar      1 UNK         0.0000 
     11 C11         1.3494   52.7440   27.7608 C.2       1 UNK         0.0000 
     12 O12         1.2123   52.3512   28.9214 O.2       1 UNK         0.0000 
     13 N13         0.8530   52.0376   26.7100 N.am      1 UNK         0.0000 
     14 C14         0.0458   50.8231   26.8733 C.3       1 UNK         0.0000 
     15 C15         0.3328   50.0065   25.5954 C.3       1 UNK         0.0000 
     16 H16         1.1740   49.3392   25.7852 H         1 UNK         0.0000 
     17 C17         0.6786   51.0669   24.5023 C.3       1 UNK         0.0000 
     18 C18         1.2986   52.2295   25.3303 C.3       1 UNK         0.0000 
     19 C19         1.5994   50.4977   23.3951 C.3       1 UNK         0.0000 
     20 C20         2.1004   51.6164   22.4581 C.3       1 UNK         0.0000 
     21 N21         0.8695   52.2730   21.7914 N.4       1 UNK         0.0000 
     22 C22        -0.2568   52.7055   22.7657 C.3       1 UNK         0.0000 
     23 C23        -0.5780   51.5651   23.7313 C.3       1 UNK         0.0000 
     24 C24        -0.9043   49.1215   25.2814 C.2       1 UNK         0.0000 
     25 O25        -2.0515   49.5553   25.4179 O.2       1 UNK         0.0000 
     26 N26        -0.6586   47.8653   24.8824 N.am      1 UNK         0.0000 
     27 C27        -1.7062   46.8969   24.5738 C.3       1 UNK         0.0000 
     28 C28        -2.4474   47.1741   23.2494 C.3       1 UNK         0.0000 
     29 C29        -3.2605   45.9837   22.7461 C.ar      1 UNK         0.0000 
     30 C30        -2.7529   45.2344   21.6787 C.ar      1 UNK         0.0000 
     31 C31        -3.4591   44.1423   21.1702 C.ar      1 UNK         0.0000 
     32 C32        -4.6715   43.7751   21.7530 C.ar      1 UNK         0.0000 
     33 C33        -5.1858   44.5114   22.8178 C.ar      1 UNK         0.0000 
     34 C34        -4.4952   45.6201   23.3189 C.ar      1 UNK         0.0000 
     35 C35        -5.1212   46.4071   24.4647 C.3       1 UNK         0.0000 
     36 C36        -2.9063   43.3618   19.9929 C.3       1 UNK         0.0000 
     37 H37         1.7314   56.0032   30.5280 H         1 UNK         0.0000 
     38 H38         1.8818   54.2585   30.4387 H         1 UNK         0.0000 
     39 H39         3.2317   55.2968   29.9637 H         1 UNK         0.0000 
     40 H40         1.9035   56.2097   28.0818 H         1 UNK         0.0000 
     41 H41         0.5251   55.2672   28.5405 H         1 UNK         0.0000 
     42 H42         4.0200   53.1866   29.2031 H         1 UNK         0.0000 
     43 H43         6.4602   53.2896   28.8633 H         1 UNK         0.0000 
     44 H44         7.3826   54.1218   26.7443 H         1 UNK         0.0000 
     45 H45         5.8758   54.9121   24.9452 H         1 UNK         0.0000 
     46 H46         3.4411   54.8891   25.2916 H         1 UNK         0.0000 
     47 H47         0.2925   50.2258   27.7481 H         1 UNK         0.0000 
     48 H48        -0.9914   51.1636   26.8727 H         1 UNK         0.0000 
     49 H49         1.1457   53.2234   24.9218 H         1 UNK         0.0000 
     50 H50         2.3786   52.0958   25.3466 H         1 UNK         0.0000 
     51 H51         2.4778   50.0410   23.8501 H         1 UNK         0.0000 
     52 H52         1.1175   49.6861   22.8485 H         1 UNK         0.0000 
     53 H53         2.6437   52.4116   22.9712 H         1 UNK         0.0000 
     54 H54         2.7185   51.2331   21.6442 H         1 UNK         0.0000 
     55 H55         1.1624   53.0634   21.2293 H         1 UNK         0.0000 
     56 H56         0.0515   53.6175   23.2816 H         1 UNK         0.0000 
     57 H57        -1.1267   52.8966   22.1377 H         1 UNK         0.0000 
     58 H58        -1.0821   50.7624   23.1896 H         1 UNK         0.0000 
     59 H59        -1.3141   51.9416   24.4442 H         1 UNK         0.0000 
     60 H60         0.2859   47.5152   24.9754 H         1 UNK         0.0000 
     61 H61        -1.2218   45.9274   24.4825 H         1 UNK         0.0000 
     62 H62        -2.3929   46.7472   25.4079 H         1 UNK         0.0000 
     63 H63        -3.0860   48.0515   23.3462 H         1 UNK         0.0000 
     64 H64        -1.7227   47.4599   22.4836 H         1 UNK         0.0000 
     65 H65        -1.8084   45.5084   21.2322 H         1 UNK         0.0000 
     66 H66        -5.2247   42.9263   21.3801 H         1 UNK         0.0000 
     67 H67        -6.1333   44.2198   23.2503 H         1 UNK         0.0000 
     68 H68        -6.1766   46.1636   24.5934 H         1 UNK         0.0000 
     69 H69        -4.6064   46.2060   25.4042 H         1 UNK         0.0000 
     70 H70        -5.0754   47.4803   24.2745 H         1 UNK         0.0000 
     71 H71        -1.8190   43.2936   20.0531 H         1 UNK         0.0000 
     72 H72        -3.2952   42.3438   19.9734 H         1 UNK         0.0000 
     73 H73        -3.1654   43.8581   19.0575 H         1 UNK         0.0000 
     74 H74         0.4825   51.6016   21.1414 H         1 UNK         0.0000 
@<TRIPOS>BOND
     1    1    2 1    
     2    1   37 1    
     3    1   38 1    
     4    1   39 1    
     5    2    3 1    
     6    2   40 1    
     7    2   41 1    
     8    3    4 1    
     9    3    5 1    
    10    3   11 1    
    11    5   10 ar   
    12    5    6 ar   
    13    6    7 ar   
    14    6   42 1    
    15    7    8 ar   
    16    7   43 1    
    17    8    9 ar   
    18    8   44 1    
    19    9   10 ar   
    20    9   45 1    
    21   10   46 1    
    22   11   12 2    
    23   11   13 am   BACKBONE|DICT|INTERRES
    24   13   18 1    
    25   13   14 1    
    26   14   15 1    
    27   14   47 1    
    28   14   48 1    
    29   15   16 1    
    30   15   17 1    
    31   15   24 1    
    32   17   23 1    
    33   17   18 1    
    34   17   19 1    
    35   18   49 1    
    36   18   50 1    
    37   19   20 1    
    38   19   51 1    
    39   19   52 1    
    40   20   21 1    
    41   20   53 1    
    42   20   54 1    
    43   21   22 1    
    44   21   55 1    
    45   21   74 1    
    46   22   23 1    
    47   22   56 1    
    48   22   57 1    
    49   23   58 1    
    50   23   59 1    
    51   24   25 2    
    52   24   26 am   BACKBONE|DICT|INTERRES
    53   26   27 1    
    54   26   60 1    
    55   27   28 1    
    56   27   61 1    
    57   27   62 1    
    58   28   29 1    
    59   28   63 1    
    60   28   64 1    
    61   29   34 ar   
    62   29   30 ar   
    63   30   31 ar   
    64   30   65 1    
    65   31   32 ar   
    66   31   36 1    
    67   32   33 ar   
    68   32   66 1    
    69   33   34 ar   
    70   33   67 1    
    71   34   35 1    
    72   35   68 1    
    73   35   69 1    
    74   35   70 1    
    75   36   71 1    
    76   36   72 1    
    77   36   73 1    
@<TRIPOS>SUBSTRUCTURE
     1 UNK         1 GROUP             0       ****    0 ROOT    
