ZINC05010614_4814
                    3D
 Schrodinger Suite 2024-2.
 38 41  0  0  1  0            999 V2000
    7.1726   55.3155   20.2784 C   0  0  0  0  0  0
    5.9707   54.8996   19.7068 C   0  0  0  0  0  0
    4.8984   54.4817   20.4937 C   0  0  0  0  0  0
    5.0679   54.4941   21.8854 C   0  0  0  0  0  0
    6.2911   54.8958   22.4788 C   0  0  0  0  0  0
    7.3516   55.3221   21.6630 C   0  0  0  0  0  0
    6.3063   54.8574   23.8384 N   0  0  0  0  0  0
    5.1641   54.4593   24.3480 C   0  0  0  0  0  0
    3.9271   54.0879   23.1531 S   0  0  0  0  0  0
    4.9110   54.3105   25.8008 C   0  0  0  0  0  0
    3.7629   53.9719   26.4227 C   0  0  0  0  0  0
    3.9120   53.8863   27.7944 N   0  0  0  0  0  0
    5.2817   54.1982   28.1511 C   0  0  0  0  0  0
    5.9404   54.4960   26.8172 C   0  0  0  0  0  0
    7.1044   54.8340   26.6231 O   0  0  0  0  0  0
    2.9243   53.5354   28.8235 C   0  0  0  0  0  0
    1.7783   54.5386   29.0239 C   0  0  0  0  0  0
    0.6883   53.6949   29.6937 C   0  0  0  0  0  0
    0.8137   52.3128   29.0425 C   0  0  0  0  0  0
    2.3057   52.1282   28.7188 C   0  0  0  0  0  0
    2.5203   53.6954   25.9147 N   0  0  0  0  0  0
    7.9821   55.6316   19.6356 H   0  0  0  0  0  0
    5.8679   54.9044   18.6310 H   0  0  0  0  0  0
    3.9624   54.1754   20.0469 H   0  0  0  0  0  0
    8.2906   55.6469   22.0817 H   0  0  0  0  0  0
    5.7790   53.3712   28.6580 H   0  0  0  0  0  0
    5.3539   55.0566   28.8209 H   0  0  0  0  0  0
    3.4869   53.5498   29.7585 H   0  0  0  0  0  0
    2.0716   55.3881   29.6419 H   0  0  0  0  0  0
    1.4135   54.9298   28.0733 H   0  0  0  0  0  0
    0.8754   53.6209   30.7667 H   0  0  0  0  0  0
   -0.3099   54.1147   29.5641 H   0  0  0  0  0  0
    0.4264   51.5189   29.6820 H   0  0  0  0  0  0
    0.2288   52.2874   28.1214 H   0  0  0  0  0  0
    2.4041   51.6918   27.7241 H   0  0  0  0  0  0
    2.7688   51.4494   29.4361 H   0  0  0  0  0  0
    2.3546   53.7212   24.9187 H   0  0  0  0  0  0
    1.7640   53.4062   26.5179 H   0  0  0  0  0  0
  1  6  2  0  0  0
  1  2  1  0  0  0
  1 22  1  0  0  0
  2  3  2  0  0  0
  2 23  1  0  0  0
  3  4  1  0  0  0
  3 24  1  0  0  0
  4  9  1  0  0  0
  4  5  2  0  0  0
  5  6  1  0  0  0
  5  7  1  0  0  0
  6 25  1  0  0  0
  7  8  2  0  0  0
  8  9  1  0  0  0
  8 10  1  0  0  0
 10 14  1  0  0  0
 10 11  2  0  0  0
 11 12  1  0  0  0
 11 21  1  0  0  0
 12 13  1  0  0  0
 12 16  1  0  0  0
 13 14  1  0  0  0
 13 26  1  0  0  0
 13 27  1  0  0  0
 14 15  2  0  0  0
 16 20  1  0  0  0
 16 17  1  0  0  0
 16 28  1  0  0  0
 17 18  1  0  0  0
 17 29  1  0  0  0
 17 30  1  0  0  0
 18 19  1  0  0  0
 18 31  1  0  0  0
 18 32  1  0  0  0
 19 20  1  0  0  0
 19 33  1  0  0  0
 19 34  1  0  0  0
 20 35  1  0  0  0
 20 36  1  0  0  0
 21 37  1  0  0  0
 21 38  1  0  0  0
M  END
> <i_i_glide_confnum>
13

> <i_i_glide_lignum>
4815

> <i_i_glide_posenum>
306

> <i_i_glide_rotatable_bonds>
2

> <i_m_Source_File_Index>
3307

> <b_m_subgroup_collapsed>
0

> <r_i_docking_score>
-8.1873

> <r_i_glide_ecoul>
-3.68682

> <r_i_glide_eff_state_penalty>
0

> <r_i_glide_einternal>
10.6494

> <r_i_glide_emodel>
-60.9217

> <r_i_glide_energy>
-44.3849

> <r_i_glide_erotb>
0.409786

> <r_i_glide_esite>
0

> <r_i_glide_evdw>
-40.6981

> <r_i_glide_gscore>
-8.1873

> <r_i_glide_hbond>
-0.304571

> <r_i_glide_ligand_efficiency>
-0.389872

> <r_i_glide_ligand_efficiency_ln>
-2.02429

> <r_i_glide_ligand_efficiency_sa>
-1.07563

> <r_i_glide_lipo>
-3.02373

> <r_i_glide_metal>
0

> <r_i_glide_rewards>
-2.68086

> <s_i_glide_gridfile>
wee1_glide-grid

> <s_m_Source_File>
wee1_decoys_glide_SP.sdf

> <s_m_Source_Path>
/Users/zhangxujun/Desktop

> <s_m_entry_id>
3582

> <s_m_entry_name>
wee1_decoys_glide_SP.3307

> <s_m_subgroup_title>
wee1_decoys_glide_SP

> <s_m_subgroupid>
wee1_decoys_glide_SP


$$$$
