@<TRIPOS>MOLECULE
ZINC39992603_6121
56   59    1
SMALL
USER_CHARGES


@<TRIPOS>ATOM
      1 C1          1.0036   52.5042   26.6063 C.ar      1 UNK         0.0000 
      2 C2          2.0216   52.9025   25.7425 C.ar      1 UNK         0.0000 
      3 C3          3.1565   53.5973   26.1991 C.ar      1 UNK         0.0000 
      4 C4          3.1952   53.9464   27.5685 C.ar      1 UNK         0.0000 
      5 C5          2.1640   53.5572   28.4271 C.ar      1 UNK         0.0000 
      6 C6          1.0769   52.8306   27.9550 C.ar      1 UNK         0.0000 
      7 Cl7        -0.1804   52.3528   29.0361 Cl        1 UNK         0.0000 
      8 Cl8         4.4370   54.8962   28.2845 Cl        1 UNK         0.0000 
      9 C9          4.1744   53.8794   25.1399 C.2       1 UNK         0.0000 
     10 C10         5.5374   53.9845   25.1420 C.2       1 UNK         0.0000 
     11 C11         6.3719   53.8503   26.2922 C.1       1 UNK         0.0000 
     12 N12         7.1020   53.7723   27.1871 N.1       1 UNK         0.0000 
     13 C13         6.2725   54.1554   23.8905 C.2       1 UNK         0.0000 
     14 O14         7.3601   53.6215   23.6884 O.2       1 UNK         0.0000 
     15 N15         5.6506   54.8960   22.9559 N.am      1 UNK         0.0000 
     16 C16         5.8913   54.8651   21.5918 C.2       1 UNK         0.0000 
     17 C17         5.3735   53.9711   20.6359 C.2       1 UNK         0.0000 
     18 C18         5.6788   54.3992   19.3109 C.2       1 UNK         0.0000 
     19 C19         6.4064   55.6009   19.2968 C.2       1 UNK         0.0000 
     20 S20         6.7153   56.2019   20.8833 S.3       1 UNK         0.0000 
     21 C21         6.9561   56.2934   18.0570 C.3       1 UNK         0.0000 
     22 C22         6.2767   55.7125   16.8018 C.3       1 UNK         0.0000 
     23 C23         6.2301   54.1771   16.8412 C.3       1 UNK         0.0000 
     24 C24         5.3635   53.6543   18.0074 C.3       1 UNK         0.0000 
     25 C25         4.7194   52.7257   20.9983 C.2       1 UNK         0.0000 
     26 O26         5.0791   52.1017   21.9960 O.2       1 UNK         0.0000 
     27 N27         3.7255   52.3214   20.1902 N.am      1 UNK         0.0000 
     28 C28         2.9719   51.0673   20.3193 C.3       1 UNK         0.0000 
     29 C29         2.3514   50.7666   21.7147 C.3       1 UNK         0.0000 
     30 H30         3.1319   50.4746   22.4180 H         1 UNK         0.0000 
     31 C31         1.1473   49.8234   21.7156 C.3       1 UNK         0.0000 
     32 C32        -0.0712   50.7077   21.5401 C.3       1 UNK         0.0000 
     33 C33         0.4388   52.1205   21.8146 C.3       1 UNK         0.0000 
     34 O34         1.7752   51.9509   22.2746 O.3       1 UNK         0.0000 
     35 H35         0.1600   51.9437   26.2290 H         1 UNK         0.0000 
     36 H36         1.9350   52.6177   24.7031 H         1 UNK         0.0000 
     37 H37         2.2027   53.8279   29.4718 H         1 UNK         0.0000 
     38 H38         3.6944   53.9597   24.1720 H         1 UNK         0.0000 
     39 H39         4.8448   55.4250   23.2433 H         1 UNK         0.0000 
     40 H40         6.8039   57.3725   18.0994 H         1 UNK         0.0000 
     41 H41         8.0319   56.1259   17.9913 H         1 UNK         0.0000 
     42 H42         5.2625   56.1059   16.7144 H         1 UNK         0.0000 
     43 H43         6.8066   56.0499   15.9100 H         1 UNK         0.0000 
     44 H44         5.8434   53.7886   15.8980 H         1 UNK         0.0000 
     45 H45         7.2443   53.7844   16.9336 H         1 UNK         0.0000 
     46 H46         5.5296   52.5838   18.1180 H         1 UNK         0.0000 
     47 H47         4.3093   53.7760   17.7583 H         1 UNK         0.0000 
     48 H48         3.4825   52.9110   19.4085 H         1 UNK         0.0000 
     49 H49         2.1802   51.0959   19.5702 H         1 UNK         0.0000 
     50 H50         3.6105   50.2352   20.0195 H         1 UNK         0.0000 
     51 H51         1.2370   49.0275   20.9750 H         1 UNK         0.0000 
     52 H52         1.1102   49.3076   22.6765 H         1 UNK         0.0000 
     53 H53        -0.4669   50.6328   20.5272 H         1 UNK         0.0000 
     54 H54        -0.8659   50.4247   22.2305 H         1 UNK         0.0000 
     55 H55         0.4421   52.7381   20.9151 H         1 UNK         0.0000 
     56 H56        -0.1526   52.6414   22.5670 H         1 UNK         0.0000 
@<TRIPOS>BOND
     1    1    6 ar   
     2    1    2 ar   
     3    1   35 1    
     4    2    3 ar   
     5    2   36 1    
     6    3    4 ar   
     7    3    9 1    
     8    4    5 ar   
     9    4    8 1    
    10    5    6 ar   
    11    5   37 1    
    12    6    7 1    
    13    9   10 2    
    14    9   38 1    
    15   10   11 1    
    16   10   13 1    
    17   11   12 3    
    18   13   14 2    
    19   13   15 am   BACKBONE|DICT|INTERRES
    20   15   16 am   BACKBONE|DICT|INTERRES
    21   15   39 1    
    22   16   20 1    
    23   16   17 2    
    24   17   18 1    
    25   17   25 1    
    26   18   24 1    
    27   18   19 2    
    28   19   20 1    
    29   19   21 1    
    30   21   22 1    
    31   21   40 1    
    32   21   41 1    
    33   22   23 1    
    34   22   42 1    
    35   22   43 1    
    36   23   24 1    
    37   23   44 1    
    38   23   45 1    
    39   24   46 1    
    40   24   47 1    
    41   25   26 2    
    42   25   27 am   BACKBONE|DICT|INTERRES
    43   27   28 1    
    44   27   48 1    
    45   28   29 1    
    46   28   49 1    
    47   28   50 1    
    48   29   30 1    
    49   29   34 1    
    50   29   31 1    
    51   31   32 1    
    52   31   51 1    
    53   31   52 1    
    54   32   33 1    
    55   32   53 1    
    56   32   54 1    
    57   33   34 1    
    58   33   55 1    
    59   33   56 1    
@<TRIPOS>SUBSTRUCTURE
     1 UNK         1 GROUP             0       ****    0 ROOT    
