@<TRIPOS>MOLECULE
ZINC63374663_5364
72   77    1
SMALL
USER_CHARGES


@<TRIPOS>ATOM
      1 C1         -2.5842   48.2808   22.6640 C.3       1 UNK         0.0000 
      2 C2         -1.2572   48.2261   21.8734 C.3       1 UNK         0.0000 
      3 C3         -1.3462   47.2483   20.6810 C.3       1 UNK         0.0000 
      4 C4         -0.7691   49.6204   21.4068 C.3       1 UNK         0.0000 
      5 C5         -0.0953   50.4882   22.5120 C.3       1 UNK         0.0000 
      6 H6          0.6028   49.8250   23.0271 H         1 UNK         0.0000 
      7 C7          0.7968   51.6183   21.9384 C.2       1 UNK         0.0000 
      8 O8          0.5575   52.1009   20.8326 O.2       1 UNK         0.0000 
      9 N9          1.7830   52.0357   22.7467 N.am      1 UNK         0.0000 
     10 C10         2.7164   53.1351   22.4782 C.3       1 UNK         0.0000 
     11 H11         2.1047   53.9761   22.1374 H         1 UNK         0.0000 
     12 C12         3.7123   52.8296   21.3333 C.3       1 UNK         0.0000 
     13 C13         4.7430   53.9498   21.1710 C.3       1 UNK         0.0000 
     14 C14         5.6030   54.0461   22.4397 C.3       1 UNK         0.0000 
     15 C15         4.7699   54.0967   23.7191 C.ar      1 UNK         0.0000 
     16 C16         3.4220   53.6575   23.7473 C.ar      1 UNK         0.0000 
     17 C17         2.7361   53.6963   24.9733 C.ar      1 UNK         0.0000 
     18 C18         3.3627   54.0977   26.1481 C.ar      1 UNK         0.0000 
     19 C19         4.6839   54.5241   26.1142 C.ar      1 UNK         0.0000 
     20 C20         5.3724   54.5322   24.9054 C.ar      1 UNK         0.0000 
     21 N21        -1.0864   51.0042   23.4971 N.am      1 UNK         0.0000 
     22 C22        -1.0712   50.6022   24.7895 C.2       1 UNK         0.0000 
     23 O23        -0.3532   49.7466   25.3097 O.2       1 UNK         0.0000 
     24 C24        -2.1539   51.4012   25.4954 C.3       1 UNK         0.0000 
     25 C25        -3.3703   50.5101   25.9513 C.3       1 UNK         0.0000 
     26 H26        -3.5645   49.7073   25.2369 H         1 UNK         0.0000 
     27 C27        -4.6172   51.3530   26.1424 C.2       1 UNK         0.0000 
     28 C28        -5.0904   51.1885   27.3887 C.2       1 UNK         0.0000 
     29 C29        -6.2358   51.7767   28.0974 C.2       1 UNK         0.0000 
     30 C30        -6.4765   51.4627   29.3881 C.2       1 UNK         0.0000 
     31 C31        -5.5681   50.5332   30.0513 C.2       1 UNK         0.0000 
     32 C32        -4.5094   49.9779   29.4055 C.2       1 UNK         0.0000 
     33 C33        -4.2585   50.2940   28.0651 C.2       1 UNK         0.0000 
     34 N34        -3.2956   49.8678   27.2820 N.pl3     1 UNK         0.0000 
     35 C35        -5.0070   52.2304   24.9669 C.3       1 UNK         0.0000 
     36 C36        -3.7872   53.1051   24.5885 C.3       1 UNK         0.0000 
     37 N37        -2.5976   52.2481   24.4068 N.am      1 UNK         0.0000 
     38 C38        -2.0071   51.9755   23.2328 C.2       1 UNK         0.0000 
     39 O39        -2.2538   52.4959   22.1475 O.2       1 UNK         0.0000 
     40 C40        -1.4903   52.2088   26.6427 C.3       1 UNK         0.0000 
     41 H41        -3.0545   49.2639   22.6090 H         1 UNK         0.0000 
     42 H42        -3.3270   47.5629   22.3139 H         1 UNK         0.0000 
     43 H43        -2.4109   48.0530   23.7170 H         1 UNK         0.0000 
     44 H44        -0.4976   47.8264   22.5478 H         1 UNK         0.0000 
     45 H45        -1.3499   47.7747   19.7238 H         1 UNK         0.0000 
     46 H46        -0.4949   46.5653   20.6698 H         1 UNK         0.0000 
     47 H47        -2.2421   46.6261   20.7010 H         1 UNK         0.0000 
     48 H48        -1.5670   50.1660   20.9019 H         1 UNK         0.0000 
     49 H49        -0.0099   49.4562   20.6387 H         1 UNK         0.0000 
     50 H50         1.8967   51.5806   23.6399 H         1 UNK         0.0000 
     51 H51         3.1758   52.6869   20.3943 H         1 UNK         0.0000 
     52 H52         4.2304   51.8896   21.5313 H         1 UNK         0.0000 
     53 H53         4.2381   54.8964   20.9777 H         1 UNK         0.0000 
     54 H54         5.3762   53.7543   20.3042 H         1 UNK         0.0000 
     55 H55         6.2665   54.9096   22.3782 H         1 UNK         0.0000 
     56 H56         6.2474   53.1675   22.4994 H         1 UNK         0.0000 
     57 H57         1.7032   53.3836   25.0268 H         1 UNK         0.0000 
     58 H58         2.8192   54.0936   27.0813 H         1 UNK         0.0000 
     59 H59         5.1743   54.8476   27.0213 H         1 UNK         0.0000 
     60 H60         6.4031   54.8568   24.8924 H         1 UNK         0.0000 
     61 H61        -6.9141   52.4580   27.6044 H         1 UNK         0.0000 
     62 H62        -7.3272   51.8746   29.9120 H         1 UNK         0.0000 
     63 H63        -5.7386   50.2760   31.0880 H         1 UNK         0.0000 
     64 H64        -3.8596   49.2959   29.9427 H         1 UNK         0.0000 
     65 H65        -5.8622   52.8661   25.1999 H         1 UNK         0.0000 
     66 H66        -5.3084   51.6223   24.1120 H         1 UNK         0.0000 
     67 H67        -3.5573   53.7938   25.4012 H         1 UNK         0.0000 
     68 H68        -3.9499   53.7268   23.7061 H         1 UNK         0.0000 
     69 H69        -1.0737   51.5570   27.4145 H         1 UNK         0.0000 
     70 H70        -0.6816   52.8501   26.2877 H         1 UNK         0.0000 
     71 H71        -2.2156   52.8610   27.1221 H         1 UNK         0.0000 
     72 H72        -2.5575   49.2109   27.5850 H         1 UNK         0.0000 
@<TRIPOS>BOND
     1    1    2 1    
     2    1   41 1    
     3    1   42 1    
     4    1   43 1    
     5    2    3 1    
     6    2    4 1    
     7    2   44 1    
     8    3   45 1    
     9    3   46 1    
    10    3   47 1    
    11    4    5 1    
    12    4   48 1    
    13    4   49 1    
    14    5    6 1    
    15    5    7 1    
    16    5   21 1    
    17    7    8 2    
    18    7    9 am   BACKBONE|DICT|INTERRES
    19    9   10 1    
    20    9   50 1    
    21   10   11 1    
    22   10   16 1    
    23   10   12 1    
    24   12   13 1    
    25   12   51 1    
    26   12   52 1    
    27   13   14 1    
    28   13   53 1    
    29   13   54 1    
    30   14   15 1    
    31   14   55 1    
    32   14   56 1    
    33   15   20 ar   
    34   15   16 ar   
    35   16   17 ar   
    36   17   18 ar   
    37   17   57 1    
    38   18   19 ar   
    39   18   58 1    
    40   19   20 ar   
    41   19   59 1    
    42   20   60 1    
    43   21   38 am   BACKBONE|DICT|INTERRES
    44   21   22 am   BACKBONE|DICT|INTERRES
    45   22   23 2    
    46   22   24 1    
    47   24   37 1    
    48   24   25 1    
    49   24   40 1    
    50   25   26 1    
    51   25   34 1    
    52   25   27 1    
    53   27   28 2    
    54   27   35 1    
    55   28   33 1    
    56   28   29 1    
    57   29   30 2    
    58   29   61 1    
    59   30   31 1    
    60   30   62 1    
    61   31   32 2    
    62   31   63 1    
    63   32   33 1    
    64   32   64 1    
    65   33   34 2    
    66   34   72 1    
    67   35   36 1    
    68   35   65 1    
    69   35   66 1    
    70   36   37 1    
    71   36   67 1    
    72   36   68 1    
    73   37   38 am   BACKBONE|DICT|INTERRES
    74   38   39 2    
    75   40   69 1    
    76   40   70 1    
    77   40   71 1    
@<TRIPOS>SUBSTRUCTURE
     1 UNK         1 GROUP             0       ****    0 ROOT    
