@<TRIPOS>MOLECULE
ZINC40378769_1790
28   29    1
SMALL
USER_CHARGES


@<TRIPOS>ATOM
      1 C1         -0.3978   51.9316   29.6817 C.ar      1 UNK         0.0000 
      2 C2          0.7397   52.1970   30.4418 C.ar      1 UNK         0.0000 
      3 C3          1.9529   52.4967   29.8233 C.ar      1 UNK         0.0000 
      4 C4          1.9936   52.6298   28.4206 C.ar      1 UNK         0.0000 
      5 C5          0.8517   52.3506   27.6640 C.ar      1 UNK         0.0000 
      6 C6         -0.3410   51.9914   28.2876 C.ar      1 UNK         0.0000 
      7 S7         -1.7625   51.5785   27.2817 S.o2      1 UNK         0.0000 
      8 O8         -2.8911   51.2967   28.1735 O.2       1 UNK         0.0000 
      9 O9         -1.8736   52.6006   26.2378 O.2       1 UNK         0.0000 
     10 N10        -1.3298   50.0967   26.4817 N.pl3     1 UNK         0.0000 
     11 N11         3.1394   52.9422   27.6852 N.am      1 UNK         0.0000 
     12 C12         3.9098   54.0363   27.8347 C.2       1 UNK         0.0000 
     13 O13         3.9043   54.7890   28.8109 O.2       1 UNK         0.0000 
     14 C14         4.7472   54.2904   26.6923 C.2       1 UNK         0.0000 
     15 C15         4.3629   54.0967   25.3472 C.2       1 UNK         0.0000 
     16 C16         5.3264   54.4967   24.4350 C.2       1 UNK         0.0000 
     17 S17         6.7044   55.1842   25.2138 S.3       1 UNK         0.0000 
     18 C18         5.9984   54.8967   26.7691 C.2       1 UNK         0.0000 
     19 Cl19        3.3682   52.5710   30.8207 Cl        1 UNK         0.0000 
     20 H20        -1.2956   51.6209   30.1911 H         1 UNK         0.0000 
     21 H21         0.6872   52.0970   31.5176 H         1 UNK         0.0000 
     22 H22         0.8838   52.4022   26.5841 H         1 UNK         0.0000 
     23 H23        -1.3173   49.3168   27.1706 H         1 UNK         0.0000 
     24 H24        -2.0153   49.8547   25.7659 H         1 UNK         0.0000 
     25 H25         3.2405   52.4594   26.8056 H         1 UNK         0.0000 
     26 H26         3.4124   53.6834   25.0411 H         1 UNK         0.0000 
     27 H27         5.2798   54.4466   23.3569 H         1 UNK         0.0000 
     28 H28         6.5199   55.1961   27.6677 H         1 UNK         0.0000 
@<TRIPOS>BOND
     1    1    6 ar   
     2    1    2 ar   
     3    1   20 1    
     4    2    3 ar   
     5    2   21 1    
     6    3    4 ar   
     7    3   19 1    
     8    4    5 ar   
     9    4   11 1    
    10    5    6 ar   
    11    5   22 1    
    12    6    7 1    
    13    7    8 2    
    14    7    9 2    
    15    7   10 1    
    16   10   23 1    
    17   10   24 1    
    18   11   12 am   BACKBONE|DICT|INTERRES
    19   11   25 1    
    20   12   13 2    
    21   12   14 1    
    22   14   18 2    
    23   14   15 1    
    24   15   16 2    
    25   15   26 1    
    26   16   17 1    
    27   16   27 1    
    28   17   18 1    
    29   18   28 1    
@<TRIPOS>SUBSTRUCTURE
     1 UNK         1 GROUP             0       ****    0 ROOT    
