@<TRIPOS>MOLECULE
ZINC31382302_4885
64   65    1
SMALL
USER_CHARGES


@<TRIPOS>ATOM
      1 C1          3.4661   52.6347   17.2212 C.3       1 UNK         0.0000 
      2 C2          2.7589   52.7815   18.5771 C.3       1 UNK         0.0000 
      3 N3          3.4666   51.9254   19.6644 N.4       1 UNK         0.0000 
      4 C4          4.8702   52.4304   20.0965 C.3       1 UNK         0.0000 
      5 C5          4.8459   53.7429   20.8962 C.3       1 UNK         0.0000 
      6 C6          2.5333   51.4355   20.8175 C.3       1 UNK         0.0000 
      7 H7          3.2409   51.0449   21.5530 H         1 UNK         0.0000 
      8 C8          1.7302   52.6209   21.4344 C.3       1 UNK         0.0000 
      9 N9          1.4255   52.4334   22.8531 N.am      1 UNK         0.0000 
     10 C10         1.6783   53.3041   23.8464 C.2       1 UNK         0.0000 
     11 O11         2.2889   54.3628   23.6824 O.2       1 UNK         0.0000 
     12 C12         1.1503   52.8941   25.2026 C.ar      1 UNK         0.0000 
     13 C13        -0.1444   52.3518   25.2977 C.ar      1 UNK         0.0000 
     14 C14        -0.6825   51.9755   26.5275 C.ar      1 UNK         0.0000 
     15 C15         0.0850   52.1007   27.6841 C.ar      1 UNK         0.0000 
     16 C16         1.3651   52.6469   27.6126 C.ar      1 UNK         0.0000 
     17 C17         1.9039   53.0635   26.3889 C.ar      1 UNK         0.0000 
     18 C18         3.3121   53.6553   26.4023 C.3       1 UNK         0.0000 
     19 S19        -2.3603   51.3582   26.6160 S.o2      1 UNK         0.0000 
     20 O20        -2.7346   51.3047   28.0324 O.2       1 UNK         0.0000 
     21 O21        -3.1687   52.1256   25.6619 O.2       1 UNK         0.0000 
     22 N22        -2.2858   49.6682   26.0818 N.pl3     1 UNK         0.0000 
     23 C23        -2.1569   49.1930   24.7689 C.ar      1 UNK         0.0000 
     24 C24        -1.7073   47.8784   24.6247 C.ar      1 UNK         0.0000 
     25 C25        -1.6287   47.2974   23.3618 C.ar      1 UNK         0.0000 
     26 C26        -1.9856   48.0366   22.2372 C.ar      1 UNK         0.0000 
     27 C27        -2.4195   49.3526   22.3656 C.ar      1 UNK         0.0000 
     28 C28        -2.5098   49.9319   23.6293 C.ar      1 UNK         0.0000 
     29 F29        -1.9028   47.4738   21.0099 F         1 UNK         0.0000 
     30 C30         1.6160   50.2523   20.3469 C.3       1 UNK         0.0000 
     31 C31         2.1961   49.3475   19.2374 C.3       1 UNK         0.0000 
     32 C32         1.1993   49.3678   21.5408 C.3       1 UNK         0.0000 
     33 H33         2.9259   53.1844   16.4497 H         1 UNK         0.0000 
     34 H34         3.5043   51.5913   16.9031 H         1 UNK         0.0000 
     35 H35         4.4837   53.0194   17.2342 H         1 UNK         0.0000 
     36 H36         2.7139   53.8134   18.9245 H         1 UNK         0.0000 
     37 H37         1.7411   52.3949   18.5043 H         1 UNK         0.0000 
     38 H38         5.3063   51.6125   20.6714 H         1 UNK         0.0000 
     39 H39         5.4499   52.5128   19.1763 H         1 UNK         0.0000 
     40 H40         5.8626   54.0994   21.0697 H         1 UNK         0.0000 
     41 H41         4.3142   54.5390   20.3760 H         1 UNK         0.0000 
     42 H42         4.3962   53.6117   21.8789 H         1 UNK         0.0000 
     43 H43         2.2487   53.5647   21.2794 H         1 UNK         0.0000 
     44 H44         0.7798   52.7518   20.9152 H         1 UNK         0.0000 
     45 H45         0.9108   51.6011   23.0938 H         1 UNK         0.0000 
     46 H46        -0.7594   52.2473   24.4133 H         1 UNK         0.0000 
     47 H47        -0.3123   51.7997   28.6423 H         1 UNK         0.0000 
     48 H48         1.9365   52.7533   28.5230 H         1 UNK         0.0000 
     49 H49         3.8475   53.4294   27.3285 H         1 UNK         0.0000 
     50 H50         3.9188   53.2497   25.5908 H         1 UNK         0.0000 
     51 H51         3.2707   54.7383   26.2738 H         1 UNK         0.0000 
     52 H52        -2.0920   49.0127   26.8363 H         1 UNK         0.0000 
     53 H53        -1.4296   47.3003   25.4971 H         1 UNK         0.0000 
     54 H54        -1.2962   46.2782   23.2446 H         1 UNK         0.0000 
     55 H55        -2.6998   49.9124   21.4843 H         1 UNK         0.0000 
     56 H56        -2.8802   50.9409   23.6930 H         1 UNK         0.0000 
     57 H57         0.6985   50.6716   19.9307 H         1 UNK         0.0000 
     58 H58         3.1054   48.8465   19.5601 H         1 UNK         0.0000 
     59 H59         1.4875   48.5659   18.9594 H         1 UNK         0.0000 
     60 H60         2.4192   49.8938   18.3215 H         1 UNK         0.0000 
     61 H61         2.0671   48.9380   22.0453 H         1 UNK         0.0000 
     62 H62         0.6220   49.9137   22.2850 H         1 UNK         0.0000 
     63 H63         0.5799   48.5345   21.2133 H         1 UNK         0.0000 
     64 H64         3.7037   51.0714   19.1634 H         1 UNK         0.0000 
@<TRIPOS>BOND
     1    1    2 1    
     2    1   33 1    
     3    1   34 1    
     4    1   35 1    
     5    2    3 1    
     6    2   36 1    
     7    2   37 1    
     8    3    4 1    
     9    3    6 1    
    10    3   64 1    
    11    4    5 1    
    12    4   38 1    
    13    4   39 1    
    14    5   40 1    
    15    5   41 1    
    16    5   42 1    
    17    6    7 1    
    18    6    8 1    
    19    6   30 1    
    20    8    9 1    
    21    8   43 1    
    22    8   44 1    
    23    9   10 am   BACKBONE|DICT|INTERRES
    24    9   45 1    
    25   10   11 2    
    26   10   12 1    
    27   12   17 ar   
    28   12   13 ar   
    29   13   14 ar   
    30   13   46 1    
    31   14   15 ar   
    32   14   19 1    
    33   15   16 ar   
    34   15   47 1    
    35   16   17 ar   
    36   16   48 1    
    37   17   18 1    
    38   18   49 1    
    39   18   50 1    
    40   18   51 1    
    41   19   20 2    
    42   19   21 2    
    43   19   22 1    
    44   22   23 1    
    45   22   52 1    
    46   23   28 ar   
    47   23   24 ar   
    48   24   25 ar   
    49   24   53 1    
    50   25   26 ar   
    51   25   54 1    
    52   26   27 ar   
    53   26   29 1    
    54   27   28 ar   
    55   27   55 1    
    56   28   56 1    
    57   30   31 1    
    58   30   32 1    
    59   30   57 1    
    60   31   58 1    
    61   31   59 1    
    62   31   60 1    
    63   32   61 1    
    64   32   62 1    
    65   32   63 1    
@<TRIPOS>SUBSTRUCTURE
     1 UNK         1 GROUP             0       ****    0 ROOT    
