ZINC40415847_2213
                    3D
 Schrodinger Suite 2024-2.
 57 60  0  0  1  0            999 V2000
   -0.3129   52.4493   29.8441 C   0  0  0  0  0  0
    0.4779   51.6968   28.9844 C   0  0  0  0  0  0
    1.7772   52.1061   28.7153 C   0  0  0  0  0  0
    2.2685   53.3006   29.2625 C   0  0  0  0  0  0
    1.4398   54.0772   30.0796 C   0  0  0  0  0  0
    0.1562   53.6423   30.3864 C   0  0  0  0  0  0
    3.7121   53.7041   29.0767 C   0  0  0  0  0  0
    4.3044   54.1402   30.0626 O   0  0  0  0  0  0
    4.3224   53.4950   27.8790 N   0  0  0  0  0  0
    5.7923   53.5402   27.7803 C   0  0  0  0  0  0
    6.3870   54.8260   27.1780 C   0  0  0  0  0  0
    6.3866   54.8900   25.6345 C   0  0  0  0  0  0
    5.0750   54.7046   24.9802 N   0  0  0  0  0  0
    3.8069   54.7409   25.7307 C   0  0  0  0  0  0
    3.5520   53.5288   26.6293 C   0  0  0  0  0  0
    5.0240   54.4926   23.5535 C   0  0  0  0  0  0
    6.1117   54.7612   22.7065 C   0  0  0  0  0  0
    5.9693   54.6172   21.3234 C   0  0  0  0  0  0
    4.7819   54.0986   20.7800 C   0  0  0  0  0  0
    3.7229   53.8322   21.6527 C   0  0  0  0  0  0
    3.8801   54.0499   22.9746 N   0  3  0  0  0  0
    4.5766   53.8222   19.4141 N   0  0  0  0  0  0
    5.5001   53.6983   18.4377 C   0  0  0  0  0  0
    6.7040   53.9119   18.5845 O   0  0  0  0  0  0
    4.9177   53.2969   17.2902 N   0  0  0  0  0  0
    5.5066   52.9431   16.0613 C   0  0  0  0  0  0
    4.6330   52.4671   15.0764 C   0  0  0  0  0  0
    5.1159   52.0622   13.8315 C   0  0  0  0  0  0
    6.4800   52.1311   13.5550 C   0  0  0  0  0  0
    7.3633   52.6080   14.5259 C   0  0  0  0  0  0
    6.8820   53.0116   15.7710 C   0  0  0  0  0  0
    8.6885   52.6770   14.2630 F   0  0  0  0  0  0
    6.9430   51.7379   12.3447 F   0  0  0  0  0  0
   -1.2955   52.0865   30.1011 H   0  0  0  0  0  0
    0.0952   50.7771   28.5668 H   0  0  0  0  0  0
    2.4018   51.4728   28.1005 H   0  0  0  0  0  0
    1.7957   55.0042   30.5079 H   0  0  0  0  0  0
   -0.4647   54.2178   31.0553 H   0  0  0  0  0  0
    6.2451   53.3676   28.7595 H   0  0  0  0  0  0
    6.1139   52.6710   27.2069 H   0  0  0  0  0  0
    5.9045   55.6958   27.6159 H   0  0  0  0  0  0
    7.4305   54.8863   27.4998 H   0  0  0  0  0  0
    6.7720   55.8531   25.3007 H   0  0  0  0  0  0
    7.0446   54.1088   25.2481 H   0  0  0  0  0  0
    2.9567   54.8966   25.0687 H   0  0  0  0  0  0
    3.8286   55.6550   26.3232 H   0  0  0  0  0  0
    3.8315   52.6490   26.0584 H   0  0  0  0  0  0
    2.4766   53.4318   26.7672 H   0  0  0  0  0  0
    7.0526   55.1327   23.0908 H   0  0  0  0  0  0
    6.8109   54.8888   20.7020 H   0  0  0  0  0  0
    2.7552   53.4612   21.3439 H   0  0  0  0  0  0
    3.6273   53.5973   19.1603 H   0  0  0  0  0  0
    3.9216   53.1483   17.3219 H   0  0  0  0  0  0
    3.5737   52.3888   15.2749 H   0  0  0  0  0  0
    4.4352   51.6849   13.0822 H   0  0  0  0  0  0
    7.6034   53.3659   16.4889 H   0  0  0  0  0  0
    3.0964   53.8500   23.5802 H   0  0  0  0  0  0
  1  6  2  0  0  0
  1  2  1  0  0  0
  1 34  1  0  0  0
  2  3  2  0  0  0
  2 35  1  0  0  0
  3  4  1  0  0  0
  3 36  1  0  0  0
  4  5  2  0  0  0
  4  7  1  0  0  0
  5  6  1  0  0  0
  5 37  1  0  0  0
  6 38  1  0  0  0
  7  8  2  0  0  0
  7  9  1  0  0  0
  9 15  1  0  0  0
  9 10  1  0  0  0
 10 11  1  0  0  0
 10 39  1  0  0  0
 10 40  1  0  0  0
 11 12  1  0  0  0
 11 41  1  0  0  0
 11 42  1  0  0  0
 12 13  1  0  0  0
 12 43  1  0  0  0
 12 44  1  0  0  0
 13 14  1  0  0  0
 13 16  1  0  0  0
 14 15  1  0  0  0
 14 45  1  0  0  0
 14 46  1  0  0  0
 15 47  1  0  0  0
 15 48  1  0  0  0
 16 21  2  0  0  0
 16 17  1  0  0  0
 17 18  2  0  0  0
 17 49  1  0  0  0
 18 19  1  0  0  0
 18 50  1  0  0  0
 19 20  2  0  0  0
 19 22  1  0  0  0
 20 21  1  0  0  0
 20 51  1  0  0  0
 21 57  1  0  0  0
 22 23  1  0  0  0
 22 52  1  0  0  0
 23 24  2  0  0  0
 23 25  1  0  0  0
 25 26  1  0  0  0
 25 53  1  0  0  0
 26 31  2  0  0  0
 26 27  1  0  0  0
 27 28  2  0  0  0
 27 54  1  0  0  0
 28 29  1  0  0  0
 28 55  1  0  0  0
 29 30  2  0  0  0
 29 33  1  0  0  0
 30 31  1  0  0  0
 30 32  1  0  0  0
 31 56  1  0  0  0
M  CHG  1  21   1
M  END
> <i_i_glide_confnum>
386

> <i_i_glide_lignum>
2214

> <i_i_glide_posenum>
366

> <i_i_glide_rotatable_bonds>
7

> <i_m_Source_File_Index>
4021

> <b_m_subgroup_collapsed>
0

> <r_i_docking_score>
-6.26378

> <r_i_glide_ecoul>
-3.80768

> <r_i_glide_eff_state_penalty>
0

> <r_i_glide_einternal>
6.51722

> <r_i_glide_emodel>
-61.7033

> <r_i_glide_energy>
-44.9339

> <r_i_glide_erotb>
0.588041

> <r_i_glide_esite>
-0.123681

> <r_i_glide_evdw>
-41.1262

> <r_i_glide_gscore>
-6.26378

> <r_i_glide_hbond>
-0.204863

> <r_i_glide_ligand_efficiency>
-0.189812

> <r_i_glide_ligand_efficiency_ln>
-1.39303

> <r_i_glide_ligand_efficiency_sa>
-0.608827

> <r_i_glide_lipo>
-2.71957

> <r_i_glide_metal>
0

> <r_i_glide_rewards>
-1.17625

> <s_i_glide_gridfile>
wee1_glide-grid

> <s_m_Source_File>
wee1_decoys_glide_SP.sdf

> <s_m_Source_Path>
/Users/zhangxujun/Desktop

> <s_m_entry_id>
4296

> <s_m_entry_name>
wee1_decoys_glide_SP.4021

> <s_m_subgroup_title>
wee1_decoys_glide_SP

> <s_m_subgroupid>
wee1_decoys_glide_SP


$$$$
