@<TRIPOS>MOLECULE
ZINC01159664_2401
44   48    1
SMALL
USER_CHARGES


@<TRIPOS>ATOM
      1 C1          4.1036   53.9886   21.2302 C.3       1 UNK         0.0000 
      2 S2          3.0339   52.5424   21.4380 S.3       1 UNK         0.0000 
      3 C3          2.3088   52.6552   23.0415 C.ar      1 UNK         0.0000 
      4 N4          1.4769   51.6542   23.3881 N.ar      1 UNK         0.0000 
      5 C5          0.9682   51.7028   24.6422 C.ar      1 UNK         0.0000 
      6 C6          1.3268   52.7190   25.5607 C.ar      1 UNK         0.0000 
      7 N7          2.1668   53.6966   25.0981 N.ar      1 UNK         0.0000 
      8 N8          2.6558   53.6868   23.8476 N.ar      1 UNK         0.0000 
      9 C9          0.9293   52.8016   27.0393 C.ar      1 UNK         0.0000 
     10 C10         1.4962   53.8470   27.8028 C.ar      1 UNK         0.0000 
     11 C11         1.2167   54.0188   29.1548 C.ar      1 UNK         0.0000 
     12 C12         0.4195   53.0997   29.8183 C.ar      1 UNK         0.0000 
     13 C13        -0.1431   52.0504   29.1050 C.ar      1 UNK         0.0000 
     14 C14         0.0506   51.9058   27.7269 C.ar      1 UNK         0.0000 
     15 N15        -0.6719   50.8967   27.0824 N.pl3     1 UNK         0.0000 
     16 C16        -0.9683   50.9275   25.7087 C.3       1 UNK         0.0000 
     17 H17        -1.3427   51.9215   25.4805 H         1 UNK         0.0000 
     18 O18         0.1030   50.6757   24.8871 O.3       1 UNK         0.0000 
     19 C19        -1.9875   49.9020   25.3576 C.ar      1 UNK         0.0000 
     20 C20        -1.7707   48.5347   25.2816 C.ar      1 UNK         0.0000 
     21 N21        -2.9836   47.9861   24.9976 N.pl3     1 UNK         0.0000 
     22 H22        -3.1661   46.9986   24.9233 H         1 UNK         0.0000 
     23 N23        -3.9460   48.8950   24.8616 N.2       1 UNK         0.0000 
     24 C24        -3.3654   50.0652   25.0634 C.ar      1 UNK         0.0000 
     25 C25        -4.1852   51.3220   25.0014 C.ar      1 UNK         0.0000 
     26 C26        -5.5197   51.2980   25.4304 C.ar      1 UNK         0.0000 
     27 C27        -6.3024   52.4476   25.3744 C.ar      1 UNK         0.0000 
     28 C28        -5.7529   53.6306   24.8924 C.ar      1 UNK         0.0000 
     29 C29        -4.4242   53.6802   24.4819 C.ar      1 UNK         0.0000 
     30 C30        -3.6520   52.5193   24.5094 C.ar      1 UNK         0.0000 
     31 Br31        1.9058   55.5314   30.0809 Br        1 UNK         0.0000 
     32 H32         4.5526   53.9876   20.2377 H         1 UNK         0.0000 
     33 H33         4.9007   53.9864   21.9736 H         1 UNK         0.0000 
     34 H34         3.5145   54.8972   21.3427 H         1 UNK         0.0000 
     35 H35         2.1532   54.5803   27.3598 H         1 UNK         0.0000 
     36 H36         0.2133   53.2095   30.8739 H         1 UNK         0.0000 
     37 H37        -0.7911   51.3608   29.6299 H         1 UNK         0.0000 
     38 H38        -0.8943   50.0483   27.6011 H         1 UNK         0.0000 
     39 H39        -0.8940   47.9260   25.4585 H         1 UNK         0.0000 
     40 H40        -5.9554   50.3852   25.8077 H         1 UNK         0.0000 
     41 H41        -7.3331   52.4161   25.6957 H         1 UNK         0.0000 
     42 H42        -6.3732   54.5107   24.8320 H         1 UNK         0.0000 
     43 H43        -4.0087   54.6019   24.0986 H         1 UNK         0.0000 
     44 H44        -2.6492   52.5587   24.1150 H         1 UNK         0.0000 
@<TRIPOS>BOND
     1    1    2 1    
     2    1   32 1    
     3    1   33 1    
     4    1   34 1    
     5    2    3 1    
     6    3    8 ar   
     7    3    4 ar   
     8    4    5 ar   
     9    5   18 1    
    10    5    6 ar   
    11    6    7 ar   
    12    6    9 1    
    13    7    8 ar   
    14    9   14 ar   
    15    9   10 ar   
    16   10   11 ar   
    17   10   35 1    
    18   11   12 ar   
    19   11   31 1    
    20   12   13 ar   
    21   12   36 1    
    22   13   14 ar   
    23   13   37 1    
    24   14   15 1    
    25   15   16 1    
    26   15   38 1    
    27   16   17 1    
    28   16   18 1    
    29   16   19 1    
    30   19   24 ar   
    31   19   20 ar   
    32   20   21 ar   
    33   20   39 1    
    34   21   22 1    
    35   21   23 ar   
    36   23   24 ar   
    37   24   25 1    
    38   25   30 ar   
    39   25   26 ar   
    40   26   27 ar   
    41   26   40 1    
    42   27   28 ar   
    43   27   41 1    
    44   28   29 ar   
    45   28   42 1    
    46   29   30 ar   
    47   29   43 1    
    48   30   44 1    
@<TRIPOS>SUBSTRUCTURE
     1 UNK         1 GROUP             0       ****    0 ROOT    
