@<TRIPOS>MOLECULE
ZINC36612696_4393
58   61    1
SMALL
USER_CHARGES


@<TRIPOS>ATOM
      1 C1          5.7711   57.6498   16.7518 C.3       1 UNK         0.0000 
      2 C2          5.8203   56.2978   17.4979 C.3       1 UNK         0.0000 
      3 C3          4.4427   55.6042   17.3269 C.3       1 UNK         0.0000 
      4 C4          4.2629   54.4666   18.3298 C.2       1 UNK         0.0000 
      5 C5          4.8800   54.3607   19.5421 C.2       1 UNK         0.0000 
      6 C6          4.5613   53.1509   20.4797 C.3       1 UNK         0.0000 
      7 H7          5.4914   52.5924   20.5987 H         1 UNK         0.0000 
      8 C8          3.5711   52.1882   19.7902 C.2       1 UNK         0.0000 
      9 C9          3.0631   52.4657   18.5728 C.2       1 UNK         0.0000 
     10 O10         3.3518   53.5762   17.8663 O.3       1 UNK         0.0000 
     11 N11         2.2010   51.7009   17.8374 N.pl3     1 UNK         0.0000 
     12 C12         3.1243   51.0202   20.4835 C.1       1 UNK         0.0000 
     13 N13         2.7044   50.1076   21.0611 N.1       1 UNK         0.0000 
     14 C14         4.1731   53.5042   21.9281 C.ar      1 UNK         0.0000 
     15 C15         5.1531   53.7463   22.8930 C.ar      1 UNK         0.0000 
     16 C16         4.8087   54.0968   24.2093 C.ar      1 UNK         0.0000 
     17 C17         3.4579   54.1095   24.5847 C.ar      1 UNK         0.0000 
     18 C18         2.4719   53.8232   23.6297 C.ar      1 UNK         0.0000 
     19 C19         2.8308   53.5466   22.3151 C.ar      1 UNK         0.0000 
     20 Br20        0.6245   53.8098   24.0807 Br        1 UNK         0.0000 
     21 O21         3.1068   54.4964   25.8574 O.3       1 UNK         0.0000 
     22 C22         2.8373   53.4562   26.7983 C.3       1 UNK         0.0000 
     23 C23         4.0252   53.3314   27.7708 C.3       1 UNK         0.0000 
     24 C24         3.6919   54.2608   28.9394 C.3       1 UNK         0.0000 
     25 C25         2.1852   54.0886   29.1040 C.3       1 UNK         0.0000 
     26 C26         1.6539   53.9255   27.6724 C.3       1 UNK         0.0000 
     27 O27         5.7362   54.4547   25.1680 O.3       1 UNK         0.0000 
     28 C28         7.1026   54.5698   24.8066 C.3       1 UNK         0.0000 
     29 C29         5.8999   55.3759   19.9213 C.2       1 UNK         0.0000 
     30 O30         6.6650   55.2585   20.8740 O.2       1 UNK         0.0000 
     31 C31         6.0310   56.6041   19.0024 C.3       1 UNK         0.0000 
     32 C32         6.9493   55.3707   16.9768 C.3       1 UNK         0.0000 
     33 H33         5.5957   57.5091   15.6840 H         1 UNK         0.0000 
     34 H34         4.9777   58.2998   17.1263 H         1 UNK         0.0000 
     35 H35         6.7090   58.1977   16.8546 H         1 UNK         0.0000 
     36 H36         3.6084   56.2854   17.5024 H         1 UNK         0.0000 
     37 H37         4.3555   55.2331   16.3046 H         1 UNK         0.0000 
     38 H38         2.0537   50.7420   18.1158 H         1 UNK         0.0000 
     39 H39         2.1145   51.8826   16.8459 H         1 UNK         0.0000 
     40 H40         6.1900   53.6831   22.6058 H         1 UNK         0.0000 
     41 H41         2.0480   53.3578   21.5977 H         1 UNK         0.0000 
     42 H42         2.6102   52.5011   26.3207 H         1 UNK         0.0000 
     43 H43         4.1301   52.3001   28.1152 H         1 UNK         0.0000 
     44 H44         4.9747   53.6263   27.3263 H         1 UNK         0.0000 
     45 H45         4.2466   54.0105   29.8436 H         1 UNK         0.0000 
     46 H46         3.9257   55.2965   28.6795 H         1 UNK         0.0000 
     47 H47         1.9733   53.1876   29.6853 H         1 UNK         0.0000 
     48 H48         1.7273   54.9296   29.6269 H         1 UNK         0.0000 
     49 H49         1.2922   54.8968   27.3362 H         1 UNK         0.0000 
     50 H50         0.8090   53.2393   27.6258 H         1 UNK         0.0000 
     51 H51         7.6463   54.8941   25.6897 H         1 UNK         0.0000 
     52 H52         7.5055   53.6099   24.4846 H         1 UNK         0.0000 
     53 H53         7.2552   55.3159   24.0236 H         1 UNK         0.0000 
     54 H54         5.2542   57.2957   19.3293 H         1 UNK         0.0000 
     55 H55         6.9833   57.0976   19.1943 H         1 UNK         0.0000 
     56 H56         6.8345   55.1726   15.9114 H         1 UNK         0.0000 
     57 H57         7.9304   55.8245   17.1120 H         1 UNK         0.0000 
     58 H58         6.9707   54.4015   17.4768 H         1 UNK         0.0000 
@<TRIPOS>BOND
     1    1    2 1    
     2    1   33 1    
     3    1   34 1    
     4    1   35 1    
     5    2   31 1    
     6    2    3 1    
     7    2   32 1    
     8    3    4 1    
     9    3   36 1    
    10    3   37 1    
    11    4   10 1    
    12    4    5 2    
    13    5    6 1    
    14    5   29 1    
    15    6    7 1    
    16    6    8 1    
    17    6   14 1    
    18    8    9 2    
    19    8   12 1    
    20    9   10 1    
    21    9   11 1    
    22   11   38 1    
    23   11   39 1    
    24   12   13 3    
    25   14   19 ar   
    26   14   15 ar   
    27   15   16 ar   
    28   15   40 1    
    29   16   17 ar   
    30   16   27 1    
    31   17   18 ar   
    32   17   21 1    
    33   18   19 ar   
    34   18   20 1    
    35   19   41 1    
    36   21   22 1    
    37   22   26 1    
    38   22   23 1    
    39   22   42 1    
    40   23   24 1    
    41   23   43 1    
    42   23   44 1    
    43   24   25 1    
    44   24   45 1    
    45   24   46 1    
    46   25   26 1    
    47   25   47 1    
    48   25   48 1    
    49   26   49 1    
    50   26   50 1    
    51   27   28 1    
    52   28   51 1    
    53   28   52 1    
    54   28   53 1    
    55   29   30 2    
    56   29   31 1    
    57   31   54 1    
    58   31   55 1    
    59   32   56 1    
    60   32   57 1    
    61   32   58 1    
@<TRIPOS>SUBSTRUCTURE
     1 UNK         1 GROUP             0       ****    0 ROOT    
