ZINC35724594_2881
                    3D
 Schrodinger Suite 2024-2.
 70 72  0  0  1  0            999 V2000
   -0.7601   52.0998   19.8213 C   0  0  0  0  0  0
   -0.5517   50.5922   19.6498 C   0  0  0  0  0  0
    0.9190   50.1597   19.3954 C   0  0  1  0  0  0
    0.8870   49.0679   19.3823 H   0  0  0  0  0  0
    1.3533   50.5476   17.9671 C   0  0  0  0  0  0
    1.9869   50.5336   20.4934 C   0  0  2  0  0  0
    2.8282   49.8473   20.3720 H   0  0  0  0  0  0
    1.4311   50.2431   21.9178 C   0  0  0  0  0  0
    0.9181   49.1443   22.1285 O   0  0  0  0  0  0
    1.5235   51.2317   22.8328 N   0  0  0  0  0  0
    1.0502   51.2038   24.1326 C   0  0  0  0  0  0
    0.5666   50.1817   24.8042 N   0  0  0  0  0  0
    0.2843   50.5067   26.1268 N   0  0  0  0  0  0
    0.5573   51.7601   26.4218 C   0  0  0  0  0  0
    1.1268   52.6740   25.0473 S   0  0  0  0  0  0
    0.4507   52.3586   27.7935 C   0  0  0  0  0  0
   -0.2757   51.6985   28.7929 C   0  0  0  0  0  0
   -0.3371   52.2208   30.0831 C   0  0  0  0  0  0
    0.3228   53.4120   30.3776 C   0  0  0  0  0  0
    1.0370   54.0865   29.3913 C   0  0  0  0  0  0
    1.1038   53.5588   28.1051 C   0  0  0  0  0  0
    0.2687   54.0584   31.9757 Cl  0  0  0  0  0  0
    2.5396   51.8917   20.3194 N   0  0  0  0  0  0
    3.8012   52.2620   20.5980 C   0  0  0  0  0  0
    4.6874   51.4838   20.9524 O   0  0  0  0  0  0
    3.9598   53.5850   20.4241 N   0  0  0  0  0  0
    5.1647   54.3065   20.4983 C   0  0  0  0  0  0
    5.6349   54.9002   19.2991 C   0  0  0  0  0  0
    6.8092   55.6585   19.3306 C   0  0  0  0  0  0
    7.5028   55.8526   20.5135 C   0  0  0  0  0  0
    7.0290   55.2969   21.6924 C   0  0  0  0  0  0
    5.8712   54.5014   21.7209 C   0  0  0  0  0  0
    5.4474   53.8457   23.0613 C   0  0  0  0  0  0
    6.4903   53.9187   24.2034 C   0  0  0  0  0  0
    4.0853   54.3307   23.5929 C   0  0  0  0  0  0
    4.9498   54.7350   17.9243 C   0  0  0  0  0  0
    5.0168   53.2976   17.3712 C   0  0  0  0  0  0
    3.5356   55.3395   17.8567 C   0  0  0  0  0  0
   -1.8229   52.3331   19.8739 H   0  0  0  0  0  0
   -0.2993   52.4650   20.7394 H   0  0  0  0  0  0
   -0.3409   52.6610   18.9867 H   0  0  0  0  0  0
   -1.1766   50.2401   18.8276 H   0  0  0  0  0  0
   -0.9507   50.0855   20.5288 H   0  0  0  0  0  0
    1.4527   51.6249   17.8391 H   0  0  0  0  0  0
    2.3121   50.0986   17.7196 H   0  0  0  0  0  0
    0.6387   50.1913   17.2251 H   0  0  0  0  0  0
    1.9536   52.0911   22.5281 H   0  0  0  0  0  0
   -0.7907   50.7737   28.5746 H   0  0  0  0  0  0
   -0.8917   51.6992   30.8533 H   0  0  0  0  0  0
    1.5453   55.0111   29.6235 H   0  0  0  0  0  0
    1.6788   54.0880   27.3600 H   0  0  0  0  0  0
    1.9083   52.5678   19.9162 H   0  0  0  0  0  0
    3.1792   54.1000   20.0433 H   0  0  0  0  0  0
    7.2011   56.1034   18.4268 H   0  0  0  0  0  0
    8.4178   56.4273   20.5147 H   0  0  0  0  0  0
    7.6071   55.4859   22.5819 H   0  0  0  0  0  0
    5.3606   52.7833   22.8587 H   0  0  0  0  0  0
    7.4557   53.5172   23.8914 H   0  0  0  0  0  0
    6.6443   54.9411   24.5505 H   0  0  0  0  0  0
    6.1673   53.3367   25.0673 H   0  0  0  0  0  0
    3.3217   54.4119   22.8214 H   0  0  0  0  0  0
    3.7141   53.6370   24.3456 H   0  0  0  0  0  0
    4.1685   55.2965   24.0823 H   0  0  0  0  0  0
    5.5282   55.3285   17.2133 H   0  0  0  0  0  0
    6.0139   52.8723   17.4877 H   0  0  0  0  0  0
    4.3170   52.6248   17.8636 H   0  0  0  0  0  0
    4.7770   53.2757   16.3082 H   0  0  0  0  0  0
    3.5023   56.3105   18.3513 H   0  0  0  0  0  0
    3.2264   55.4906   16.8223 H   0  0  0  0  0  0
    2.7899   54.6931   18.3155 H   0  0  0  0  0  0
  1  2  1  0  0  0
  1 39  1  0  0  0
  1 40  1  0  0  0
  1 41  1  0  0  0
  2  3  1  0  0  0
  2 42  1  0  0  0
  2 43  1  0  0  0
  3  4  1  0  0  0
  3  5  1  0  0  0
  3  6  1  0  0  0
  5 44  1  0  0  0
  5 45  1  0  0  0
  5 46  1  0  0  0
  6  7  1  0  0  0
  6  8  1  0  0  0
  6 23  1  0  0  0
  8  9  2  0  0  0
  8 10  1  0  0  0
 10 11  1  0  0  0
 10 47  1  0  0  0
 11 15  1  0  0  0
 11 12  2  0  0  0
 12 13  1  0  0  0
 13 14  2  0  0  0
 14 15  1  0  0  0
 14 16  1  0  0  0
 16 21  2  0  0  0
 16 17  1  0  0  0
 17 18  2  0  0  0
 17 48  1  0  0  0
 18 19  1  0  0  0
 18 49  1  0  0  0
 19 20  2  0  0  0
 19 22  1  0  0  0
 20 21  1  0  0  0
 20 50  1  0  0  0
 21 51  1  0  0  0
 23 24  1  0  0  0
 23 52  1  0  0  0
 24 25  2  0  0  0
 24 26  1  0  0  0
 26 27  1  0  0  0
 26 53  1  0  0  0
 27 32  2  0  0  0
 27 28  1  0  0  0
 28 29  2  0  0  0
 28 36  1  0  0  0
 29 30  1  0  0  0
 29 54  1  0  0  0
 30 31  2  0  0  0
 30 55  1  0  0  0
 31 32  1  0  0  0
 31 56  1  0  0  0
 32 33  1  0  0  0
 33 34  1  0  0  0
 33 35  1  0  0  0
 33 57  1  0  0  0
 34 58  1  0  0  0
 34 59  1  0  0  0
 34 60  1  0  0  0
 35 61  1  0  0  0
 35 62  1  0  0  0
 35 63  1  0  0  0
 36 37  1  0  0  0
 36 38  1  0  0  0
 36 64  1  0  0  0
 37 65  1  0  0  0
 37 66  1  0  0  0
 37 67  1  0  0  0
 38 68  1  0  0  0
 38 69  1  0  0  0
 38 70  1  0  0  0
M  END
> <i_i_glide_confnum>
13

> <i_i_glide_lignum>
2882

> <i_i_glide_posenum>
259

> <i_i_glide_rotatable_bonds>
12

> <i_m_Source_File_Index>
4546

> <b_m_subgroup_collapsed>
0

> <r_i_docking_score>
-5.44597

> <r_i_glide_ecoul>
-5.45567

> <r_i_glide_eff_state_penalty>
0

> <r_i_glide_einternal>
15.1971

> <r_i_glide_emodel>
-65.0018

> <r_i_glide_energy>
-54.3033

> <r_i_glide_erotb>
0.664735

> <r_i_glide_esite>
-0.0832685

> <r_i_glide_evdw>
-48.8476

> <r_i_glide_gscore>
-5.44597

> <r_i_glide_hbond>
-0.255241

> <r_i_glide_ligand_efficiency>
-0.151277

> <r_i_glide_ligand_efficiency_ln>
-1.18816

> <r_i_glide_ligand_efficiency_sa>
-0.499506

> <r_i_glide_lipo>
-2.37085

> <r_i_glide_metal>
0

> <r_i_glide_rewards>
-0.14062

> <s_i_glide_gridfile>
wee1_glide-grid

> <s_m_Source_File>
wee1_decoys_glide_SP.sdf

> <s_m_Source_Path>
/Users/zhangxujun/Desktop

> <s_m_entry_id>
4821

> <s_m_entry_name>
wee1_decoys_glide_SP.4546

> <s_m_subgroup_title>
wee1_decoys_glide_SP

> <s_m_subgroupid>
wee1_decoys_glide_SP


$$$$
