ZINC39595597_622
                    3D
 Schrodinger Suite 2024-2.
 66 69  0  0  1  0            999 V2000
    4.5039   54.4730   25.5542 C   0  0  0  0  0  0
    3.1557   54.0280   24.9407 C   0  0  1  0  0  0
    2.4512   54.8569   24.9116 H   0  0  0  0  0  0
    3.3623   53.6244   23.4576 C   0  0  0  0  0  0
    2.2851   52.7794   22.9318 N   0  0  0  0  0  0
    2.4670   51.7160   22.1264 C   0  0  0  0  0  0
    3.5755   51.4195   21.6813 O   0  0  0  0  0  0
    1.2792   50.7538   21.8606 C   0  0  1  0  0  0
    1.4157   49.9174   22.5489 H   0  0  0  0  0  0
   -0.0606   51.4215   22.2147 C   0  0  0  0  0  0
   -1.0212   50.5995   21.4793 N   0  0  0  0  0  0
   -0.3864   49.8481   20.3903 C   0  0  0  0  0  0
    1.1097   50.2459   20.4010 C   0  0  0  0  0  0
    1.4148   51.3351   19.3204 C   0  0  0  0  0  0
    1.1254   50.8355   17.8882 C   0  0  0  0  0  0
    1.9043   49.5222   17.6398 N   0  3  0  0  0  0
    1.7470   48.4330   18.7196 C   0  0  0  0  0  0
    2.0661   49.0704   20.0814 C   0  0  0  0  0  0
   -2.2527   50.2499   21.9342 C   0  0  0  0  0  0
   -2.9799   49.4539   21.3356 O   0  0  0  0  0  0
   -2.7165   50.8220   23.2580 C   0  0  0  0  0  0
   -2.8886   52.2110   23.3678 C   0  0  0  0  0  0
   -3.3265   52.7859   24.5568 C   0  0  0  0  0  0
   -3.5906   51.9810   25.6609 C   0  0  0  0  0  0
   -3.4208   50.5997   25.5712 C   0  0  0  0  0  0
   -2.9923   49.9968   24.3777 C   0  0  0  0  0  0
   -2.7682   48.4696   24.3734 C   0  0  0  0  0  0
   -1.5915   48.1675   23.8224 F   0  0  0  0  0  0
   -2.7306   47.9495   25.6023 F   0  0  0  0  0  0
   -3.7254   47.8608   23.6735 F   0  0  0  0  0  0
    2.5708   52.9322   25.6693 O   0  0  0  0  0  0
    1.9152   53.1277   26.8788 C   0  0  0  0  0  0
    1.9492   54.3124   27.6319 C   0  0  0  0  0  0
    1.2743   54.4018   28.8457 C   0  0  0  0  0  0
    0.5537   53.3083   29.3152 C   0  0  0  0  0  0
    0.4934   52.1304   28.5777 C   0  0  0  0  0  0
    1.1739   52.0446   27.3641 C   0  0  0  0  0  0
   -0.0984   53.3995   30.4955 F   0  0  0  0  0  0
    4.9387   55.2970   24.9839 H   0  0  0  0  0  0
    4.4345   54.8037   26.5870 H   0  0  0  0  0  0
    5.2230   53.6527   25.5394 H   0  0  0  0  0  0
    3.4467   54.5180   22.8358 H   0  0  0  0  0  0
    4.3233   53.1244   23.3534 H   0  0  0  0  0  0
    1.3615   52.9635   23.2962 H   0  0  0  0  0  0
   -0.1852   51.4287   23.3005 H   0  0  0  0  0  0
   -0.0710   52.4169   21.7634 H   0  0  0  0  0  0
   -0.8923   49.8640   19.4267 H   0  0  0  0  0  0
   -0.4093   48.8051   20.7208 H   0  0  0  0  0  0
    0.8026   52.2181   19.5056 H   0  0  0  0  0  0
    2.4476   51.6853   19.3715 H   0  0  0  0  0  0
    0.0724   50.6123   17.7032 H   0  0  0  0  0  0
    1.4701   51.5381   17.1265 H   0  0  0  0  0  0
    1.6343   49.1369   16.7463 H   0  0  0  0  0  0
    0.7299   48.0441   18.6415 H   0  0  0  0  0  0
    2.4588   47.6481   18.4514 H   0  0  0  0  0  0
    3.1058   49.3845   20.1360 H   0  0  0  0  0  0
    1.9579   48.2904   20.8374 H   0  0  0  0  0  0
   -2.6898   52.8523   22.5214 H   0  0  0  0  0  0
   -3.4661   53.8545   24.6212 H   0  0  0  0  0  0
   -3.9245   52.4215   26.5869 H   0  0  0  0  0  0
   -3.6221   50.0009   26.4492 H   0  0  0  0  0  0
    2.4785   55.1834   27.2853 H   0  0  0  0  0  0
    1.3010   55.3165   29.4174 H   0  0  0  0  0  0
   -0.0775   51.2889   28.9426 H   0  0  0  0  0  0
    1.1186   51.1294   26.7959 H   0  0  0  0  0  0
    2.9069   49.6964   17.5033 H   0  0  0  0  0  0
  1  2  1  0  0  0
  1 39  1  0  0  0
  1 40  1  0  0  0
  1 41  1  0  0  0
  2  3  1  0  0  0
  2  4  1  0  0  0
  2 31  1  0  0  0
  4  5  1  0  0  0
  4 42  1  0  0  0
  4 43  1  0  0  0
  5  6  1  0  0  0
  5 44  1  0  0  0
  6  7  2  0  0  0
  6  8  1  0  0  0
  8  9  1  0  0  0
  8 13  1  0  0  0
  8 10  1  0  0  0
 10 11  1  0  0  0
 10 45  1  0  0  0
 10 46  1  0  0  0
 11 12  1  0  0  0
 11 19  1  0  0  0
 12 13  1  0  0  0
 12 47  1  0  0  0
 12 48  1  0  0  0
 13 18  1  0  0  0
 13 14  1  0  0  0
 14 15  1  0  0  0
 14 49  1  0  0  0
 14 50  1  0  0  0
 15 16  1  0  0  0
 15 51  1  0  0  0
 15 52  1  0  0  0
 16 17  1  0  0  0
 16 53  1  0  0  0
 16 66  1  0  0  0
 17 18  1  0  0  0
 17 54  1  0  0  0
 17 55  1  0  0  0
 18 56  1  0  0  0
 18 57  1  0  0  0
 19 20  2  0  0  0
 19 21  1  0  0  0
 21 26  2  0  0  0
 21 22  1  0  0  0
 22 23  2  0  0  0
 22 58  1  0  0  0
 23 24  1  0  0  0
 23 59  1  0  0  0
 24 25  2  0  0  0
 24 60  1  0  0  0
 25 26  1  0  0  0
 25 61  1  0  0  0
 26 27  1  0  0  0
 27 28  1  0  0  0
 27 29  1  0  0  0
 27 30  1  0  0  0
 31 32  1  0  0  0
 32 37  2  0  0  0
 32 33  1  0  0  0
 33 34  2  0  0  0
 33 62  1  0  0  0
 34 35  1  0  0  0
 34 63  1  0  0  0
 35 36  2  0  0  0
 35 38  1  0  0  0
 36 37  1  0  0  0
 36 64  1  0  0  0
 37 65  1  0  0  0
M  CHG  1  16   1
M  END
> <i_i_glide_confnum>
334

> <i_i_glide_lignum>
623

> <i_i_glide_posenum>
285

> <i_i_glide_rotatable_bonds>
9

> <i_m_Source_File_Index>
3887

> <b_m_subgroup_collapsed>
0

> <r_i_docking_score>
-4.01884

> <r_i_glide_ecoul>
-3.455

> <r_i_glide_eff_state_penalty>
0

> <r_i_glide_einternal>
14.2846

> <r_i_glide_emodel>
-38.9899

> <r_i_glide_energy>
-34.7903

> <r_i_glide_erotb>
0.554202

> <r_i_glide_esite>
-0.240615

> <r_i_glide_evdw>
-31.3353

> <r_i_glide_gscore>
-4.01884

> <r_i_glide_hbond>
-0.170183

> <r_i_glide_ligand_efficiency>
-0.111634

> <r_i_glide_ligand_efficiency_ln>
-0.876802

> <r_i_glide_ligand_efficiency_sa>
-0.368609

> <r_i_glide_lipo>
-1.94396

> <r_i_glide_metal>
0

> <r_i_glide_rewards>
-0.133268

> <s_i_glide_gridfile>
wee1_glide-grid

> <s_m_Source_File>
wee1_decoys_glide_SP.sdf

> <s_m_Source_Path>
/Users/zhangxujun/Desktop

> <s_m_entry_id>
4162

> <s_m_entry_name>
wee1_decoys_glide_SP.3887

> <s_m_subgroup_title>
wee1_decoys_glide_SP

> <s_m_subgroupid>
wee1_decoys_glide_SP


$$$$
