ZINC22860147_4030
                    3D
 Schrodinger Suite 2024-2.
 68 74  0  0  1  0            999 V2000
    6.8339   54.5364   24.0088 C   0  0  0  0  0  0
    6.3071   54.5218   22.5810 C   0  0  0  0  0  0
    6.6070   55.5100   21.8278 N   0  0  0  0  0  0
    6.2406   55.4276   20.5324 N   0  0  0  0  0  0
    6.2775   56.4831   19.6943 C   0  0  0  0  0  0
    6.7042   57.5897   20.0238 O   0  0  0  0  0  0
    5.6954   56.2628   18.3136 C   0  0  0  0  0  0
    4.7395   55.2447   18.1145 C   0  0  0  0  0  0
    4.1665   55.0248   16.8585 C   0  0  0  0  0  0
    4.4491   55.7676   15.7600 N   0  0  0  0  0  0
    5.3551   56.7291   15.9493 C   0  0  0  0  0  0
    6.0216   57.0340   17.1649 C   0  0  0  0  0  0
    6.9028   58.1213   16.8034 C   0  0  0  0  0  0
    6.7607   58.4296   15.5347 N   0  0  0  0  0  0
    5.8358   57.6131   15.0068 N   0  0  0  0  0  0
    5.4862   57.7324   13.6004 C   0  0  0  0  0  0
    7.8996   58.8956   17.6458 C   0  0  0  0  0  0
    9.2590   58.3046   17.9346 C   0  0  0  0  0  0
    9.1343   59.5279   17.0407 C   0  0  0  0  0  0
    3.1894   53.8782   16.6140 C   0  0  0  0  0  0
    3.4353   52.4965   17.1742 C   0  0  0  0  0  0
    2.2696   53.3149   17.6803 C   0  0  0  0  0  0
    5.5001   53.2646   22.1824 C   0  0  0  0  0  0
    3.9933   53.2113   22.5831 C   0  0  1  0  0  0
    3.7558   53.2972   24.1324 C   0  0  0  0  0  0
    2.3054   52.8738   24.5107 C   0  0  1  0  0  0
    2.2081   52.7821   25.5930 H   0  0  0  0  0  0
    1.4370   54.0367   24.0058 C   0  0  0  0  0  0
    1.6398   54.1768   22.4827 C   0  0  1  0  0  0
    1.1044   55.0578   22.2117 H   0  0  0  0  0  0
    3.1310   54.3783   22.0608 C   0  0  0  0  0  0
    1.0808   52.9185   21.7856 C   0  0  0  0  0  0
    1.9203   51.7249   22.2820 C   0  0  2  0  0  0
    1.7943   51.5714   23.8059 C   0  0  0  0  0  0
    3.3999   51.9251   21.8929 C   0  0  0  0  0  0
    1.2541   50.0637   21.4093 Br  0  0  0  0  0  0
    7.4034   53.6333   24.2248 H   0  0  0  0  0  0
    7.5038   55.3800   24.1837 H   0  0  0  0  0  0
    6.0409   54.6248   24.7452 H   0  0  0  0  0  0
    5.8445   54.5473   20.2426 H   0  0  0  0  0  0
    4.4272   54.6058   18.9258 H   0  0  0  0  0  0
    4.4134   57.9051   13.5102 H   0  0  0  0  0  0
    6.0210   58.5638   13.1399 H   0  0  0  0  0  0
    5.7501   56.8067   13.0878 H   0  0  0  0  0  0
    7.4320   59.4662   18.4499 H   0  0  0  0  0  0
    9.6684   58.4136   18.9390 H   0  0  0  0  0  0
    9.5143   57.3409   17.4886 H   0  0  0  0  0  0
    9.3065   59.4237   15.9675 H   0  0  0  0  0  0
    9.4409   60.5052   17.4135 H   0  0  0  0  0  0
    2.7708   53.8856   15.6044 H   0  0  0  0  0  0
    3.2488   51.6300   16.5380 H   0  0  0  0  0  0
    4.3038   52.3458   17.8169 H   0  0  0  0  0  0
    2.3079   53.6961   18.6994 H   0  0  0  0  0  0
    1.2575   53.0333   17.3895 H   0  0  0  0  0  0
    6.0056   52.3847   22.5799 H   0  0  0  0  0  0
    5.5429   53.1123   21.1046 H   0  0  0  0  0  0
    3.8838   54.3343   24.4481 H   0  0  0  0  0  0
    4.5368   52.8968   24.7504 H   0  0  0  0  0  0
    1.7271   54.9653   24.4807 H   0  0  0  0  0  0
    0.3845   53.8825   24.2508 H   0  0  0  0  0  0
    3.2291   54.4720   20.9807 H   0  0  0  0  0  0
    3.5085   55.3020   22.4682 H   0  0  0  0  0  0
    0.0218   52.8251   22.0248 H   0  0  0  0  0  0
    1.1436   52.9949   20.7007 H   0  0  0  0  0  0
    2.3127   50.6614   24.0812 H   0  0  0  0  0  0
    0.7526   51.3941   24.0770 H   0  0  0  0  0  0
    3.9832   51.0258   22.0818 H   0  0  0  0  0  0
    3.4600   52.0297   20.8077 H   0  0  0  0  0  0
  1  2  1  0  0  0
  1 37  1  0  0  0
  1 38  1  0  0  0
  1 39  1  0  0  0
  2  3  2  0  0  0
  2 23  1  0  0  0
  3  4  1  0  0  0
  4  5  1  0  0  0
  4 40  1  0  0  0
  5  6  2  0  0  0
  5  7  1  0  0  0
  7 12  2  0  0  0
  7  8  1  0  0  0
  8  9  2  0  0  0
  8 41  1  0  0  0
  9 10  1  0  0  0
  9 20  1  0  0  0
 10 11  2  0  0  0
 11 15  1  0  0  0
 11 12  1  0  0  0
 12 13  1  0  0  0
 13 14  2  0  0  0
 13 17  1  0  0  0
 14 15  1  0  0  0
 15 16  1  0  0  0
 16 42  1  0  0  0
 16 43  1  0  0  0
 16 44  1  0  0  0
 17 19  1  0  0  0
 17 18  1  0  0  0
 17 45  1  0  0  0
 18 19  1  0  0  0
 18 46  1  0  0  0
 18 47  1  0  0  0
 19 48  1  0  0  0
 19 49  1  0  0  0
 20 22  1  0  0  0
 20 21  1  0  0  0
 20 50  1  0  0  0
 21 22  1  0  0  0
 21 51  1  0  0  0
 21 52  1  0  0  0
 22 53  1  0  0  0
 22 54  1  0  0  0
 23 24  1  0  0  0
 23 55  1  0  0  0
 23 56  1  0  0  0
 24 31  1  0  0  0
 24 35  1  0  0  0
 24 25  1  0  0  0
 25 26  1  0  0  0
 25 57  1  0  0  0
 25 58  1  0  0  0
 26 27  1  0  0  0
 26 34  1  0  0  0
 26 28  1  0  0  0
 28 29  1  0  0  0
 28 59  1  0  0  0
 28 60  1  0  0  0
 29 30  1  0  0  0
 29 31  1  0  0  0
 29 32  1  0  0  0
 31 61  1  0  0  0
 31 62  1  0  0  0
 32 33  1  0  0  0
 32 63  1  0  0  0
 32 64  1  0  0  0
 33 34  1  0  0  0
 33 35  1  0  0  0
 33 36  1  0  0  0
 34 65  1  0  0  0
 34 66  1  0  0  0
 35 67  1  0  0  0
 35 68  1  0  0  0
M  END
> <i_i_glide_confnum>
129

> <i_i_glide_lignum>
4031

> <i_i_glide_posenum>
389

> <i_i_glide_rotatable_bonds>
7

> <i_m_Source_File_Index>
4152

> <b_m_subgroup_collapsed>
0

> <r_i_docking_score>
-3.63052

> <r_i_glide_ecoul>
-5.59854

> <r_i_glide_eff_state_penalty>
0

> <r_i_glide_einternal>
10.7892

> <r_i_glide_emodel>
-23.5368

> <r_i_glide_energy>
-27.5741

> <r_i_glide_erotb>
0.448793

> <r_i_glide_esite>
-0.00478459

> <r_i_glide_evdw>
-21.9756

> <r_i_glide_gscore>
-3.63052

> <r_i_glide_hbond>
-0.32

> <r_i_glide_ligand_efficiency>
-0.10678

> <r_i_glide_ligand_efficiency_ln>
-0.802083

> <r_i_glide_ligand_efficiency_sa>
-0.345925

> <r_i_glide_lipo>
-1.45164

> <r_i_glide_metal>
0

> <r_i_glide_rewards>
-0.36432

> <s_i_glide_gridfile>
wee1_glide-grid

> <s_m_Source_File>
wee1_decoys_glide_SP.sdf

> <s_m_Source_Path>
/Users/zhangxujun/Desktop

> <s_m_entry_id>
4427

> <s_m_entry_name>
wee1_decoys_glide_SP.4152

> <s_m_subgroup_title>
wee1_decoys_glide_SP

> <s_m_subgroupid>
wee1_decoys_glide_SP


$$$$
