@<TRIPOS>MOLECULE
ZINC46793171_95
64   67    1
SMALL
USER_CHARGES


@<TRIPOS>ATOM
      1 C1          7.5725   51.5440   14.4773 C.3       1 UNK         0.0000 
      2 C2          7.0317   52.6050   15.4165 C.ar      1 UNK         0.0000 
      3 C3          5.7285   52.5267   15.8997 C.ar      1 UNK         0.0000 
      4 C4          5.2436   53.5001   16.7692 C.ar      1 UNK         0.0000 
      5 C5          6.0439   54.5793   17.1650 C.ar      1 UNK         0.0000 
      6 C6          7.3573   54.6775   16.6513 C.ar      1 UNK         0.0000 
      7 C7          7.8357   53.6799   15.7928 C.ar      1 UNK         0.0000 
      8 C8          8.3002   55.8285   16.9711 C.3       1 UNK         0.0000 
      9 S9          5.2712   55.8078   18.2525 S.o2      1 UNK         0.0000 
     10 O10         3.8217   55.7030   18.0472 O.2       1 UNK         0.0000 
     11 O11         5.9354   57.0982   18.0399 O.2       1 UNK         0.0000 
     12 N12         5.6133   55.2907   19.9161 N.pl3     1 UNK         0.0000 
     13 C13         4.9388   54.0673   20.4048 C.3       1 UNK         0.0000 
     14 C14         4.8107   54.1164   21.9460 C.3       1 UNK         0.0000 
     15 C15         6.1531   54.4867   22.6670 C.3       1 UNK         0.0000 
     16 C16         7.0673   55.4939   21.8995 C.3       1 UNK         0.0000 
     17 C17         7.0104   55.3960   20.3671 C.3       1 UNK         0.0000 
     18 C18         5.9224   54.8829   24.1543 C.2       1 UNK         0.0000 
     19 O19         6.4372   55.8973   24.6235 O.2       1 UNK         0.0000 
     20 N20         5.1912   54.0255   24.8917 N.am      1 UNK         0.0000 
     21 C21         4.7892   54.1434   26.2347 C.ar      1 UNK         0.0000 
     22 C22         3.4460   53.8581   26.4868 C.ar      1 UNK         0.0000 
     23 C23         2.9408   53.8709   27.7878 C.ar      1 UNK         0.0000 
     24 C24         3.7778   54.2305   28.8501 C.ar      1 UNK         0.0000 
     25 C25         5.1194   54.4974   28.6135 C.ar      1 UNK         0.0000 
     26 C26         5.6425   54.4284   27.3218 C.ar      1 UNK         0.0000 
     27 C27         7.1365   54.5929   27.1811 C.3       1 UNK         0.0000 
     28 N28         1.6009   53.4988   27.9356 N.am      1 UNK         0.0000 
     29 C29         0.9657   53.0370   29.0308 C.2       1 UNK         0.0000 
     30 O30         1.4769   52.9198   30.1443 O.2       1 UNK         0.0000 
     31 C31        -0.4959   52.6099   28.8480 C.3       1 UNK         0.0000 
     32 C32        -1.0601   52.4774   27.4357 C.3       1 UNK         0.0000 
     33 C33        -0.7111   51.2461   28.2453 C.3       1 UNK         0.0000 
     34 H34         8.0669   52.0106   13.6252 H         1 UNK         0.0000 
     35 H35         8.3090   50.9233   14.9893 H         1 UNK         0.0000 
     36 H36         6.7815   50.9062   14.0826 H         1 UNK         0.0000 
     37 H37         5.0901   51.6978   15.6264 H         1 UNK         0.0000 
     38 H38         4.2329   53.4012   17.1377 H         1 UNK         0.0000 
     39 H39         8.8417   53.7404   15.4035 H         1 UNK         0.0000 
     40 H40         9.3044   55.6625   16.5794 H         1 UNK         0.0000 
     41 H41         7.9264   56.7599   16.5458 H         1 UNK         0.0000 
     42 H42         8.4047   55.9632   18.0431 H         1 UNK         0.0000 
     43 H43         5.5565   53.2041   20.1527 H         1 UNK         0.0000 
     44 H44         3.9602   53.9658   19.9328 H         1 UNK         0.0000 
     45 H45         4.4246   53.1498   22.2732 H         1 UNK         0.0000 
     46 H46         4.0647   54.8952   22.1144 H         1 UNK         0.0000 
     47 H47         6.6752   53.5312   22.7188 H         1 UNK         0.0000 
     48 H48         6.7023   56.4969   22.0824 H         1 UNK         0.0000 
     49 H49         8.1148   55.4085   22.1700 H         1 UNK         0.0000 
     50 H50         7.5472   54.4966   20.0709 H         1 UNK         0.0000 
     51 H51         7.4742   56.2795   19.9316 H         1 UNK         0.0000 
     52 H52         4.7423   53.2796   24.3846 H         1 UNK         0.0000 
     53 H53         2.7958   53.5935   25.6648 H         1 UNK         0.0000 
     54 H54         3.4159   54.2915   29.8631 H         1 UNK         0.0000 
     55 H55         5.7637   54.7479   29.4440 H         1 UNK         0.0000 
     56 H56         7.5044   54.0412   26.3201 H         1 UNK         0.0000 
     57 H57         7.3759   55.6492   27.0876 H         1 UNK         0.0000 
     58 H58         7.6552   54.1939   28.0530 H         1 UNK         0.0000 
     59 H59         1.0669   53.4793   27.0827 H         1 UNK         0.0000 
     60 H60        -1.1413   52.8939   29.6795 H         1 UNK         0.0000 
     61 H61        -0.4605   52.6916   26.5510 H         1 UNK         0.0000 
     62 H62        -2.1171   52.6582   27.2473 H         1 UNK         0.0000 
     63 H63        -1.5281   50.6394   28.6374 H         1 UNK         0.0000 
     64 H64         0.1416   50.6346   27.9452 H         1 UNK         0.0000 
@<TRIPOS>BOND
     1    1    2 1    
     2    1   34 1    
     3    1   35 1    
     4    1   36 1    
     5    2    7 ar   
     6    2    3 ar   
     7    3    4 ar   
     8    3   37 1    
     9    4    5 ar   
    10    4   38 1    
    11    5    6 ar   
    12    5    9 1    
    13    6    7 ar   
    14    6    8 1    
    15    7   39 1    
    16    8   40 1    
    17    8   41 1    
    18    8   42 1    
    19    9   10 2    
    20    9   11 2    
    21    9   12 1    
    22   12   17 1    
    23   12   13 1    
    24   13   14 1    
    25   13   43 1    
    26   13   44 1    
    27   14   15 1    
    28   14   45 1    
    29   14   46 1    
    30   15   16 1    
    31   15   18 1    
    32   15   47 1    
    33   16   17 1    
    34   16   48 1    
    35   16   49 1    
    36   17   50 1    
    37   17   51 1    
    38   18   19 2    
    39   18   20 am   BACKBONE|DICT|INTERRES
    40   20   21 1    
    41   20   52 1    
    42   21   26 ar   
    43   21   22 ar   
    44   22   23 ar   
    45   22   53 1    
    46   23   24 ar   
    47   23   28 1    
    48   24   25 ar   
    49   24   54 1    
    50   25   26 ar   
    51   25   55 1    
    52   26   27 1    
    53   27   56 1    
    54   27   57 1    
    55   27   58 1    
    56   28   29 am   BACKBONE|DICT|INTERRES
    57   28   59 1    
    58   29   30 2    
    59   29   31 1    
    60   31   33 1    
    61   31   32 1    
    62   31   60 1    
    63   32   33 1    
    64   32   61 1    
    65   32   62 1    
    66   33   63 1    
    67   33   64 1    
@<TRIPOS>SUBSTRUCTURE
     1 UNK         1 GROUP             0       ****    0 ROOT    
