ZINC07254204_1519
                    3D
 Schrodinger Suite 2024-2.
 54 57  0  0  1  0            999 V2000
    0.7418   52.1053   28.5762 C   0  0  0  0  0  0
    1.9301   53.1115   28.3901 C   0  0  0  0  0  0
    3.0467   52.5009   29.3425 C   0  0  0  0  0  0
    2.8719   52.0965   30.4948 O   0  0  0  0  0  0
    4.3093   52.6964   28.9271 N   0  0  0  0  0  0
    4.7156   53.5127   27.8837 C   0  0  0  0  0  0
    6.0209   54.0056   27.8821 C   0  0  0  0  0  0
    6.4268   54.8832   26.8812 C   0  0  0  0  0  0
    5.5228   55.2921   25.9043 C   0  0  0  0  0  0
    4.2123   54.8162   25.9291 C   0  0  0  0  0  0
    3.8040   53.8533   26.8723 C   0  0  0  0  0  0
    2.4787   53.3133   26.9795 N   0  0  0  0  0  0
    1.7218   53.0294   25.8616 C   0  0  0  0  0  0
    0.5022   52.8915   25.9081 O   0  0  0  0  0  0
    2.3804   52.9559   24.4524 C   0  0  0  0  0  0
    1.7186   52.1136   23.4245 N   0  0  0  0  0  0
    1.1401   50.8236   23.8580 C   0  0  0  0  0  0
   -0.0033   50.4610   22.8680 C   0  0  2  0  0  0
   -0.4722   49.5266   23.1766 H   0  0  0  0  0  0
    0.5202   50.3097   21.5348 O   0  0  0  0  0  0
    1.5187   51.2045   21.1773 C   0  0  0  0  0  0
    2.1614   52.0717   22.0949 C   0  0  0  0  0  0
    3.1845   52.9068   21.6113 C   0  0  0  0  0  0
    3.5836   52.8486   20.2752 C   0  0  0  0  0  0
    2.9543   51.9737   19.3954 C   0  0  0  0  0  0
    1.9179   51.1573   19.8417 C   0  0  0  0  0  0
   -1.1752   51.4911   22.8452 C   0  0  0  0  0  0
   -1.5535   52.0131   21.7912 O   0  0  0  0  0  0
   -1.7480   51.7763   24.0271 N   0  0  0  0  0  0
   -2.8443   52.7195   24.2045 C   0  0  0  0  0  0
    1.5831   54.4928   29.0042 C   0  0  0  0  0  0
    0.5124   51.8815   29.6213 H   0  0  0  0  0  0
   -0.1937   52.5070   28.1876 H   0  0  0  0  0  0
    0.9252   51.1535   28.0736 H   0  0  0  0  0  0
    4.9960   52.4028   29.6030 H   0  0  0  0  0  0
    6.7186   53.7292   28.6608 H   0  0  0  0  0  0
    7.4309   55.2696   26.8988 H   0  0  0  0  0  0
    5.8244   56.0060   25.1521 H   0  0  0  0  0  0
    3.5267   55.2203   25.2045 H   0  0  0  0  0  0
    2.3233   53.9672   24.0558 H   0  0  0  0  0  0
    3.4254   52.6819   24.5414 H   0  0  0  0  0  0
    1.9063   50.0510   23.7644 H   0  0  0  0  0  0
    0.7930   50.7965   24.8899 H   0  0  0  0  0  0
    3.6933   53.6021   22.2601 H   0  0  0  0  0  0
    4.3806   53.4864   19.9213 H   0  0  0  0  0  0
    3.2765   51.9180   18.3647 H   0  0  0  0  0  0
    1.4406   50.4716   19.1590 H   0  0  0  0  0  0
   -1.3575   51.3756   24.8681 H   0  0  0  0  0  0
   -2.9687   52.9545   25.2618 H   0  0  0  0  0  0
   -2.6491   53.6537   23.6758 H   0  0  0  0  0  0
   -3.7798   52.2990   23.8319 H   0  0  0  0  0  0
    1.2407   54.4121   30.0378 H   0  0  0  0  0  0
    2.4269   55.1850   28.9857 H   0  0  0  0  0  0
    0.7743   54.9649   28.4446 H   0  0  0  0  0  0
  1  2  1  0  0  0
  1 32  1  0  0  0
  1 33  1  0  0  0
  1 34  1  0  0  0
  2 12  1  0  0  0
  2  3  1  0  0  0
  2 31  1  0  0  0
  3  4  2  0  0  0
  3  5  1  0  0  0
  5  6  1  0  0  0
  5 35  1  0  0  0
  6 11  2  0  0  0
  6  7  1  0  0  0
  7  8  2  0  0  0
  7 36  1  0  0  0
  8  9  1  0  0  0
  8 37  1  0  0  0
  9 10  2  0  0  0
  9 38  1  0  0  0
 10 11  1  0  0  0
 10 39  1  0  0  0
 11 12  1  0  0  0
 12 13  1  0  0  0
 13 14  2  0  0  0
 13 15  1  0  0  0
 15 16  1  0  0  0
 15 40  1  0  0  0
 15 41  1  0  0  0
 16 22  1  0  0  0
 16 17  1  0  0  0
 17 18  1  0  0  0
 17 42  1  0  0  0
 17 43  1  0  0  0
 18 19  1  0  0  0
 18 20  1  0  0  0
 18 27  1  0  0  0
 20 21  1  0  0  0
 21 26  2  0  0  0
 21 22  1  0  0  0
 22 23  2  0  0  0
 23 24  1  0  0  0
 23 44  1  0  0  0
 24 25  2  0  0  0
 24 45  1  0  0  0
 25 26  1  0  0  0
 25 46  1  0  0  0
 26 47  1  0  0  0
 27 28  2  0  0  0
 27 29  1  0  0  0
 29 30  1  0  0  0
 29 48  1  0  0  0
 30 49  1  0  0  0
 30 50  1  0  0  0
 30 51  1  0  0  0
 31 52  1  0  0  0
 31 53  1  0  0  0
 31 54  1  0  0  0
M  END
> <i_i_glide_confnum>
46

> <i_i_glide_lignum>
1520

> <i_i_glide_posenum>
255

> <i_i_glide_rotatable_bonds>
5

> <i_m_Source_File_Index>
93

> <b_m_subgroup_collapsed>
0

> <r_i_docking_score>
-6.73421

> <r_i_glide_ecoul>
-3.40842

> <r_i_glide_eff_state_penalty>
0

> <r_i_glide_einternal>
5.55436

> <r_i_glide_emodel>
-60.2245

> <r_i_glide_energy>
-43.7131

> <r_i_glide_erotb>
0.471887

> <r_i_glide_esite>
-0.000973959

> <r_i_glide_evdw>
-40.3047

> <r_i_glide_gscore>
-6.73421

> <r_i_glide_hbond>
-0.32

> <r_i_glide_ligand_efficiency>
-0.224474

> <r_i_glide_ligand_efficiency_ln>
-1.53009

> <r_i_glide_ligand_efficiency_sa>
-0.697492

> <r_i_glide_lipo>
-2.74891

> <r_i_glide_metal>
0

> <r_i_glide_rewards>
-1.60971

> <s_i_glide_gridfile>
wee1_glide-grid

> <s_m_Source_File>
wee1_decoys_glide_SP.sdf

> <s_m_Source_Path>
/Users/zhangxujun/Desktop

> <s_m_entry_id>
368

> <s_m_entry_name>
wee1_decoys_glide_SP.93

> <s_m_subgroup_title>
wee1_decoys_glide_SP

> <s_m_subgroupid>
wee1_decoys_glide_SP


$$$$
