@<TRIPOS>MOLECULE
ZINC38965412_1157
47   50    1
SMALL
USER_CHARGES


@<TRIPOS>ATOM
      1 C1         -0.9379   51.5748   24.0199 C.3       1 UNK         0.0000 
      2 C2          0.3404   51.2591   23.2607 C.ar      1 UNK         0.0000 
      3 C3          1.0367   52.2883   22.6207 C.ar      1 UNK         0.0000 
      4 C4          2.2190   52.0350   21.9212 C.ar      1 UNK         0.0000 
      5 C5          2.6990   50.7222   21.8513 C.ar      1 UNK         0.0000 
      6 C6          2.0122   49.6919   22.4893 C.ar      1 UNK         0.0000 
      7 C7          0.8383   49.9504   23.1973 C.ar      1 UNK         0.0000 
      8 Br8        -0.0529   48.4976   24.0569 Br        1 UNK         0.0000 
      9 N9          2.8567   53.1278   21.3160 N.pl3     1 UNK         0.0000 
     10 C10         4.2449   53.1391   20.8481 C.3       1 UNK         0.0000 
     11 H11         4.6571   52.1329   20.8591 H         1 UNK         0.0000 
     12 C12         5.1713   53.9935   21.7849 C.2       1 UNK         0.0000 
     13 N13         5.1974   53.6524   23.0139 N.2       1 UNK         0.0000 
     14 S14         6.2932   54.4464   24.1475 S.o2      1 UNK         0.0000 
     15 O15         7.5044   53.6968   24.4773 O.2       1 UNK         0.0000 
     16 O16         6.4610   55.8978   24.0843 O.2       1 UNK         0.0000 
     17 C17         5.2993   54.2555   25.6417 C.ar      1 UNK         0.0000 
     18 C18         5.9537   54.1017   26.8714 C.ar      1 UNK         0.0000 
     19 C19         5.2184   53.9494   28.0413 C.ar      1 UNK         0.0000 
     20 C20         3.8270   53.9416   27.9851 C.ar      1 UNK         0.0000 
     21 C21         3.1644   54.0975   26.7691 C.ar      1 UNK         0.0000 
     22 C22         3.8997   54.2718   25.5993 C.ar      1 UNK         0.0000 
     23 N23         5.9386   55.0125   21.2104 N.2       1 UNK         0.0000 
     24 C24         5.9414   55.2689   19.9487 C.2       1 UNK         0.0000 
     25 C25         6.7453   56.3199   19.3648 C.2       1 UNK         0.0000 
     26 C26         6.7339   56.6009   18.0412 C.2       1 UNK         0.0000 
     27 C27         5.8958   55.8140   17.1330 C.2       1 UNK         0.0000 
     28 C28         5.1146   54.7910   17.5736 C.2       1 UNK         0.0000 
     29 C29         5.0961   54.4867   18.9346 C.2       1 UNK         0.0000 
     30 N30         4.3388   53.5045   19.3975 N.pl3     1 UNK         0.0000 
     31 H31        -1.1827   52.6378   24.0081 H         1 UNK         0.0000 
     32 H32        -0.8411   51.2594   25.0592 H         1 UNK         0.0000 
     33 H33        -1.7763   51.0233   23.5890 H         1 UNK         0.0000 
     34 H34         0.6641   53.2991   22.6792 H         1 UNK         0.0000 
     35 H35         3.5909   50.4696   21.3041 H         1 UNK         0.0000 
     36 H36         2.4037   48.6842   22.4609 H         1 UNK         0.0000 
     37 H37         2.3092   53.9714   21.1646 H         1 UNK         0.0000 
     38 H38         7.0328   54.0966   26.9252 H         1 UNK         0.0000 
     39 H39         5.7282   53.8344   28.9857 H         1 UNK         0.0000 
     40 H40         3.2557   53.8140   28.8918 H         1 UNK         0.0000 
     41 H41         2.0839   54.0909   26.7367 H         1 UNK         0.0000 
     42 H42         3.3698   54.4089   24.6671 H         1 UNK         0.0000 
     43 H43         7.3937   56.8964   20.0018 H         1 UNK         0.0000 
     44 H44         7.3522   57.3977   17.6455 H         1 UNK         0.0000 
     45 H45         5.9083   56.0474   16.0760 H         1 UNK         0.0000 
     46 H46         4.5121   54.2201   16.8814 H         1 UNK         0.0000 
     47 H47         3.7829   52.9644   18.7375 H         1 UNK         0.0000 
@<TRIPOS>BOND
     1    1    2 1    
     2    1   31 1    
     3    1   32 1    
     4    1   33 1    
     5    2    7 ar   
     6    2    3 ar   
     7    3    4 ar   
     8    3   34 1    
     9    4    5 ar   
    10    4    9 1    
    11    5    6 ar   
    12    5   35 1    
    13    6    7 ar   
    14    6   36 1    
    15    7    8 1    
    16    9   10 1    
    17    9   37 1    
    18   10   11 1    
    19   10   30 1    
    20   10   12 1    
    21   12   13 2    
    22   12   23 1    
    23   13   14 1    
    24   14   15 2    
    25   14   16 2    
    26   14   17 1    
    27   17   22 ar   
    28   17   18 ar   
    29   18   19 ar   
    30   18   38 1    
    31   19   20 ar   
    32   19   39 1    
    33   20   21 ar   
    34   20   40 1    
    35   21   22 ar   
    36   21   41 1    
    37   22   42 1    
    38   23   24 2    
    39   24   29 1    
    40   24   25 1    
    41   25   26 2    
    42   25   43 1    
    43   26   27 1    
    44   26   44 1    
    45   27   28 2    
    46   27   45 1    
    47   28   29 1    
    48   28   46 1    
    49   29   30 2    
    50   30   47 1    
@<TRIPOS>SUBSTRUCTURE
     1 UNK         1 GROUP             0       ****    0 ROOT    
