ZINC39534434_367
                    3D
 Schrodinger Suite 2024-2.
 72 74  0  0  1  0            999 V2000
   -1.0422   45.5090   19.3003 C   0  0  0  0  0  0
    0.3050   45.3841   18.5632 C   0  0  0  0  0  0
    0.3061   44.2535   17.5202 C   0  0  0  0  0  0
    0.7419   47.0182   17.6971 S   0  0  0  0  0  0
    2.1088   46.8969   17.1779 O   0  0  0  0  0  0
   -0.3659   47.3798   16.8023 O   0  0  0  0  0  0
    0.7750   48.2171   19.0300 C   0  0  0  0  0  0
    1.9041   48.3200   19.8446 C   0  0  0  0  0  0
    1.9049   49.2092   20.9181 C   0  0  0  0  0  0
    0.7846   50.0122   21.1690 C   0  0  0  0  0  0
   -0.3278   49.9264   20.3243 C   0  0  0  0  0  0
   -0.3357   49.0300   19.2602 C   0  0  0  0  0  0
    0.7410   50.9643   22.3775 C   0  0  2  0  0  0
   -0.0751   51.6675   22.2027 H   0  0  0  0  0  0
    2.0301   51.8325   22.5049 C   0  0  0  0  0  0
    2.4977   52.4943   21.2657 N   0  0  0  0  0  0
    4.2198   52.8326   21.0824 S   0  0  0  0  0  0
    4.9626   51.7099   21.6644 O   0  0  0  0  0  0
    4.4235   53.2102   19.6820 O   0  0  0  0  0  0
    4.5727   54.3942   22.1261 C   0  0  0  0  0  0
    4.1876   54.2142   23.6062 C   0  0  0  0  0  0
    6.0647   54.7499   21.9804 C   0  0  0  0  0  0
    0.4522   50.2431   23.6516 N   0  0  0  0  0  0
   -0.7723   49.4229   23.5915 C   0  0  0  0  0  0
   -0.9666   48.5991   24.8810 C   0  0  0  0  0  0
   -1.0629   49.5512   26.0817 N   0  3  0  0  0  0
    0.1893   50.4373   26.1896 C   0  0  1  0  0  0
    0.9876   49.7346   26.4426 H   0  0  0  0  0  0
    0.4587   51.1340   24.8310 C   0  0  0  0  0  0
   -0.0503   51.4252   27.3559 C   0  0  0  0  0  0
    1.2059   52.1832   27.7789 C   0  0  0  0  0  0
    1.9224   51.7544   28.8969 C   0  0  0  0  0  0
    3.0769   52.4305   29.2936 C   0  0  0  0  0  0
    3.5127   53.5353   28.5645 C   0  0  0  0  0  0
    2.8023   53.9715   27.4482 C   0  0  0  0  0  0
    1.6464   53.2981   27.0591 C   0  0  0  0  0  0
   -1.3208   44.5680   19.7769 H   0  0  0  0  0  0
   -1.8446   45.7867   18.6131 H   0  0  0  0  0  0
   -0.9992   46.2680   20.0817 H   0  0  0  0  0  0
    1.1042   45.2126   19.2814 H   0  0  0  0  0  0
    0.1041   43.2853   17.9791 H   0  0  0  0  0  0
   -0.4492   44.4253   16.7505 H   0  0  0  0  0  0
    1.2722   44.1838   17.0176 H   0  0  0  0  0  0
    2.7715   47.7031   19.6539 H   0  0  0  0  0  0
    2.7764   49.2636   21.5572 H   0  0  0  0  0  0
   -1.1982   50.5398   20.5029 H   0  0  0  0  0  0
   -1.2076   48.9604   18.6237 H   0  0  0  0  0  0
    1.8602   52.6258   23.2245 H   0  0  0  0  0  0
    2.8346   51.2058   22.8816 H   0  0  0  0  0  0
    1.8838   53.2115   20.8672 H   0  0  0  0  0  0
    3.9589   55.1761   21.6821 H   0  0  0  0  0  0
    4.5694   55.0326   24.2165 H   0  0  0  0  0  0
    3.1095   54.2081   23.7469 H   0  0  0  0  0  0
    4.5967   53.2969   24.0233 H   0  0  0  0  0  0
    6.3059   55.7062   22.4408 H   0  0  0  0  0  0
    6.6945   54.0008   22.4596 H   0  0  0  0  0  0
    6.3538   54.8156   20.9303 H   0  0  0  0  0  0
   -1.6279   50.0894   23.4655 H   0  0  0  0  0  0
   -0.7400   48.7222   22.7578 H   0  0  0  0  0  0
   -1.8953   48.0269   24.8823 H   0  0  0  0  0  0
   -0.1293   47.9276   25.0826 H   0  0  0  0  0  0
   -1.8850   50.1315   26.0010 H   0  0  0  0  0  0
    1.4087   51.6506   24.9451 H   0  0  0  0  0  0
   -0.3310   51.8726   24.6876 H   0  0  0  0  0  0
   -0.8265   52.1495   27.1005 H   0  0  0  0  0  0
   -0.4451   50.8965   28.2273 H   0  0  0  0  0  0
    1.5826   50.8967   29.4548 H   0  0  0  0  0  0
    3.6364   52.1000   30.1569 H   0  0  0  0  0  0
    4.4115   54.0563   28.8629 H   0  0  0  0  0  0
    3.1473   54.8262   26.8848 H   0  0  0  0  0  0
    1.1046   53.6435   26.1922 H   0  0  0  0  0  0
   -1.1822   49.0198   26.9593 H   0  0  0  0  0  0
  1  2  1  0  0  0
  1 37  1  0  0  0
  1 38  1  0  0  0
  1 39  1  0  0  0
  2  3  1  0  0  0
  2  4  1  0  0  0
  2 40  1  0  0  0
  3 41  1  0  0  0
  3 42  1  0  0  0
  3 43  1  0  0  0
  4  5  2  0  0  0
  4  6  2  0  0  0
  4  7  1  0  0  0
  7 12  2  0  0  0
  7  8  1  0  0  0
  8  9  2  0  0  0
  8 44  1  0  0  0
  9 10  1  0  0  0
  9 45  1  0  0  0
 10 11  2  0  0  0
 10 13  1  0  0  0
 11 12  1  0  0  0
 11 46  1  0  0  0
 12 47  1  0  0  0
 13 14  1  0  0  0
 13 15  1  0  0  0
 13 23  1  0  0  0
 15 16  1  0  0  0
 15 48  1  0  0  0
 15 49  1  0  0  0
 16 17  1  0  0  0
 16 50  1  0  0  0
 17 18  2  0  0  0
 17 19  2  0  0  0
 17 20  1  0  0  0
 20 21  1  0  0  0
 20 22  1  0  0  0
 20 51  1  0  0  0
 21 52  1  0  0  0
 21 53  1  0  0  0
 21 54  1  0  0  0
 22 55  1  0  0  0
 22 56  1  0  0  0
 22 57  1  0  0  0
 23 29  1  0  0  0
 23 24  1  0  0  0
 24 25  1  0  0  0
 24 58  1  0  0  0
 24 59  1  0  0  0
 25 26  1  0  0  0
 25 60  1  0  0  0
 25 61  1  0  0  0
 26 27  1  0  0  0
 26 62  1  0  0  0
 26 72  1  0  0  0
 27 28  1  0  0  0
 27 29  1  0  0  0
 27 30  1  0  0  0
 29 63  1  0  0  0
 29 64  1  0  0  0
 30 31  1  0  0  0
 30 65  1  0  0  0
 30 66  1  0  0  0
 31 36  2  0  0  0
 31 32  1  0  0  0
 32 33  2  0  0  0
 32 67  1  0  0  0
 33 34  1  0  0  0
 33 68  1  0  0  0
 34 35  2  0  0  0
 34 69  1  0  0  0
 35 36  1  0  0  0
 35 70  1  0  0  0
 36 71  1  0  0  0
M  CHG  1  26   1
M  END
> <i_i_glide_confnum>
274

> <i_i_glide_lignum>
368

> <i_i_glide_posenum>
110

> <i_i_glide_rotatable_bonds>
10

> <i_m_Source_File_Index>
2677

> <b_m_subgroup_collapsed>
0

> <r_i_docking_score>
-4.12038

> <r_i_glide_ecoul>
-2.12251

> <r_i_glide_eff_state_penalty>
0

> <r_i_glide_einternal>
6.2847

> <r_i_glide_emodel>
-50.5756

> <r_i_glide_energy>
-39.9841

> <r_i_glide_erotb>
0.632938

> <r_i_glide_esite>
-0.243235

> <r_i_glide_evdw>
-37.8615

> <r_i_glide_gscore>
-4.12038

> <r_i_glide_hbond>
-0.374337

> <r_i_glide_ligand_efficiency>
-0.121188

> <r_i_glide_ligand_efficiency_ln>
-0.910307

> <r_i_glide_ligand_efficiency_sa>
-0.392601

> <r_i_glide_lipo>
-1.8009

> <r_i_glide_metal>
0

> <r_i_glide_rewards>
-0.123389

> <s_i_glide_gridfile>
wee1_glide-grid

> <s_m_Source_File>
wee1_decoys_glide_SP.sdf

> <s_m_Source_Path>
/Users/zhangxujun/Desktop

> <s_m_entry_id>
2952

> <s_m_entry_name>
wee1_decoys_glide_SP.2677

> <s_m_subgroup_title>
wee1_decoys_glide_SP

> <s_m_subgroupid>
wee1_decoys_glide_SP


$$$$
