@<TRIPOS>MOLECULE
ZINC35573885_4552
50   54    1
SMALL
USER_CHARGES


@<TRIPOS>ATOM
      1 C1          7.6512   55.8683   20.0603 C.ar      1 UNK         0.0000 
      2 C2          7.0254   55.6271   21.2831 C.ar      1 UNK         0.0000 
      3 C3          5.9058   54.7738   21.3711 C.ar      1 UNK         0.0000 
      4 C4          5.4392   54.1777   20.1850 C.ar      1 UNK         0.0000 
      5 C5          6.0529   54.4402   18.9603 C.ar      1 UNK         0.0000 
      6 C6          7.1583   55.2833   18.8978 C.ar      1 UNK         0.0000 
      7 F7          5.5847   53.8611   17.8331 F         1 UNK         0.0000 
      8 N8          5.3058   54.4962   22.6424 N.pl3     1 UNK         0.0000 
      9 C9          4.0180   54.0481   22.9442 C.ar      1 UNK         0.0000 
     10 C10         3.9062   54.0274   24.3634 C.ar      1 UNK         0.0000 
     11 C11         2.9663   53.6989   25.3727 C.ar      1 UNK         0.0000 
     12 N12         3.3341   53.8295   26.6748 N.ar      1 UNK         0.0000 
     13 C13         4.6044   54.1994   26.9754 C.ar      1 UNK         0.0000 
     14 N14         5.5710   54.5069   26.0770 N.ar      1 UNK         0.0000 
     15 C15         5.2061   54.4378   24.7946 C.ar      1 UNK         0.0000 
     16 N16         6.0410   54.7263   23.7593 N.2       1 UNK         0.0000 
     17 N17         5.0173   54.2300   28.3181 N.pl3     1 UNK         0.0000 
     18 C18         4.1357   54.6444   29.4159 C.3       1 UNK         0.0000 
     19 C19         2.8244   53.8789   29.5686 C.ar      1 UNK         0.0000 
     20 C20         1.6486   54.5948   29.8208 C.ar      1 UNK         0.0000 
     21 C21         0.4295   53.9277   29.8942 C.ar      1 UNK         0.0000 
     22 C22         0.3835   52.5526   29.6948 C.ar      1 UNK         0.0000 
     23 C23         1.5523   51.8357   29.4592 C.ar      1 UNK         0.0000 
     24 C24         2.7784   52.4908   29.4169 C.ar      1 UNK         0.0000 
     25 F25        -0.8061   51.9126   29.7089 F         1 UNK         0.0000 
     26 C26         1.5965   53.1196   25.1516 C.ar      1 UNK         0.0000 
     27 C27         0.7665   53.5339   24.1010 C.ar      1 UNK         0.0000 
     28 C28        -0.4870   52.9494   23.9110 C.ar      1 UNK         0.0000 
     29 C29        -0.9408   51.9651   24.7807 C.ar      1 UNK         0.0000 
     30 C30        -0.1477   51.5533   25.8437 C.ar      1 UNK         0.0000 
     31 C31         1.1047   52.1307   26.0210 C.ar      1 UNK         0.0000 
     32 Cl32       -2.5009   51.2659   24.5449 Cl        1 UNK         0.0000 
     33 N33         3.0486   53.6967   22.0481 N.pl3     1 UNK         0.0000 
     34 H34         8.5267   56.4996   20.0127 H         1 UNK         0.0000 
     35 H35         7.4424   56.0935   22.1652 H         1 UNK         0.0000 
     36 H36         4.6259   53.4713   20.1738 H         1 UNK         0.0000 
     37 H37         7.6387   55.4696   17.9486 H         1 UNK         0.0000 
     38 H38         5.9870   54.4869   28.4401 H         1 UNK         0.0000 
     39 H39         3.9028   55.6967   29.2807 H         1 UNK         0.0000 
     40 H40         4.6947   54.5617   30.3475 H         1 UNK         0.0000 
     41 H41         1.6720   55.6685   29.9431 H         1 UNK         0.0000 
     42 H42        -0.4834   54.4706   30.0818 H         1 UNK         0.0000 
     43 H43         1.4990   50.7750   29.2811 H         1 UNK         0.0000 
     44 H44         3.6800   51.9349   29.2049 H         1 UNK         0.0000 
     45 H45         1.0692   54.3409   23.4520 H         1 UNK         0.0000 
     46 H46        -1.1271   53.2752   23.1072 H         1 UNK         0.0000 
     47 H47        -0.4963   50.7890   26.5254 H         1 UNK         0.0000 
     48 H48         1.7141   51.7840   26.8401 H         1 UNK         0.0000 
     49 H49         2.2353   53.1750   22.3418 H         1 UNK         0.0000 
     50 H50         3.0396   54.0222   21.0893 H         1 UNK         0.0000 
@<TRIPOS>BOND
     1    1    6 ar   
     2    1    2 ar   
     3    1   34 1    
     4    2    3 ar   
     5    2   35 1    
     6    3    4 ar   
     7    3    8 1    
     8    4    5 ar   
     9    4   36 1    
    10    5    6 ar   
    11    5    7 1    
    12    6   37 1    
    13    8   16 ar   
    14    8    9 ar   
    15    9   10 ar   
    16    9   33 1    
    17   10   15 ar   
    18   10   11 ar   
    19   11   12 ar   
    20   11   26 1    
    21   12   13 ar   
    22   13   14 ar   
    23   13   17 1    
    24   14   15 ar   
    25   15   16 ar   
    26   17   18 1    
    27   17   38 1    
    28   18   19 1    
    29   18   39 1    
    30   18   40 1    
    31   19   24 ar   
    32   19   20 ar   
    33   20   21 ar   
    34   20   41 1    
    35   21   22 ar   
    36   21   42 1    
    37   22   23 ar   
    38   22   25 1    
    39   23   24 ar   
    40   23   43 1    
    41   24   44 1    
    42   26   31 ar   
    43   26   27 ar   
    44   27   28 ar   
    45   27   45 1    
    46   28   29 ar   
    47   28   46 1    
    48   29   30 ar   
    49   29   32 1    
    50   30   31 ar   
    51   30   47 1    
    52   31   48 1    
    53   33   49 1    
    54   33   50 1    
@<TRIPOS>SUBSTRUCTURE
     1 UNK         1 GROUP             0       ****    0 ROOT    
