@<TRIPOS>MOLECULE
ZINC39687237_398
79   83    1
SMALL
USER_CHARGES


@<TRIPOS>ATOM
      1 C1          5.9258   53.9642   26.4590 C.3       1 UNK         0.0000 
      2 C2          4.7018   54.0074   27.3732 C.ar      1 UNK         0.0000 
      3 C3          4.9579   54.0575   28.7463 C.ar      1 UNK         0.0000 
      4 C4          3.9194   54.0971   29.6684 C.ar      1 UNK         0.0000 
      5 C5          2.6041   54.1386   29.2261 C.ar      1 UNK         0.0000 
      6 C6          2.3338   54.0987   27.8610 C.ar      1 UNK         0.0000 
      7 C7          3.3608   53.9798   26.9049 C.ar      1 UNK         0.0000 
      8 C8          3.0310   53.9228   25.4165 C.2       1 UNK         0.0000 
      9 O9          3.7796   54.4973   24.6229 O.2       1 UNK         0.0000 
     10 N10         1.9392   53.2427   24.9594 N.am      1 UNK         0.0000 
     11 C11         1.6434   53.2095   23.5264 C.3       1 UNK         0.0000 
     12 C12         0.1935   52.7008   23.4735 C.3       1 UNK         0.0000 
     13 H13        -0.4326   53.5834   23.6167 H         1 UNK         0.0000 
     14 C14         0.0829   51.7183   24.6711 C.3       1 UNK         0.0000 
     15 C15         0.9766   52.4301   25.7225 C.3       1 UNK         0.0000 
     16 C16         0.6131   50.2757   24.3649 C.3       1 UNK         0.0000 
     17 C17         0.5206   49.3290   25.5875 C.3       1 UNK         0.0000 
     18 N18        -0.9406   49.2969   26.0817 N.4       1 UNK         0.0000 
     19 C19        -1.5277   50.6917   26.3754 C.3       1 UNK         0.0000 
     20 C20        -1.3967   51.5366   25.1003 C.3       1 UNK         0.0000 
     21 C21        -0.1575   52.0966   22.0873 C.2       1 UNK         0.0000 
     22 O22        -1.3433   51.8712   21.8536 O.2       1 UNK         0.0000 
     23 N23         0.8267   51.8288   21.2044 N.am      1 UNK         0.0000 
     24 C24         0.7405   51.0879   19.9355 C.3       1 UNK         0.0000 
     25 H25         1.7888   50.9485   19.6910 H         1 UNK         0.0000 
     26 C26         0.1612   49.6669   20.1800 C.3       1 UNK         0.0000 
     27 C27         0.3928   48.6810   19.0477 C.ar      1 UNK         0.0000 
     28 C28        -0.6079   48.4658   18.0763 C.ar      1 UNK         0.0000 
     29 C29        -0.3515   47.6455   16.9852 C.ar      1 UNK         0.0000 
     30 C30         0.8987   47.0608   16.8278 C.ar      1 UNK         0.0000 
     31 C31         1.9048   47.2968   17.7553 C.ar      1 UNK         0.0000 
     32 C32         1.6672   48.1057   18.8587 C.ar      1 UNK         0.0000 
     33 C33         0.0017   51.8648   18.8060 C.2       1 UNK         0.0000 
     34 O34        -1.1927   52.1303   18.9762 O.2       1 UNK         0.0000 
     35 N35         0.6576   52.1857   17.6541 N.am      1 UNK         0.0000 
     36 C36         2.1005   51.9901   17.4185 C.3       1 UNK         0.0000 
     37 C37         2.7979   53.3033   17.8417 C.3       1 UNK         0.0000 
     38 C38         2.2205   54.5245   17.0863 C.3       1 UNK         0.0000 
     39 C39         0.6718   54.5427   17.0986 C.3       1 UNK         0.0000 
     40 C40         0.0638   53.1676   16.7283 C.3       1 UNK         0.0000 
     41 H41         6.8102   53.5908   26.9776 H         1 UNK         0.0000 
     42 H42         5.7749   53.2966   25.6138 H         1 UNK         0.0000 
     43 H43         6.1413   54.9589   26.0681 H         1 UNK         0.0000 
     44 H44         5.9777   54.0724   29.1051 H         1 UNK         0.0000 
     45 H45         4.1598   54.1200   30.7188 H         1 UNK         0.0000 
     46 H46         1.7927   54.2151   29.9353 H         1 UNK         0.0000 
     47 H47         1.3019   54.2003   27.5729 H         1 UNK         0.0000 
     48 H48         2.3438   52.4840   23.1093 H         1 UNK         0.0000 
     49 H49         1.7586   54.1745   23.0260 H         1 UNK         0.0000 
     50 H50         0.3052   53.1207   26.2265 H         1 UNK         0.0000 
     51 H51         1.4002   51.7591   26.4688 H         1 UNK         0.0000 
     52 H52         0.0757   49.8225   23.5307 H         1 UNK         0.0000 
     53 H53         1.6540   50.3198   24.0398 H         1 UNK         0.0000 
     54 H54         0.7833   48.2978   25.3441 H         1 UNK         0.0000 
     55 H55         1.1045   49.6424   26.4509 H         1 UNK         0.0000 
     56 H56        -1.5255   48.8131   25.4166 H         1 UNK         0.0000 
     57 H57        -2.5648   50.5230   26.6705 H         1 UNK         0.0000 
     58 H58        -0.9784   51.0904   27.2301 H         1 UNK         0.0000 
     59 H59        -1.8386   52.5129   25.3063 H         1 UNK         0.0000 
     60 H60        -1.9989   51.1192   24.2911 H         1 UNK         0.0000 
     61 H61         1.7638   52.1160   21.4400 H         1 UNK         0.0000 
     62 H62        -0.9096   49.7163   20.3853 H         1 UNK         0.0000 
     63 H63         0.6044   49.2387   21.0797 H         1 UNK         0.0000 
     64 H64        -1.5717   48.9443   18.1733 H         1 UNK         0.0000 
     65 H65        -1.1204   47.4785   16.2453 H         1 UNK         0.0000 
     66 H66         1.0993   46.4407   15.9665 H         1 UNK         0.0000 
     67 H67         2.8891   46.8788   17.6030 H         1 UNK         0.0000 
     68 H68         2.4705   48.3079   19.5533 H         1 UNK         0.0000 
     69 H69         2.5163   51.0624   17.8130 H         1 UNK         0.0000 
     70 H70         2.2234   51.8382   16.3446 H         1 UNK         0.0000 
     71 H71         2.7032   53.4446   18.9194 H         1 UNK         0.0000 
     72 H72         3.8683   53.2209   17.6502 H         1 UNK         0.0000 
     73 H73         2.5668   54.4971   16.0518 H         1 UNK         0.0000 
     74 H74         2.6109   55.4498   17.5131 H         1 UNK         0.0000 
     75 H75         0.3068   55.3026   16.4069 H         1 UNK         0.0000 
     76 H76         0.3045   54.8419   18.0815 H         1 UNK         0.0000 
     77 H77         0.3547   52.8780   15.7177 H         1 UNK         0.0000 
     78 H78        -1.0264   53.1309   16.7073 H         1 UNK         0.0000 
     79 H79        -1.0127   48.7692   26.9679 H         1 UNK         0.0000 
@<TRIPOS>BOND
     1    1    2 1    
     2    1   41 1    
     3    1   42 1    
     4    1   43 1    
     5    2    7 ar   
     6    2    3 ar   
     7    3    4 ar   
     8    3   44 1    
     9    4    5 ar   
    10    4   45 1    
    11    5    6 ar   
    12    5   46 1    
    13    6    7 ar   
    14    6   47 1    
    15    7    8 1    
    16    8    9 2    
    17    8   10 am   BACKBONE|DICT|INTERRES
    18   10   15 1    
    19   10   11 1    
    20   11   12 1    
    21   11   48 1    
    22   11   49 1    
    23   12   13 1    
    24   12   14 1    
    25   12   21 1    
    26   14   20 1    
    27   14   15 1    
    28   14   16 1    
    29   15   50 1    
    30   15   51 1    
    31   16   17 1    
    32   16   52 1    
    33   16   53 1    
    34   17   18 1    
    35   17   54 1    
    36   17   55 1    
    37   18   19 1    
    38   18   56 1    
    39   18   79 1    
    40   19   20 1    
    41   19   57 1    
    42   19   58 1    
    43   20   59 1    
    44   20   60 1    
    45   21   22 2    
    46   21   23 am   BACKBONE|DICT|INTERRES
    47   23   24 1    
    48   23   61 1    
    49   24   25 1    
    50   24   26 1    
    51   24   33 1    
    52   26   27 1    
    53   26   62 1    
    54   26   63 1    
    55   27   32 ar   
    56   27   28 ar   
    57   28   29 ar   
    58   28   64 1    
    59   29   30 ar   
    60   29   65 1    
    61   30   31 ar   
    62   30   66 1    
    63   31   32 ar   
    64   31   67 1    
    65   32   68 1    
    66   33   34 2    
    67   33   35 am   BACKBONE|DICT|INTERRES
    68   35   40 1    
    69   35   36 1    
    70   36   37 1    
    71   36   69 1    
    72   36   70 1    
    73   37   38 1    
    74   37   71 1    
    75   37   72 1    
    76   38   39 1    
    77   38   73 1    
    78   38   74 1    
    79   39   40 1    
    80   39   75 1    
    81   39   76 1    
    82   40   77 1    
    83   40   78 1    
@<TRIPOS>SUBSTRUCTURE
     1 UNK         1 GROUP             0       ****    0 ROOT    
