ZINC36058670_984
                    3D
 Schrodinger Suite 2024-2.
 61 64  0  0  1  0            999 V2000
    2.9316   54.1810   26.7192 C   0  0  0  0  0  0
    1.9054   53.3008   26.0081 C   0  0  0  0  0  0
    0.9923   52.4545   26.5860 C   0  0  0  0  0  0
    0.1216   51.5188   25.6822 C   0  0  2  0  0  0
    0.2441   50.4957   26.0464 H   0  0  0  0  0  0
    0.6998   51.4835   24.3072 N   0  0  0  0  0  0
    0.3075   50.6207   23.2975 C   0  0  0  0  0  0
    0.7567   51.0209   22.0931 C   0  0  0  0  0  0
    1.7336   52.4837   22.1491 S   0  0  0  0  0  0
    1.5479   52.5159   23.9104 C   0  0  0  0  0  0
    2.0699   53.4083   24.6568 N   0  0  0  0  0  0
   -0.5583   49.4631   23.4778 C   0  0  0  0  0  0
   -1.6445   49.1703   22.7254 C   0  0  0  0  0  0
   -2.1155   49.8687   21.7481 O   0  5  0  0  0  0
   -2.4248   48.0219   22.9095 N   0  0  0  0  0  0
   -2.0166   46.8889   23.7607 C   0  0  0  0  0  0
   -2.6752   46.9788   25.1632 C   0  0  0  0  0  0
   -4.1376   47.0321   24.9666 N   0  0  0  0  0  0
   -4.5921   48.1480   24.1167 C   0  0  0  0  0  0
   -3.8957   47.9824   22.7434 C   0  0  0  0  0  0
   -4.9299   45.9617   25.2390 C   0  0  0  0  0  0
   -4.4955   44.8968   25.6825 O   0  0  0  0  0  0
   -6.4500   46.1079   25.1282 C   0  0  0  0  0  0
   -1.4022   51.7856   25.7061 C   0  0  0  0  0  0
   -2.1891   51.1363   26.6674 C   0  0  0  0  0  0
   -3.5712   51.3083   26.7072 C   0  0  0  0  0  0
   -4.1956   52.1406   25.7814 C   0  0  0  0  0  0
   -3.4315   52.7985   24.8211 C   0  0  0  0  0  0
   -2.0478   52.6259   24.7793 C   0  0  0  0  0  0
   -1.3546   53.2956   23.8322 F   0  0  0  0  0  0
    0.8182   52.2881   28.0472 C   0  0  0  0  0  0
    0.2760   51.2967   28.5288 O   0  0  0  0  0  0
    1.2736   53.3058   28.8176 O   0  0  0  0  0  0
    1.2007   53.2364   30.2430 C   0  0  0  0  0  0
    2.3739   52.4986   30.8818 C   0  0  0  0  0  0
    3.5051   52.0969   30.2756 C   0  0  0  0  0  0
    3.5209   53.5845   27.4121 H   0  0  0  0  0  0
    3.6396   54.6616   26.0408 H   0  0  0  0  0  0
    2.4351   54.9702   27.2804 H   0  0  0  0  0  0
    0.5531   50.5342   21.1508 H   0  0  0  0  0  0
   -0.2858   48.8021   24.2846 H   0  0  0  0  0  0
   -2.3619   45.9702   23.2858 H   0  0  0  0  0  0
   -0.9323   46.7975   23.8188 H   0  0  0  0  0  0
   -2.3632   46.1578   25.8107 H   0  0  0  0  0  0
   -2.3537   47.9013   25.6507 H   0  0  0  0  0  0
   -4.2681   49.0876   24.5674 H   0  0  0  0  0  0
   -5.6737   48.2104   24.0060 H   0  0  0  0  0  0
   -4.2604   48.7121   22.0196 H   0  0  0  0  0  0
   -4.1698   47.0071   22.3380 H   0  0  0  0  0  0
   -6.7586   46.1154   24.0832 H   0  0  0  0  0  0
   -6.9494   45.2740   25.6209 H   0  0  0  0  0  0
   -6.7882   47.0275   25.6067 H   0  0  0  0  0  0
   -1.7328   50.4872   27.3962 H   0  0  0  0  0  0
   -4.1541   50.7884   27.4544 H   0  0  0  0  0  0
   -5.2670   52.2720   25.8059 H   0  0  0  0  0  0
   -3.9105   53.4460   24.1021 H   0  0  0  0  0  0
    0.2681   52.7645   30.5607 H   0  0  0  0  0  0
    1.1775   54.2523   30.6368 H   0  0  0  0  0  0
    2.2581   52.2956   31.9383 H   0  0  0  0  0  0
    3.6806   52.2628   29.2243 H   0  0  0  0  0  0
    4.2825   51.5936   30.8317 H   0  0  0  0  0  0
  1  2  1  0  0  0
  1 37  1  0  0  0
  1 38  1  0  0  0
  1 39  1  0  0  0
  2 11  1  0  0  0
  2  3  2  0  0  0
  3  4  1  0  0  0
  3 31  1  0  0  0
  4  5  1  0  0  0
  4  6  1  0  0  0
  4 24  1  0  0  0
  6 10  1  0  0  0
  6  7  1  0  0  0
  7  8  2  0  0  0
  7 12  1  0  0  0
  8  9  1  0  0  0
  8 40  1  0  0  0
  9 10  1  0  0  0
 10 11  2  0  0  0
 12 13  2  0  0  0
 12 41  1  0  0  0
 13 14  1  0  0  0
 13 15  1  0  0  0
 15 20  1  0  0  0
 15 16  1  0  0  0
 16 17  1  0  0  0
 16 42  1  0  0  0
 16 43  1  0  0  0
 17 18  1  0  0  0
 17 44  1  0  0  0
 17 45  1  0  0  0
 18 19  1  0  0  0
 18 21  1  0  0  0
 19 20  1  0  0  0
 19 46  1  0  0  0
 19 47  1  0  0  0
 20 48  1  0  0  0
 20 49  1  0  0  0
 21 22  2  0  0  0
 21 23  1  0  0  0
 23 50  1  0  0  0
 23 51  1  0  0  0
 23 52  1  0  0  0
 24 29  2  0  0  0
 24 25  1  0  0  0
 25 26  2  0  0  0
 25 53  1  0  0  0
 26 27  1  0  0  0
 26 54  1  0  0  0
 27 28  2  0  0  0
 27 55  1  0  0  0
 28 29  1  0  0  0
 28 56  1  0  0  0
 29 30  1  0  0  0
 31 32  2  0  0  0
 31 33  1  0  0  0
 33 34  1  0  0  0
 34 35  1  0  0  0
 34 57  1  0  0  0
 34 58  1  0  0  0
 35 36  2  0  0  0
 35 59  1  0  0  0
 36 60  1  0  0  0
 36 61  1  0  0  0
M  CHG  1  14  -1
M  END
> <i_i_glide_confnum>
115

> <i_i_glide_lignum>
985

> <i_i_glide_posenum>
360

> <i_i_glide_rotatable_bonds>
8

> <i_m_Source_File_Index>
1055

> <b_m_subgroup_collapsed>
0

> <r_i_docking_score>
-3.94287

> <r_i_glide_ecoul>
-5.25315

> <r_i_glide_eff_state_penalty>
0

> <r_i_glide_einternal>
4.2258

> <r_i_glide_emodel>
-52.759

> <r_i_glide_energy>
-42.8796

> <r_i_glide_erotb>
0.57681

> <r_i_glide_esite>
-0.048904

> <r_i_glide_evdw>
-37.6264

> <r_i_glide_gscore>
-3.94287

> <r_i_glide_hbond>
-0.16

> <r_i_glide_ligand_efficiency>
-0.112653

> <r_i_glide_ligand_efficiency_ln>
-0.865548

> <r_i_glide_ligand_efficiency_sa>
-0.368497

> <r_i_glide_lipo>
-1.06022

> <r_i_glide_metal>
0

> <r_i_glide_rewards>
-0.581262

> <s_i_glide_gridfile>
wee1_glide-grid

> <s_m_Source_File>
wee1_decoys_glide_SP.sdf

> <s_m_Source_Path>
/Users/zhangxujun/Desktop

> <s_m_entry_id>
1330

> <s_m_entry_name>
wee1_decoys_glide_SP.1055

> <s_m_subgroup_title>
wee1_decoys_glide_SP

> <s_m_subgroupid>
wee1_decoys_glide_SP


$$$$
