@<TRIPOS>MOLECULE
ZINC09295269_2288
53   57    1
SMALL
USER_CHARGES


@<TRIPOS>ATOM
      1 C1          0.8235   53.9328   30.3681 C.ar      1 UNK         0.0000 
      2 C2          1.4188   52.8539   29.7184 C.ar      1 UNK         0.0000 
      3 C3          2.3417   53.0821   28.6996 C.ar      1 UNK         0.0000 
      4 C4          2.6651   54.3960   28.3175 C.ar      1 UNK         0.0000 
      5 C5          2.0546   55.4666   28.9763 C.ar      1 UNK         0.0000 
      6 C6          1.1439   55.2408   30.0066 C.ar      1 UNK         0.0000 
      7 O7          3.5569   54.7128   27.3070 O.3       1 UNK         0.0000 
      8 C8          4.4285   53.6969   26.8122 C.3       1 UNK         0.0000 
      9 C9          5.3895   54.2876   25.7920 C.ar      1 UNK         0.0000 
     10 N10         6.5041   54.8969   26.1105 N.2       1 UNK         0.0000 
     11 N11         7.1029   55.2991   24.9235 N.2       1 UNK         0.0000 
     12 C12         6.3362   54.9201   23.9324 C.ar      1 UNK         0.0000 
     13 N13         5.2228   54.2720   24.4217 N.pl3     1 UNK         0.0000 
     14 N14         4.1611   53.7135   23.7052 N.3       1 UNK         0.0000 
     15 C15         4.5443   53.2649   22.3597 C.3       1 UNK         0.0000 
     16 H16         5.3744   52.5634   22.4711 H         1 UNK         0.0000 
     17 C17         5.0753   54.4966   21.5606 C.3       1 UNK         0.0000 
     18 H18         4.3505   55.2966   21.6625 H         1 UNK         0.0000 
     19 S19         6.6565   55.1947   22.2125 S.3       1 UNK         0.0000 
     20 C20         5.2071   54.3014   20.0236 C.2       1 UNK         0.0000 
     21 O21         6.3044   54.0969   19.4999 O.2       1 UNK         0.0000 
     22 N22         4.0660   54.3509   19.3061 N.am      1 UNK         0.0000 
     23 C23         4.0140   54.2203   17.9143 C.ar      1 UNK         0.0000 
     24 C24         3.4763   53.0504   17.3679 C.ar      1 UNK         0.0000 
     25 C25         3.4163   52.8929   15.9826 C.ar      1 UNK         0.0000 
     26 C26         3.8747   53.9082   15.1404 C.ar      1 UNK         0.0000 
     27 C27         4.3998   55.0825   15.6853 C.ar      1 UNK         0.0000 
     28 C28         4.4691   55.2452   17.0699 C.ar      1 UNK         0.0000 
     29 F29         4.9674   56.3970   17.5804 F         1 UNK         0.0000 
     30 C30         3.4206   52.4659   21.6819 C.ar      1 UNK         0.0000 
     31 C31         2.0770   52.8320   21.8330 C.ar      1 UNK         0.0000 
     32 C32         1.0753   52.0965   21.2043 C.ar      1 UNK         0.0000 
     33 C33         1.4142   51.0019   20.4124 C.ar      1 UNK         0.0000 
     34 C34         2.7461   50.6348   20.2478 C.ar      1 UNK         0.0000 
     35 C35         3.7478   51.3640   20.8826 C.ar      1 UNK         0.0000 
     36 F36         0.4398   50.2972   19.7907 F         1 UNK         0.0000 
     37 H37         0.1122   53.7516   31.1612 H         1 UNK         0.0000 
     38 H38         1.1593   51.8438   30.0019 H         1 UNK         0.0000 
     39 H39         2.7861   52.2278   28.2101 H         1 UNK         0.0000 
     40 H40         2.2990   56.4806   28.6940 H         1 UNK         0.0000 
     41 H41         0.6907   56.0760   30.5207 H         1 UNK         0.0000 
     42 H42         3.8480   52.8973   26.3489 H         1 UNK         0.0000 
     43 H43         4.9946   53.2603   27.6356 H         1 UNK         0.0000 
     44 H44         3.8418   52.9036   24.2184 H         1 UNK         0.0000 
     45 H45         3.1787   54.4296   19.7844 H         1 UNK         0.0000 
     46 H46         3.1335   52.2473   18.0063 H         1 UNK         0.0000 
     47 H47         3.0248   51.9740   15.5678 H         1 UNK         0.0000 
     48 H48         3.8276   53.7812   14.0685 H         1 UNK         0.0000 
     49 H49         4.7548   55.8689   15.0352 H         1 UNK         0.0000 
     50 H50         1.8036   53.6944   22.4237 H         1 UNK         0.0000 
     51 H51         0.0394   52.3749   21.3181 H         1 UNK         0.0000 
     52 H52         3.0070   49.8004   19.6119 H         1 UNK         0.0000 
     53 H53         4.7810   51.0875   20.7287 H         1 UNK         0.0000 
@<TRIPOS>BOND
     1    1    6 ar   
     2    1    2 ar   
     3    1   37 1    
     4    2    3 ar   
     5    2   38 1    
     6    3    4 ar   
     7    3   39 1    
     8    4    5 ar   
     9    4    7 1    
    10    5    6 ar   
    11    5   40 1    
    12    6   41 1    
    13    7    8 1    
    14    8    9 1    
    15    8   42 1    
    16    8   43 1    
    17    9   13 ar   
    18    9   10 ar   
    19   10   11 ar   
    20   11   12 ar   
    21   12   19 1    
    22   12   13 ar   
    23   13   14 1    
    24   14   15 1    
    25   14   44 1    
    26   15   16 1    
    27   15   17 1    
    28   15   30 1    
    29   17   18 1    
    30   17   19 1    
    31   17   20 1    
    32   20   21 2    
    33   20   22 am   BACKBONE|DICT|INTERRES
    34   22   23 1    
    35   22   45 1    
    36   23   28 ar   
    37   23   24 ar   
    38   24   25 ar   
    39   24   46 1    
    40   25   26 ar   
    41   25   47 1    
    42   26   27 ar   
    43   26   48 1    
    44   27   28 ar   
    45   27   49 1    
    46   28   29 1    
    47   30   35 ar   
    48   30   31 ar   
    49   31   32 ar   
    50   31   50 1    
    51   32   33 ar   
    52   32   51 1    
    53   33   34 ar   
    54   33   36 1    
    55   34   35 ar   
    56   34   52 1    
    57   35   53 1    
@<TRIPOS>SUBSTRUCTURE
     1 UNK         1 GROUP             0       ****    0 ROOT    
