@<TRIPOS>MOLECULE
ZINC09224021_2744
53   57    1
SMALL
USER_CHARGES


@<TRIPOS>ATOM
      1 C1          8.5755   55.6782   18.1676 C.ar      1 UNK         0.0000 
      2 C2          8.6048   56.0779   19.4999 C.ar      1 UNK         0.0000 
      3 C3          7.5785   55.6963   20.3601 C.ar      1 UNK         0.0000 
      4 C4          6.5209   54.8967   19.8900 C.ar      1 UNK         0.0000 
      5 C5          6.5053   54.5036   18.5430 C.ar      1 UNK         0.0000 
      6 C6          7.5292   54.8966   17.6860 C.ar      1 UNK         0.0000 
      7 N7          5.5045   54.4361   20.7727 N.pl3     1 UNK         0.0000 
      8 C8          4.2882   53.8810   20.4734 C.ar      1 UNK         0.0000 
      9 C9          3.6353   53.5921   21.6627 C.ar      1 UNK         0.0000 
     10 C10         4.5540   54.0433   22.6508 C.ar      1 UNK         0.0000 
     11 N11         5.6619   54.4967   22.1002 N.2       1 UNK         0.0000 
     12 C12         4.4287   54.0982   24.1208 C.2       1 UNK         0.0000 
     13 C13         3.2777   54.1950   24.9041 C.2       1 UNK         0.0000 
     14 C14         3.5247   54.2411   26.2800 C.2       1 UNK         0.0000 
     15 C15         4.8759   54.2335   26.5786 C.2       1 UNK         0.0000 
     16 S16         5.8471   54.1678   25.1474 S.3       1 UNK         0.0000 
     17 C17         2.2833   53.0591   21.7620 C.2       1 UNK         0.0000 
     18 C18         1.7413   52.3487   22.7700 C.2       1 UNK         0.0000 
     19 C19         0.3244   52.0049   22.8207 C.2       1 UNK         0.0000 
     20 O20        -0.3825   52.0978   21.8125 O.2       1 UNK         0.0000 
     21 N21        -0.1826   51.6710   24.0510 N.am      1 UNK         0.0000 
     22 C22         0.7044   50.9432   24.9896 C.3       1 UNK         0.0000 
     23 C23        -0.1248   49.9461   25.8369 C.3       1 UNK         0.0000 
     24 H24         0.5055   49.4751   26.5917 H         1 UNK         0.0000 
     25 O25        -1.2041   50.6239   26.4934 O.3       1 UNK         0.0000 
     26 C26        -1.9822   51.4316   25.6899 C.ar      1 UNK         0.0000 
     27 C27        -1.5198   51.9726   24.4724 C.ar      1 UNK         0.0000 
     28 C28        -2.3897   52.8547   23.7975 C.ar      1 UNK         0.0000 
     29 C29        -3.6547   53.1578   24.3036 C.ar      1 UNK         0.0000 
     30 C30        -4.0871   52.5902   25.4982 C.ar      1 UNK         0.0000 
     31 C31        -3.2467   51.7276   26.1951 C.ar      1 UNK         0.0000 
     32 C32        -0.6960   48.7377   25.0459 C.2       1 UNK         0.0000 
     33 O33        -0.3462   48.4858   23.8947 O.2       1 UNK         0.0000 
     34 N34        -1.5702   47.9613   25.6816 N.am      1 UNK         0.0000 
     35 H35         9.3769   55.9703   17.5041 H         1 UNK         0.0000 
     36 H36         9.4345   56.6675   19.8653 H         1 UNK         0.0000 
     37 H37         7.6338   56.0001   21.3963 H         1 UNK         0.0000 
     38 H38         5.7252   53.8702   18.1461 H         1 UNK         0.0000 
     39 H39         7.5196   54.5830   16.6524 H         1 UNK         0.0000 
     40 H40         3.9686   53.7528   19.4502 H         1 UNK         0.0000 
     41 H41         2.2800   54.2403   24.4952 H         1 UNK         0.0000 
     42 H42         2.7461   54.2979   27.0262 H         1 UNK         0.0000 
     43 H43         5.3425   54.2724   27.5522 H         1 UNK         0.0000 
     44 H44         1.6752   53.2966   20.8996 H         1 UNK         0.0000 
     45 H45         2.3737   52.0745   23.5962 H         1 UNK         0.0000 
     46 H46         1.1564   51.6669   25.6685 H         1 UNK         0.0000 
     47 H47         1.4977   50.3895   24.4820 H         1 UNK         0.0000 
     48 H48        -2.1003   53.3410   22.8821 H         1 UNK         0.0000 
     49 H49        -4.2971   53.8429   23.7710 H         1 UNK         0.0000 
     50 H50        -5.0666   52.8238   25.8884 H         1 UNK         0.0000 
     51 H51        -3.5660   51.2945   27.1323 H         1 UNK         0.0000 
     52 H52        -1.6957   48.0966   26.6905 H         1 UNK         0.0000 
     53 H53        -1.9780   47.1707   25.2155 H         1 UNK         0.0000 
@<TRIPOS>BOND
     1    1    6 ar   
     2    1    2 ar   
     3    1   35 1    
     4    2    3 ar   
     5    2   36 1    
     6    3    4 ar   
     7    3   37 1    
     8    4    5 ar   
     9    4    7 1    
    10    5    6 ar   
    11    5   38 1    
    12    6   39 1    
    13    7   11 ar   
    14    7    8 ar   
    15    8    9 ar   
    16    8   40 1    
    17    9   10 ar   
    18    9   17 1    
    19   10   11 ar   
    20   10   12 1    
    21   12   16 1    
    22   12   13 2    
    23   13   14 1    
    24   13   41 1    
    25   14   15 2    
    26   14   42 1    
    27   15   16 1    
    28   15   43 1    
    29   17   18 2    
    30   17   44 1    
    31   18   19 1    
    32   18   45 1    
    33   19   20 2    
    34   19   21 am   BACKBONE|DICT|INTERRES
    35   21   27 1    
    36   21   22 1    
    37   22   23 1    
    38   22   46 1    
    39   22   47 1    
    40   23   24 1    
    41   23   25 1    
    42   23   32 1    
    43   25   26 1    
    44   26   31 ar   
    45   26   27 ar   
    46   27   28 ar   
    47   28   29 ar   
    48   28   48 1    
    49   29   30 ar   
    50   29   49 1    
    51   30   31 ar   
    52   30   50 1    
    53   31   51 1    
    54   32   33 2    
    55   32   34 am   BACKBONE|DICT|INTERRES
    56   34   52 1    
    57   34   53 1    
@<TRIPOS>SUBSTRUCTURE
     1 UNK         1 GROUP             0       ****    0 ROOT    
