@<TRIPOS>MOLECULE
ZINC09236845_2237
49   52    1
SMALL
USER_CHARGES


@<TRIPOS>ATOM
      1 C1          2.1030   52.2160   18.8488 C.3       1 UNK         0.0000 
      2 C2          2.0310   51.2231   19.9902 C.ar      1 UNK         0.0000 
      3 N3          2.5275   50.0128   19.9550 N.2       1 UNK         0.0000 
      4 N4          2.2859   49.4300   21.1952 N.2       1 UNK         0.0000 
      5 C5          1.6455   50.3085   21.9251 C.ar      1 UNK         0.0000 
      6 N6          1.4499   51.4731   21.2118 N.pl3     1 UNK         0.0000 
      7 N7          0.8324   52.6596   21.6245 N.3       1 UNK         0.0000 
      8 C8          0.9031   52.8818   23.0752 C.3       1 UNK         0.0000 
      9 H9          0.2781   53.7509   23.2816 H         1 UNK         0.0000 
     10 C10         0.1817   51.6517   23.7466 C.3       1 UNK         0.0000 
     11 H11        -0.7850   51.4781   23.2700 H         1 UNK         0.0000 
     12 S12         1.1080   50.0788   23.5890 S.3       1 UNK         0.0000 
     13 C13        -0.1963   51.9002   25.2257 C.2       1 UNK         0.0000 
     14 O14        -1.2438   52.4970   25.4762 O.2       1 UNK         0.0000 
     15 N15         0.6875   51.5130   26.1680 N.am      1 UNK         0.0000 
     16 C16         0.6705   51.8053   27.5342 C.ar      1 UNK         0.0000 
     17 C17        -0.4879   51.7922   28.3209 C.ar      1 UNK         0.0000 
     18 C18        -0.4048   52.0970   29.6809 C.ar      1 UNK         0.0000 
     19 C19         0.8284   52.4181   30.2549 C.ar      1 UNK         0.0000 
     20 C20         1.9957   52.4020   29.4773 C.ar      1 UNK         0.0000 
     21 C21         1.9016   52.0968   28.1184 C.ar      1 UNK         0.0000 
     22 C22         3.3598   52.6950   30.0912 C.3       1 UNK         0.0000 
     23 F23         4.3438   52.1177   29.4022 F         1 UNK         0.0000 
     24 F24         3.4289   52.2448   31.3439 F         1 UNK         0.0000 
     25 F25         3.5599   54.0120   30.0816 F         1 UNK         0.0000 
     26 C26         2.2942   53.3200   23.6164 C.ar      1 UNK         0.0000 
     27 C27         3.4552   53.2983   22.8224 C.ar      1 UNK         0.0000 
     28 C28         4.6856   53.6969   23.3415 C.ar      1 UNK         0.0000 
     29 C29         4.7961   54.0968   24.6723 C.ar      1 UNK         0.0000 
     30 C30         3.6367   54.1774   25.4538 C.ar      1 UNK         0.0000 
     31 C31         2.4037   53.8158   24.9195 C.ar      1 UNK         0.0000 
     32 O32         6.0633   54.3903   25.1391 O.3       1 UNK         0.0000 
     33 C33         6.2789   54.4434   26.5468 C.3       1 UNK         0.0000 
     34 H34         2.6291   51.8061   17.9862 H         1 UNK         0.0000 
     35 H35         1.1106   52.5127   18.5079 H         1 UNK         0.0000 
     36 H36         2.6315   53.1258   19.1385 H         1 UNK         0.0000 
     37 H37         1.2864   53.4338   21.1514 H         1 UNK         0.0000 
     38 H38         1.5308   51.0824   25.8220 H         1 UNK         0.0000 
     39 H39        -1.4450   51.5291   27.8918 H         1 UNK         0.0000 
     40 H40        -1.2946   52.0607   30.2937 H         1 UNK         0.0000 
     41 H41         0.8695   52.6451   31.3108 H         1 UNK         0.0000 
     42 H42         2.7956   52.0965   27.5101 H         1 UNK         0.0000 
     43 H43         3.4347   52.9695   21.7961 H         1 UNK         0.0000 
     44 H44         5.5676   53.6566   22.7203 H         1 UNK         0.0000 
     45 H45         3.6761   54.5222   26.4759 H         1 UNK         0.0000 
     46 H46         1.5314   53.9307   25.5424 H         1 UNK         0.0000 
     47 H47         7.3449   54.5470   26.7477 H         1 UNK         0.0000 
     48 H48         5.7748   55.2969   27.0002 H         1 UNK         0.0000 
     49 H49         5.9425   53.5276   27.0391 H         1 UNK         0.0000 
@<TRIPOS>BOND
     1    1    2 1    
     2    1   34 1    
     3    1   35 1    
     4    1   36 1    
     5    2    6 ar   
     6    2    3 ar   
     7    3    4 ar   
     8    4    5 ar   
     9    5   12 1    
    10    5    6 ar   
    11    6    7 1    
    12    7    8 1    
    13    7   37 1    
    14    8    9 1    
    15    8   10 1    
    16    8   26 1    
    17   10   11 1    
    18   10   12 1    
    19   10   13 1    
    20   13   14 2    
    21   13   15 am   BACKBONE|DICT|INTERRES
    22   15   16 1    
    23   15   38 1    
    24   16   21 ar   
    25   16   17 ar   
    26   17   18 ar   
    27   17   39 1    
    28   18   19 ar   
    29   18   40 1    
    30   19   20 ar   
    31   19   41 1    
    32   20   21 ar   
    33   20   22 1    
    34   21   42 1    
    35   22   23 1    
    36   22   24 1    
    37   22   25 1    
    38   26   31 ar   
    39   26   27 ar   
    40   27   28 ar   
    41   27   43 1    
    42   28   29 ar   
    43   28   44 1    
    44   29   30 ar   
    45   29   32 1    
    46   30   31 ar   
    47   30   45 1    
    48   31   46 1    
    49   32   33 1    
    50   33   47 1    
    51   33   48 1    
    52   33   49 1    
@<TRIPOS>SUBSTRUCTURE
     1 UNK         1 GROUP             0       ****    0 ROOT    
