ZINC04260364_2188
                    3D
 Schrodinger Suite 2024-2.
 64 68  0  0  1  0            999 V2000
    3.5135   53.7899   26.3528 C   0  0  0  0  0  0
    4.5595   54.5416   25.8276 C   0  0  0  0  0  0
    5.6890   54.7876   26.6023 C   0  0  0  0  0  0
    5.7771   54.2958   27.9018 C   0  0  0  0  0  0
    4.7309   53.5418   28.4283 C   0  0  0  0  0  0
    3.5993   53.2738   27.6536 C   0  0  0  0  0  0
    2.5301   52.3388   28.2301 C   0  0  0  0  0  0
    0.2063   52.9948   27.4259 C   0  0  0  0  0  0
   -0.8787   52.6677   26.3554 C   0  0  2  0  0  0
   -1.7559   53.2961   26.4939 H   0  0  0  0  0  0
   -1.4188   51.2453   26.5277 C   0  0  0  0  0  0
   -0.2523   50.2812   26.3375 C   0  0  2  0  0  0
   -0.6246   49.2644   26.4817 H   0  0  0  0  0  0
    0.8401   50.5497   27.4049 C   0  0  0  0  0  0
    0.2838   50.3926   24.8991 C   0  0  0  0  0  0
    0.7043   49.2968   24.2343 C   0  0  0  0  0  0
    1.2072   49.4420   22.8856 C   0  0  0  0  0  0
    1.2708   50.6685   22.3255 C   0  0  0  0  0  0
    0.8896   51.8861   23.0684 C   0  0  0  0  0  0
    1.1069   53.0188   22.6269 O   0  0  0  0  0  0
    0.3026   51.6672   24.3042 N   0  0  0  0  0  0
   -0.3451   52.8663   24.9112 C   0  0  0  0  0  0
    1.6984   50.7418   21.0216 N   0  0  0  0  0  0
    0.9787   51.2245   19.9858 C   0  0  0  0  0  0
   -0.1704   51.6670   20.0771 O   0  0  0  0  0  0
    1.6555   51.1614   18.8267 N   0  0  0  0  0  0
    1.2372   51.7921   17.5747 C   0  0  0  0  0  0
    1.2305   53.3424   17.6020 C   0  0  0  0  0  0
    0.8583   53.9901   16.2549 C   0  0  0  0  0  0
    1.6930   53.4293   15.0932 C   0  0  0  0  0  0
    1.5692   51.8986   15.0103 C   0  0  0  0  0  0
    1.9561   51.2109   16.3345 C   0  0  0  0  0  0
    6.7051   55.5130   26.0843 F   0  0  0  0  0  0
    2.6626   53.5983   25.7179 H   0  0  0  0  0  0
    4.5041   54.9219   24.8195 H   0  0  0  0  0  0
    6.6582   54.4957   28.4937 H   0  0  0  0  0  0
    4.8157   53.1388   29.4261 H   0  0  0  0  0  0
    2.0942   52.7409   29.1475 H   0  0  0  0  0  0
    2.9987   51.3881   28.4841 H   0  0  0  0  0  0
    0.7034   53.9595   27.2817 H   0  0  0  0  0  0
   -0.1677   52.9174   28.4492 H   0  0  0  0  0  0
   -2.2109   51.0365   25.8065 H   0  0  0  0  0  0
   -1.8618   51.1103   27.5175 H   0  0  0  0  0  0
    0.4407   50.4967   28.4191 H   0  0  0  0  0  0
    1.6857   49.8730   27.2816 H   0  0  0  0  0  0
    0.7019   48.3260   24.7096 H   0  0  0  0  0  0
    1.4969   48.5624   22.3286 H   0  0  0  0  0  0
    0.3571   53.6989   24.8811 H   0  0  0  0  0  0
   -1.1529   53.1996   24.2569 H   0  0  0  0  0  0
    2.5812   50.3017   20.8051 H   0  0  0  0  0  0
    2.5911   50.7802   18.8222 H   0  0  0  0  0  0
    0.1924   51.5080   17.4217 H   0  0  0  0  0  0
    2.2259   53.6931   17.8790 H   0  0  0  0  0  0
    0.5447   53.6998   18.3707 H   0  0  0  0  0  0
    0.9894   55.0705   16.3194 H   0  0  0  0  0  0
   -0.2002   53.8255   16.0529 H   0  0  0  0  0  0
    2.7400   53.7068   15.2268 H   0  0  0  0  0  0
    1.3768   53.8804   14.1519 H   0  0  0  0  0  0
    2.1954   51.5191   14.2022 H   0  0  0  0  0  0
    0.5444   51.6305   14.7478 H   0  0  0  0  0  0
    1.7683   50.1388   16.2533 H   0  0  0  0  0  0
    3.0355   51.3224   16.4660 H   0  0  0  0  0  0
    1.3633   51.9937   27.2697 N   0  3  2  0  0  0
    1.7286   52.0779   26.3316 H   0  0  0  0  0  0
  1  6  2  0  0  0
  1  2  1  0  0  0
  1 34  1  0  0  0
  2  3  2  0  0  0
  2 35  1  0  0  0
  3  4  1  0  0  0
  3 33  1  0  0  0
  4  5  2  0  0  0
  4 36  1  0  0  0
  5  6  1  0  0  0
  5 37  1  0  0  0
  6  7  1  0  0  0
  7 38  1  0  0  0
  7 39  1  0  0  0
  7 63  1  0  0  0
  8  9  1  0  0  0
  8 40  1  0  0  0
  8 41  1  0  0  0
  8 63  1  0  0  0
  9 10  1  0  0  0
  9 22  1  0  0  0
  9 11  1  0  0  0
 11 12  1  0  0  0
 11 42  1  0  0  0
 11 43  1  0  0  0
 12 13  1  0  0  0
 12 14  1  0  0  0
 12 15  1  0  0  0
 14 44  1  0  0  0
 14 45  1  0  0  0
 14 63  1  0  0  0
 15 21  1  0  0  0
 15 16  2  0  0  0
 16 17  1  0  0  0
 16 46  1  0  0  0
 17 18  2  0  0  0
 17 47  1  0  0  0
 18 19  1  0  0  0
 18 23  1  0  0  0
 19 20  2  0  0  0
 19 21  1  0  0  0
 21 22  1  0  0  0
 22 48  1  0  0  0
 22 49  1  0  0  0
 23 24  1  0  0  0
 23 50  1  0  0  0
 24 25  2  0  0  0
 24 26  1  0  0  0
 26 27  1  0  0  0
 26 51  1  0  0  0
 27 32  1  0  0  0
 27 28  1  0  0  0
 27 52  1  0  0  0
 28 29  1  0  0  0
 28 53  1  0  0  0
 28 54  1  0  0  0
 29 30  1  0  0  0
 29 55  1  0  0  0
 29 56  1  0  0  0
 30 31  1  0  0  0
 30 57  1  0  0  0
 30 58  1  0  0  0
 31 32  1  0  0  0
 31 59  1  0  0  0
 31 60  1  0  0  0
 32 61  1  0  0  0
 32 62  1  0  0  0
 63 64  1  0  0  0
M  CHG  1  63   1
M  END
> <i_i_glide_confnum>
127

> <i_i_glide_lignum>
2189

> <i_i_glide_posenum>
212

> <i_i_glide_rotatable_bonds>
6

> <i_m_Source_File_Index>
2299

> <b_m_subgroup_collapsed>
0

> <r_i_docking_score>
-4.23954

> <r_i_glide_ecoul>
-2.93273

> <r_i_glide_eff_state_penalty>
0

> <r_i_glide_einternal>
10.3033

> <r_i_glide_emodel>
-39.431

> <r_i_glide_energy>
-33.2077

> <r_i_glide_erotb>
0.51654

> <r_i_glide_esite>
-0.0485083

> <r_i_glide_evdw>
-30.275

> <r_i_glide_gscore>
-4.23954

> <r_i_glide_hbond>
0

> <r_i_glide_ligand_efficiency>
-0.132486

> <r_i_glide_ligand_efficiency_ln>
-0.949349

> <r_i_glide_ligand_efficiency_sa>
-0.420616

> <r_i_glide_lipo>
-2.02339

> <r_i_glide_metal>
0

> <r_i_glide_rewards>
-0.73052

> <s_i_glide_gridfile>
wee1_glide-grid

> <s_m_Source_File>
wee1_decoys_glide_SP.sdf

> <s_m_Source_Path>
/Users/zhangxujun/Desktop

> <s_m_entry_id>
2574

> <s_m_entry_name>
wee1_decoys_glide_SP.2299

> <s_m_subgroup_title>
wee1_decoys_glide_SP

> <s_m_subgroupid>
wee1_decoys_glide_SP


$$$$
