@<TRIPOS>MOLECULE
ZINC16643927_2253
54   56    1
SMALL
USER_CHARGES


@<TRIPOS>ATOM
      1 C1          2.2837   58.5266   16.0389 C.3       1 UNK         0.0000 
      2 C2          3.4999   57.6587   16.3032 C.ar      1 UNK         0.0000 
      3 C3          3.3694   56.2711   16.3799 C.ar      1 UNK         0.0000 
      4 C4          4.4918   55.4819   16.6189 C.ar      1 UNK         0.0000 
      5 C5          5.7403   56.0895   16.7810 C.ar      1 UNK         0.0000 
      6 C6          5.8676   57.4776   16.7209 C.ar      1 UNK         0.0000 
      7 C7          4.7449   58.2611   16.4838 C.ar      1 UNK         0.0000 
      8 S8          7.2101   55.1145   17.0769 S.o2      1 UNK         0.0000 
      9 O9          8.2021   55.5607   16.0927 O.2       1 UNK         0.0000 
     10 O10         6.8193   53.7013   17.1469 O.2       1 UNK         0.0000 
     11 N11         7.7750   55.6091   18.7156 N.pl3     1 UNK         0.0000 
     12 C12         9.1045   56.2210   18.7899 C.3       1 UNK         0.0000 
     13 C13         7.0786   55.2959   19.9163 C.ar      1 UNK         0.0000 
     14 C14         7.6347   55.5824   21.1730 C.ar      1 UNK         0.0000 
     15 C15         6.9891   55.2144   22.3488 C.ar      1 UNK         0.0000 
     16 C16         5.7554   54.5442   22.3132 C.ar      1 UNK         0.0000 
     17 C17         5.1779   54.2916   21.0632 C.ar      1 UNK         0.0000 
     18 C18         5.8276   54.6643   19.8899 C.ar      1 UNK         0.0000 
     19 C19         5.0164   54.1460   23.5773 C.2       1 UNK         0.0000 
     20 O20         3.8668   53.7123   23.5063 O.2       1 UNK         0.0000 
     21 N21         5.6937   54.3264   24.7331 N.am      1 UNK         0.0000 
     22 C22         5.2969   54.0968   26.0626 C.ar      1 UNK         0.0000 
     23 C23         6.2988   54.2388   27.0242 C.ar      1 UNK         0.0000 
     24 C24         6.0273   54.0060   28.3674 C.ar      1 UNK         0.0000 
     25 C25         4.7481   53.6384   28.7690 C.ar      1 UNK         0.0000 
     26 C26         3.7229   53.4843   27.8272 C.ar      1 UNK         0.0000 
     27 C27         4.0080   53.7115   26.4761 C.ar      1 UNK         0.0000 
     28 N28         2.4144   53.0674   28.1472 N.am      1 UNK         0.0000 
     29 C29         1.8231   52.9586   29.3567 C.2       1 UNK         0.0000 
     30 O30         2.3251   53.2825   30.4331 O.2       1 UNK         0.0000 
     31 C31         0.4049   52.3997   29.3412 C.3       1 UNK         0.0000 
     32 H32         1.3865   58.0906   16.4792 H         1 UNK         0.0000 
     33 H33         2.4001   59.5173   16.4806 H         1 UNK         0.0000 
     34 H34         2.1237   58.6462   14.9694 H         1 UNK         0.0000 
     35 H35         2.4035   55.8026   16.2469 H         1 UNK         0.0000 
     36 H36         4.3928   54.4064   16.6647 H         1 UNK         0.0000 
     37 H37         6.8316   57.9496   16.8540 H         1 UNK         0.0000 
     38 H38         4.8491   59.3349   16.4314 H         1 UNK         0.0000 
     39 H39         9.0961   57.1128   19.4177 H         1 UNK         0.0000 
     40 H40         9.8205   55.5046   19.1979 H         1 UNK         0.0000 
     41 H41         9.4790   56.5371   17.8191 H         1 UNK         0.0000 
     42 H42         8.5970   56.0644   21.2689 H         1 UNK         0.0000 
     43 H43         7.4925   55.4546   23.2754 H         1 UNK         0.0000 
     44 H44         4.2196   53.7957   20.9868 H         1 UNK         0.0000 
     45 H45         5.3346   54.4202   18.9644 H         1 UNK         0.0000 
     46 H46         6.6383   54.6550   24.6271 H         1 UNK         0.0000 
     47 H47         7.3034   54.5119   26.7390 H         1 UNK         0.0000 
     48 H48         6.8168   54.0973   29.0991 H         1 UNK         0.0000 
     49 H49         4.5853   53.4518   29.8167 H         1 UNK         0.0000 
     50 H50         3.2145   53.5829   25.7585 H         1 UNK         0.0000 
     51 H51         1.8505   52.8123   27.3534 H         1 UNK         0.0000 
     52 H52         0.4288   51.3121   29.2828 H         1 UNK         0.0000 
     53 H53        -0.1616   52.7805   28.4903 H         1 UNK         0.0000 
     54 H54        -0.1241   52.6774   30.2548 H         1 UNK         0.0000 
@<TRIPOS>BOND
     1    1    2 1    
     2    1   32 1    
     3    1   33 1    
     4    1   34 1    
     5    2    7 ar   
     6    2    3 ar   
     7    3    4 ar   
     8    3   35 1    
     9    4    5 ar   
    10    4   36 1    
    11    5    6 ar   
    12    5    8 1    
    13    6    7 ar   
    14    6   37 1    
    15    7   38 1    
    16    8    9 2    
    17    8   10 2    
    18    8   11 1    
    19   11   12 1    
    20   11   13 1    
    21   12   39 1    
    22   12   40 1    
    23   12   41 1    
    24   13   18 ar   
    25   13   14 ar   
    26   14   15 ar   
    27   14   42 1    
    28   15   16 ar   
    29   15   43 1    
    30   16   17 ar   
    31   16   19 1    
    32   17   18 ar   
    33   17   44 1    
    34   18   45 1    
    35   19   20 2    
    36   19   21 am   BACKBONE|DICT|INTERRES
    37   21   22 1    
    38   21   46 1    
    39   22   27 ar   
    40   22   23 ar   
    41   23   24 ar   
    42   23   47 1    
    43   24   25 ar   
    44   24   48 1    
    45   25   26 ar   
    46   25   49 1    
    47   26   27 ar   
    48   26   28 1    
    49   27   50 1    
    50   28   29 am   BACKBONE|DICT|INTERRES
    51   28   51 1    
    52   29   30 2    
    53   29   31 1    
    54   31   52 1    
    55   31   53 1    
    56   31   54 1    
@<TRIPOS>SUBSTRUCTURE
     1 UNK         1 GROUP             0       ****    0 ROOT    
