@<TRIPOS>MOLECULE
ZINC39923297_793
58   62    1
SMALL
USER_CHARGES


@<TRIPOS>ATOM
      1 C1         -2.0854   52.8946   24.2778 C.3       1 UNK         0.0000 
      2 C2         -1.3546   52.3756   25.5094 C.ar      1 UNK         0.0000 
      3 C3         -2.1251   52.1050   26.6446 C.ar      1 UNK         0.0000 
      4 C4         -1.5286   51.6878   27.8303 C.ar      1 UNK         0.0000 
      5 C5         -0.1488   51.5475   27.9034 C.ar      1 UNK         0.0000 
      6 C6          0.6336   51.8107   26.7840 C.ar      1 UNK         0.0000 
      7 C7          0.0497   52.2148   25.5672 C.ar      1 UNK         0.0000 
      8 N8          0.8803   52.4188   24.4292 N.am      1 UNK         0.0000 
      9 C9          0.6400   51.5286   23.2455 C.3       1 UNK         0.0000 
     10 H10        -0.4212   51.3468   23.1116 H         1 UNK         0.0000 
     11 N11         1.0371   52.1710   21.9883 N.pl3     1 UNK         0.0000 
     12 C12         2.2800   52.8176   22.0022 C.ar      1 UNK         0.0000 
     13 C13         3.0545   52.8773   20.8400 C.ar      1 UNK         0.0000 
     14 C14         4.3075   53.4902   20.8642 C.ar      1 UNK         0.0000 
     15 C15         4.7922   54.0362   22.0519 C.ar      1 UNK         0.0000 
     16 C16         4.0393   53.9453   23.2220 C.ar      1 UNK         0.0000 
     17 C17         2.7948   53.2960   23.2143 C.ar      1 UNK         0.0000 
     18 C18         2.0140   53.1967   24.5063 C.2       1 UNK         0.0000 
     19 O19         2.3446   53.8144   25.5235 O.2       1 UNK         0.0000 
     20 S20         1.3710   49.8664   23.3938 S.3       1 UNK         0.0000 
     21 C21         0.3553   48.9694   24.6384 C.3       1 UNK         0.0000 
     22 C22        -1.1631   48.9511   24.4005 C.2       1 UNK         0.0000 
     23 O23        -1.6120   49.0411   23.2550 O.2       1 UNK         0.0000 
     24 N24        -1.9362   48.8479   25.5015 N.am      1 UNK         0.0000 
     25 N25        -3.2640   49.1019   25.4714 N.2       1 UNK         0.0000 
     26 C26        -3.7992   49.0110   26.6212 C.2       1 UNK         0.0000 
     27 C27        -5.1584   49.3630   26.9089 C.2       1 UNK         0.0000 
     28 C28        -5.8831   50.3551   26.3403 C.2       1 UNK         0.0000 
     29 C29        -5.5792   51.3107   25.2582 C.2       1 UNK         0.0000 
     30 C30        -6.4801   52.2394   24.8800 C.2       1 UNK         0.0000 
     31 C31        -7.7663   52.2646   25.5599 C.2       1 UNK         0.0000 
     32 C32        -8.0703   51.3945   26.5581 C.2       1 UNK         0.0000 
     33 C33        -7.1340   50.4329   26.9697 C.2       1 UNK         0.0000 
     34 N34        -7.2371   49.5334   27.9197 N.pl3     1 UNK         0.0000 
     35 C35        -5.9929   48.7492   28.0128 C.3       1 UNK         0.0000 
     36 H36        -2.4718   52.0732   23.6758 H         1 UNK         0.0000 
     37 H37        -2.9329   53.5192   24.5646 H         1 UNK         0.0000 
     38 H38        -1.4450   53.5282   23.6657 H         1 UNK         0.0000 
     39 H39        -3.1970   52.2262   26.6154 H         1 UNK         0.0000 
     40 H40        -2.1336   51.4639   28.6957 H         1 UNK         0.0000 
     41 H41         0.3113   51.2276   28.8286 H         1 UNK         0.0000 
     42 H42         1.7040   51.6957   26.8723 H         1 UNK         0.0000 
     43 H43         0.7459   51.6769   21.1570 H         1 UNK         0.0000 
     44 H44         2.6851   52.4666   19.9115 H         1 UNK         0.0000 
     45 H45         4.8972   53.5433   19.9589 H         1 UNK         0.0000 
     46 H46         5.7594   54.5204   22.0702 H         1 UNK         0.0000 
     47 H47         4.4454   54.3601   24.1330 H         1 UNK         0.0000 
     48 H48         0.7039   47.9381   24.6659 H         1 UNK         0.0000 
     49 H49         0.5753   49.3783   25.6229 H         1 UNK         0.0000 
     50 H50        -1.5450   48.6873   26.4230 H         1 UNK         0.0000 
     51 H51        -3.2956   48.6612   27.5162 H         1 UNK         0.0000 
     52 H52        -4.6331   51.2896   24.7360 H         1 UNK         0.0000 
     53 H53        -6.2635   52.9362   24.0819 H         1 UNK         0.0000 
     54 H54        -8.5058   52.9926   25.2533 H         1 UNK         0.0000 
     55 H55        -9.0439   51.4579   27.0255 H         1 UNK         0.0000 
     56 H56        -6.2352   47.6988   27.8512 H         1 UNK         0.0000 
     57 H57        -5.5721   48.8904   29.0094 H         1 UNK         0.0000 
     58 H58        -8.0475   49.3940   28.5193 H         1 UNK         0.0000 
@<TRIPOS>BOND
     1    1    2 1    
     2    1   36 1    
     3    1   37 1    
     4    1   38 1    
     5    2    7 ar   
     6    2    3 ar   
     7    3    4 ar   
     8    3   39 1    
     9    4    5 ar   
    10    4   40 1    
    11    5    6 ar   
    12    5   41 1    
    13    6    7 ar   
    14    6   42 1    
    15    7    8 1    
    16    8   18 am   BACKBONE|DICT|INTERRES
    17    8    9 1    
    18    9   10 1    
    19    9   11 1    
    20    9   20 1    
    21   11   12 1    
    22   11   43 1    
    23   12   17 ar   
    24   12   13 ar   
    25   13   14 ar   
    26   13   44 1    
    27   14   15 ar   
    28   14   45 1    
    29   15   16 ar   
    30   15   46 1    
    31   16   17 ar   
    32   16   47 1    
    33   17   18 1    
    34   18   19 2    
    35   20   21 1    
    36   21   22 1    
    37   21   48 1    
    38   21   49 1    
    39   22   23 2    
    40   22   24 am   BACKBONE|DICT|INTERRES
    41   24   25 1    
    42   24   50 1    
    43   25   26 2    
    44   26   27 1    
    45   26   51 1    
    46   27   35 1    
    47   27   28 2    
    48   28   33 1    
    49   28   29 1    
    50   29   30 2    
    51   29   52 1    
    52   30   31 1    
    53   30   53 1    
    54   31   32 2    
    55   31   54 1    
    56   32   33 1    
    57   32   55 1    
    58   33   34 2    
    59   34   35 1    
    60   34   58 1    
    61   35   56 1    
    62   35   57 1    
@<TRIPOS>SUBSTRUCTURE
     1 UNK         1 GROUP             0       ****    0 ROOT    
