@<TRIPOS>MOLECULE
ZINC00749033_2368
63   66    1
SMALL
USER_CHARGES


@<TRIPOS>ATOM
      1 C1          3.2001   52.5569   17.5190 C.3       1 UNK         0.0000 
      2 C2          4.5236   53.2973   17.6856 C.ar      1 UNK         0.0000 
      3 C3          5.3776   53.4037   16.5822 C.ar      1 UNK         0.0000 
      4 C4          6.6074   54.0493   16.6959 C.ar      1 UNK         0.0000 
      5 C5          6.9953   54.5981   17.9155 C.ar      1 UNK         0.0000 
      6 C6          6.1543   54.4993   19.0221 C.ar      1 UNK         0.0000 
      7 C7          4.9163   53.8393   18.9243 C.ar      1 UNK         0.0000 
      8 N8          4.0333   53.7257   20.0180 N.am      1 UNK         0.0000 
      9 C9          4.3338   53.7001   21.3304 C.2       1 UNK         0.0000 
     10 O10         5.4799   53.6935   21.7851 O.2       1 UNK         0.0000 
     11 N11         3.2120   53.6794   22.0826 N.am      1 UNK         0.0000 
     12 C12         3.1395   53.7154   23.4877 C.ar      1 UNK         0.0000 
     13 C13         4.0886   54.3779   24.2695 C.ar      1 UNK         0.0000 
     14 C14         3.9777   54.3830   25.6493 C.ar      1 UNK         0.0000 
     15 C15         2.9314   53.7197   26.3023 C.ar      1 UNK         0.0000 
     16 C16         1.9533   53.0444   25.5242 C.ar      1 UNK         0.0000 
     17 C17         2.0640   53.0851   24.1182 C.ar      1 UNK         0.0000 
     18 C18         0.7486   52.3677   26.1543 C.2       1 UNK         0.0000 
     19 O19         0.2336   52.8065   27.1827 O.2       1 UNK         0.0000 
     20 N20         0.2951   51.2784   25.5063 N.am      1 UNK         0.0000 
     21 C21        -0.8150   50.3886   25.8818 C.3       1 UNK         0.0000 
     22 H22        -0.4811   49.8216   26.7559 H         1 UNK         0.0000 
     23 C23        -2.1237   51.1188   26.2641 C.3       1 UNK         0.0000 
     24 C24        -1.1146   49.3949   24.7552 C.ar      1 UNK         0.0000 
     25 C25        -1.3412   48.0493   25.0628 C.ar      1 UNK         0.0000 
     26 C26        -1.6391   47.1398   24.0528 C.ar      1 UNK         0.0000 
     27 C27        -1.6962   47.5703   22.7289 C.ar      1 UNK         0.0000 
     28 C28        -1.4585   48.9043   22.4073 C.ar      1 UNK         0.0000 
     29 C29        -1.1693   49.8158   23.4188 C.ar      1 UNK         0.0000 
     30 N30         2.9456   53.7250   27.7063 N.pl3     1 UNK         0.0000 
     31 C31         3.4605   54.8052   28.5403 C.3       1 UNK         0.0000 
     32 C32         3.3315   54.4188   30.0040 C.3       1 UNK         0.0000 
     33 C33         2.8607   52.9733   29.9821 C.3       1 UNK         0.0000 
     34 C34         3.1064   52.5413   28.5430 C.3       1 UNK         0.0000 
     35 H35         3.0629   52.1697   16.5076 H         1 UNK         0.0000 
     36 H36         3.1598   51.7076   18.2035 H         1 UNK         0.0000 
     37 H37         2.3608   53.2125   17.7535 H         1 UNK         0.0000 
     38 H38         5.0949   52.9734   15.6326 H         1 UNK         0.0000 
     39 H39         7.2599   54.1217   15.8379 H         1 UNK         0.0000 
     40 H40         7.9459   55.1031   18.0030 H         1 UNK         0.0000 
     41 H41         6.4757   54.9499   19.9484 H         1 UNK         0.0000 
     42 H42         3.0665   53.5885   19.7644 H         1 UNK         0.0000 
     43 H43         2.3349   53.5772   21.5946 H         1 UNK         0.0000 
     44 H44         4.9217   54.8966   23.8211 H         1 UNK         0.0000 
     45 H45         4.7472   54.8934   26.2053 H         1 UNK         0.0000 
     46 H46         1.3170   52.6070   23.4996 H         1 UNK         0.0000 
     47 H47         0.8980   50.9041   24.7905 H         1 UNK         0.0000 
     48 H48        -2.9212   50.4035   26.4725 H         1 UNK         0.0000 
     49 H49        -2.0109   51.7204   27.1652 H         1 UNK         0.0000 
     50 H50        -2.4656   51.7745   25.4627 H         1 UNK         0.0000 
     51 H51        -1.2934   47.7050   26.0860 H         1 UNK         0.0000 
     52 H52        -1.8163   46.1047   24.2976 H         1 UNK         0.0000 
     53 H53        -1.9203   46.8635   21.9441 H         1 UNK         0.0000 
     54 H54        -1.5039   49.2300   21.3785 H         1 UNK         0.0000 
     55 H55        -1.0006   50.8514   23.1639 H         1 UNK         0.0000 
     56 H56         4.4962   55.0380   28.2942 H         1 UNK         0.0000 
     57 H57         2.9149   55.7172   28.3053 H         1 UNK         0.0000 
     58 H58         4.3039   54.4963   30.4906 H         1 UNK         0.0000 
     59 H59         2.5974   55.0668   30.4816 H         1 UNK         0.0000 
     60 H60         1.7993   52.8868   30.2234 H         1 UNK         0.0000 
     61 H61         3.4061   52.3480   30.6903 H         1 UNK         0.0000 
     62 H62         2.4074   51.7658   28.2318 H         1 UNK         0.0000 
     63 H63         4.0860   52.0967   28.3666 H         1 UNK         0.0000 
@<TRIPOS>BOND
     1    1    2 1    
     2    1   35 1    
     3    1   36 1    
     4    1   37 1    
     5    2    7 ar   
     6    2    3 ar   
     7    3    4 ar   
     8    3   38 1    
     9    4    5 ar   
    10    4   39 1    
    11    5    6 ar   
    12    5   40 1    
    13    6    7 ar   
    14    6   41 1    
    15    7    8 1    
    16    8    9 am   BACKBONE|DICT|INTERRES
    17    8   42 1    
    18    9   10 2    
    19    9   11 am   BACKBONE|DICT|INTERRES
    20   11   12 1    
    21   11   43 1    
    22   12   17 ar   
    23   12   13 ar   
    24   13   14 ar   
    25   13   44 1    
    26   14   15 ar   
    27   14   45 1    
    28   15   16 ar   
    29   15   30 1    
    30   16   17 ar   
    31   16   18 1    
    32   17   46 1    
    33   18   19 2    
    34   18   20 am   BACKBONE|DICT|INTERRES
    35   20   21 1    
    36   20   47 1    
    37   21   22 1    
    38   21   23 1    
    39   21   24 1    
    40   23   48 1    
    41   23   49 1    
    42   23   50 1    
    43   24   29 ar   
    44   24   25 ar   
    45   25   26 ar   
    46   25   51 1    
    47   26   27 ar   
    48   26   52 1    
    49   27   28 ar   
    50   27   53 1    
    51   28   29 ar   
    52   28   54 1    
    53   29   55 1    
    54   30   34 1    
    55   30   31 1    
    56   31   32 1    
    57   31   56 1    
    58   31   57 1    
    59   32   33 1    
    60   32   58 1    
    61   32   59 1    
    62   33   34 1    
    63   33   60 1    
    64   33   61 1    
    65   34   62 1    
    66   34   63 1    
@<TRIPOS>SUBSTRUCTURE
     1 UNK         1 GROUP             0       ****    0 ROOT    
