@<TRIPOS>MOLECULE
ZINC01427803_6109
59   64    1
SMALL
USER_CHARGES


@<TRIPOS>ATOM
      1 C1          2.4675   51.0629   19.9404 C.3       1 UNK         0.0000 
      2 C2          3.3586   52.2298   20.3690 C.2       1 UNK         0.0000 
      3 C3          3.2436   53.0292   21.4682 C.2       1 UNK         0.0000 
      4 C4          4.2297   54.2272   21.7074 C.3       1 UNK         0.0000 
      5 H5          3.6389   55.1422   21.7499 H         1 UNK         0.0000 
      6 C6          5.1640   54.4591   20.4484 C.2       1 UNK         0.0000 
      7 C7          5.1324   53.5878   19.4006 C.2       1 UNK         0.0000 
      8 N8          4.3070   52.4968   19.4190 N.pl3     1 UNK         0.0000 
      9 C9          6.0367   53.6582   18.1665 C.3       1 UNK         0.0000 
     10 C10         7.3113   54.4705   18.4589 C.3       1 UNK         0.0000 
     11 H11         7.8814   53.9521   19.2283 H         1 UNK         0.0000 
     12 C12         6.9104   55.8154   19.0776 C.3       1 UNK         0.0000 
     13 C13         6.1085   55.6233   20.3737 C.2       1 UNK         0.0000 
     14 O14         6.3042   56.4204   21.2819 O.2       1 UNK         0.0000 
     15 C15         8.2193   54.5979   17.2522 C.2       1 UNK         0.0000 
     16 C16         9.4377   53.9612   17.0100 C.2       1 UNK         0.0000 
     17 C17        10.0289   54.2874   15.7860 C.2       1 UNK         0.0000 
     18 C18         9.2700   55.1850   15.0571 C.2       1 UNK         0.0000 
     19 S19         7.8184   55.6194   15.8927 S.3       1 UNK         0.0000 
     20 C20         4.8995   54.2391   23.1121 C.ar      1 UNK         0.0000 
     21 C21         6.2819   54.0253   23.2365 C.ar      1 UNK         0.0000 
     22 C22         6.9333   54.0968   24.4618 C.ar      1 UNK         0.0000 
     23 C23         6.1795   54.3411   25.5937 C.ar      1 UNK         0.0000 
     24 C24         4.8334   54.5254   25.5154 C.ar      1 UNK         0.0000 
     25 C25         4.1641   54.4967   24.2942 C.ar      1 UNK         0.0000 
     26 O26         4.3509   54.7832   26.7602 O.3       1 UNK         0.0000 
     27 C27         5.4123   54.4963   27.6361 C.3       1 UNK         0.0000 
     28 O28         6.5918   54.4744   26.8799 O.3       1 UNK         0.0000 
     29 C29         2.1655   52.8588   22.4369 C.2       1 UNK         0.0000 
     30 O30         1.5042   53.8183   22.8312 O.2       1 UNK         0.0000 
     31 N31         1.9963   51.5938   22.8802 N.am      1 UNK         0.0000 
     32 C32         1.1046   51.0908   23.8438 C.ar      1 UNK         0.0000 
     33 C33         0.9700   49.7005   23.8805 C.ar      1 UNK         0.0000 
     34 C34         0.1475   49.1009   24.8293 C.ar      1 UNK         0.0000 
     35 C35        -0.5474   49.8933   25.7379 C.ar      1 UNK         0.0000 
     36 C36        -0.4215   51.2797   25.7139 C.ar      1 UNK         0.0000 
     37 C37         0.4060   51.8822   24.7703 C.ar      1 UNK         0.0000 
     38 H38         1.5002   51.0422   20.4396 H         1 UNK         0.0000 
     39 H39         2.2484   51.1160   18.8724 H         1 UNK         0.0000 
     40 H40         2.9730   50.1148   20.1257 H         1 UNK         0.0000 
     41 H41         4.5554   51.7352   18.7884 H         1 UNK         0.0000 
     42 H42         6.3838   52.6516   17.9210 H         1 UNK         0.0000 
     43 H43         5.4685   54.0191   17.3080 H         1 UNK         0.0000 
     44 H44         7.7773   56.4456   19.2802 H         1 UNK         0.0000 
     45 H45         6.2841   56.3712   18.3792 H         1 UNK         0.0000 
     46 H46         9.8878   53.2705   17.7094 H         1 UNK         0.0000 
     47 H47        10.9710   53.8803   15.4483 H         1 UNK         0.0000 
     48 H48         9.4870   55.6026   14.0842 H         1 UNK         0.0000 
     49 H49         6.8869   53.8345   22.3777 H         1 UNK         0.0000 
     50 H50         7.9891   53.9504   24.4816 H         1 UNK         0.0000 
     51 H51         3.1132   54.7263   24.2745 H         1 UNK         0.0000 
     52 H52         5.2549   53.5131   28.0839 H         1 UNK         0.0000 
     53 H53         5.4832   55.2380   28.4320 H         1 UNK         0.0000 
     54 H54         2.5668   50.8985   22.4266 H         1 UNK         0.0000 
     55 H55         1.5146   49.0722   23.1908 H         1 UNK         0.0000 
     56 H56         0.0599   48.0250   24.8733 H         1 UNK         0.0000 
     57 H57        -1.1771   49.4240   26.4815 H         1 UNK         0.0000 
     58 H58        -0.9535   51.8829   26.4348 H         1 UNK         0.0000 
     59 H59         0.5019   52.9559   24.7974 H         1 UNK         0.0000 
@<TRIPOS>BOND
     1    1    2 1    
     2    1   38 1    
     3    1   39 1    
     4    1   40 1    
     5    2    8 1    
     6    2    3 2    
     7    3    4 1    
     8    3   29 1    
     9    4    5 1    
    10    4    6 1    
    11    4   20 1    
    12    6   13 1    
    13    6    7 2    
    14    7    8 1    
    15    7    9 1    
    16    8   41 1    
    17    9   10 1    
    18    9   42 1    
    19    9   43 1    
    20   10   11 1    
    21   10   12 1    
    22   10   15 1    
    23   12   13 1    
    24   12   44 1    
    25   12   45 1    
    26   13   14 2    
    27   15   19 1    
    28   15   16 2    
    29   16   17 1    
    30   16   46 1    
    31   17   18 2    
    32   17   47 1    
    33   18   19 1    
    34   18   48 1    
    35   20   25 ar   
    36   20   21 ar   
    37   21   22 ar   
    38   21   49 1    
    39   22   23 ar   
    40   22   50 1    
    41   23   28 1    
    42   23   24 ar   
    43   24   25 ar   
    44   24   26 1    
    45   25   51 1    
    46   26   27 1    
    47   27   28 1    
    48   27   52 1    
    49   27   53 1    
    50   29   30 2    
    51   29   31 am   BACKBONE|DICT|INTERRES
    52   31   32 1    
    53   31   54 1    
    54   32   37 ar   
    55   32   33 ar   
    56   33   34 ar   
    57   33   55 1    
    58   34   35 ar   
    59   34   56 1    
    60   35   36 ar   
    61   35   57 1    
    62   36   37 ar   
    63   36   58 1    
    64   37   59 1    
@<TRIPOS>SUBSTRUCTURE
     1 UNK         1 GROUP             0       ****    0 ROOT    
