ZINC16293207_2434
                    3D
 Schrodinger Suite 2024-2.
 44 47  0  0  1  0            999 V2000
    1.2037   47.9397   17.1038 C   0  0  0  0  0  0
    1.5044   49.0230   17.9704 O   0  0  0  0  0  0
    1.8326   48.8061   19.2667 C   0  0  0  0  0  0
    1.7688   47.6983   19.8096 O   0  0  0  0  0  0
    2.2077   50.0608   19.9951 C   0  0  0  0  0  0
    2.3045   50.0431   21.3903 C   0  0  0  0  0  0
    2.6841   51.1876   22.0822 C   0  0  0  0  0  0
    2.9923   52.3749   21.4079 C   0  0  0  0  0  0
    2.8620   52.3948   20.0148 C   0  0  0  0  0  0
    2.4888   51.2528   19.3133 C   0  0  0  0  0  0
    3.4394   53.6605   22.1411 C   0  0  1  0  0  0
    2.7687   54.4166   21.7318 H   0  0  0  0  0  0
    3.2916   53.7176   23.6829 C   0  0  0  0  0  0
    2.3060   53.3965   24.6677 C   0  0  0  0  0  0
    2.7413   53.6641   25.8936 N   0  0  0  0  0  0
    3.9939   54.0951   25.7616 N   0  0  0  0  0  0
    4.5795   54.3414   26.5454 H   0  0  0  0  0  0
    4.3678   54.1119   24.4595 C   0  0  0  0  0  0
    5.6257   54.4885   24.0713 O   0  0  0  0  0  0
    5.7983   54.4961   22.7231 C   0  0  0  0  0  0
    4.8785   54.1378   21.7869 C   0  0  0  0  0  0
    5.2360   54.2955   20.4129 C   0  0  0  0  0  0
    5.5679   54.4664   19.3187 N   0  0  0  0  0  0
    7.0752   54.9377   22.4823 N   0  0  0  0  0  0
    0.9395   52.7903   24.4995 C   0  0  0  0  0  0
    0.2619   52.8964   23.2827 C   0  0  0  0  0  0
   -1.0016   52.3352   23.1212 C   0  0  0  0  0  0
   -1.6027   51.6670   24.1825 C   0  0  0  0  0  0
   -0.9413   51.5412   25.4006 C   0  0  0  0  0  0
    0.3249   52.0987   25.5564 C   0  0  0  0  0  0
   -3.3414   50.9258   23.9619 Br  0  0  0  0  0  0
    0.9718   48.3172   16.1082 H   0  0  0  0  0  0
    0.3444   47.3718   17.4642 H   0  0  0  0  0  0
    2.0575   47.2652   17.0177 H   0  0  0  0  0  0
    2.0887   49.1450   21.9530 H   0  0  0  0  0  0
    2.7045   51.1328   23.1582 H   0  0  0  0  0  0
    3.0553   53.2990   19.4571 H   0  0  0  0  0  0
    2.4453   51.3054   18.2335 H   0  0  0  0  0  0
    7.3923   55.0859   21.5348 H   0  0  0  0  0  0
    7.7839   54.8991   23.2043 H   0  0  0  0  0  0
    0.7080   53.4167   22.4501 H   0  0  0  0  0  0
   -1.5146   52.4208   22.1753 H   0  0  0  0  0  0
   -1.4057   51.0109   26.2205 H   0  0  0  0  0  0
    0.8259   51.9853   26.5071 H   0  0  0  0  0  0
  1  2  1  0  0  0
  1 32  1  0  0  0
  1 33  1  0  0  0
  1 34  1  0  0  0
  2  3  1  0  0  0
  3  4  2  0  0  0
  3  5  1  0  0  0
  5 10  2  0  0  0
  5  6  1  0  0  0
  6  7  2  0  0  0
  6 35  1  0  0  0
  7  8  1  0  0  0
  7 36  1  0  0  0
  8  9  2  0  0  0
  8 11  1  0  0  0
  9 10  1  0  0  0
  9 37  1  0  0  0
 10 38  1  0  0  0
 11 12  1  0  0  0
 11 21  1  0  0  0
 11 13  1  0  0  0
 13 18  2  0  0  0
 13 14  1  0  0  0
 14 15  2  0  0  0
 14 25  1  0  0  0
 15 16  1  0  0  0
 16 17  1  0  0  0
 16 18  1  0  0  0
 18 19  1  0  0  0
 19 20  1  0  0  0
 20 21  2  0  0  0
 20 24  1  0  0  0
 21 22  1  0  0  0
 22 23  3  0  0  0
 24 39  1  0  0  0
 24 40  1  0  0  0
 25 30  2  0  0  0
 25 26  1  0  0  0
 26 27  2  0  0  0
 26 41  1  0  0  0
 27 28  1  0  0  0
 27 42  1  0  0  0
 28 29  2  0  0  0
 28 31  1  0  0  0
 29 30  1  0  0  0
 29 43  1  0  0  0
 30 44  1  0  0  0
M  END
> <i_i_glide_confnum>
5

> <i_i_glide_lignum>
2435

> <i_i_glide_posenum>
89

> <i_i_glide_rotatable_bonds>
5

> <i_m_Source_File_Index>
1861

> <b_m_subgroup_collapsed>
0

> <r_i_docking_score>
-4.39244

> <r_i_glide_ecoul>
-2.52007

> <r_i_glide_eff_state_penalty>
0

> <r_i_glide_einternal>
7.83318

> <r_i_glide_emodel>
-44.168

> <r_i_glide_energy>
-38.5219

> <r_i_glide_erotb>
0.295448

> <r_i_glide_esite>
-0.0526629

> <r_i_glide_evdw>
-36.0018

> <r_i_glide_gscore>
-4.39244

> <r_i_glide_hbond>
-0.306716

> <r_i_glide_ligand_efficiency>
-0.151463

> <r_i_glide_ligand_efficiency_ln>
-1.00576

> <r_i_glide_ligand_efficiency_sa>
-0.465343

> <r_i_glide_lipo>
-1.75654

> <r_i_glide_metal>
0

> <r_i_glide_rewards>
-0.393859

> <s_i_glide_gridfile>
wee1_glide-grid

> <s_m_Source_File>
wee1_decoys_glide_SP.sdf

> <s_m_Source_Path>
/Users/zhangxujun/Desktop

> <s_m_entry_id>
2136

> <s_m_entry_name>
wee1_decoys_glide_SP.1861

> <s_m_subgroup_title>
wee1_decoys_glide_SP

> <s_m_subgroupid>
wee1_decoys_glide_SP


$$$$
