@<TRIPOS>MOLECULE
ZINC39638850_1278
63   66    1
SMALL
USER_CHARGES


@<TRIPOS>ATOM
      1 C1          1.7148   49.6220   18.4775 C.ar      1 UNK         0.0000 
      2 C2          2.0627   48.3622   18.9586 C.ar      1 UNK         0.0000 
      3 C3          1.0688   47.4399   19.2800 C.ar      1 UNK         0.0000 
      4 C4         -0.2754   47.7714   19.1134 C.ar      1 UNK         0.0000 
      5 C5         -0.6332   49.0367   18.6286 C.ar      1 UNK         0.0000 
      6 C6          0.3722   49.9587   18.3104 C.ar      1 UNK         0.0000 
      7 C7         -2.0982   49.4180   18.4207 C.3       1 UNK         0.0000 
      8 C8         -2.9860   49.3906   19.6897 C.3       1 UNK         0.0000 
      9 N9         -2.4053   50.0119   20.8836 N.am      1 UNK         0.0000 
     10 C10        -2.0259   51.2977   21.0105 C.2       1 UNK         0.0000 
     11 O11        -2.1024   52.0969   20.0803 O.2       1 UNK         0.0000 
     12 C12        -1.4348   51.7851   22.3607 C.3       1 UNK         0.0000 
     13 H13        -1.7258   52.8327   22.4602 H         1 UNK         0.0000 
     14 C14        -2.0969   51.0494   23.5416 C.3       1 UNK         0.0000 
     15 N15        -1.1360   51.2299   24.6350 N.am      1 UNK         0.0000 
     16 C16         0.1630   51.7146   24.1225 C.3       1 UNK         0.0000 
     17 C17         0.0885   51.5920   22.5802 C.3       1 UNK         0.0000 
     18 C18         0.5920   50.1847   22.1116 C.3       1 UNK         0.0000 
     19 C19         2.0891   49.9349   22.3895 C.3       1 UNK         0.0000 
     20 N20         2.8945   51.0460   21.6815 N.4       1 UNK         0.0000 
     21 C21         2.4666   52.4671   22.1073 C.3       1 UNK         0.0000 
     22 C22         0.9620   52.6303   21.8191 C.3       1 UNK         0.0000 
     23 C23        -1.5769   51.1611   25.9275 C.2       1 UNK         0.0000 
     24 O24        -2.7678   50.9556   26.1772 O.2       1 UNK         0.0000 
     25 C25        -0.6376   51.3863   27.0995 C.ar      1 UNK         0.0000 
     26 C26        -1.1417   51.8888   28.3042 C.ar      1 UNK         0.0000 
     27 C27        -0.3070   52.1394   29.3928 C.ar      1 UNK         0.0000 
     28 C28         1.0582   51.8832   29.3047 C.ar      1 UNK         0.0000 
     29 C29         1.5495   51.2986   28.1377 C.ar      1 UNK         0.0000 
     30 C30         0.7054   51.0194   27.0672 C.ar      1 UNK         0.0000 
     31 O31         1.8236   52.0962   30.4366 O.3       1 UNK         0.0000 
     32 C32         3.1873   52.5122   30.3328 C.3       1 UNK         0.0000 
     33 F33         3.6800   52.4965   31.5669 F         1 UNK         0.0000 
     34 F34         3.9699   51.6965   29.6363 F         1 UNK         0.0000 
     35 F35         3.2717   53.7559   29.8594 F         1 UNK         0.0000 
     36 F36        -1.2237   46.8565   19.4198 F         1 UNK         0.0000 
     37 H37         2.4940   50.3196   18.2008 H         1 UNK         0.0000 
     38 H38         3.1053   48.0991   19.0595 H         1 UNK         0.0000 
     39 H39         1.3389   46.4611   19.6422 H         1 UNK         0.0000 
     40 H40         0.1173   50.9357   17.9252 H         1 UNK         0.0000 
     41 H41        -2.1482   50.4179   17.9880 H         1 UNK         0.0000 
     42 H42        -2.5273   48.7634   17.6613 H         1 UNK         0.0000 
     43 H43        -3.9534   49.8528   19.4916 H         1 UNK         0.0000 
     44 H44        -3.1522   48.3544   19.9845 H         1 UNK         0.0000 
     45 H45        -2.2861   49.4007   21.6764 H         1 UNK         0.0000 
     46 H46        -3.0863   51.4725   23.7316 H         1 UNK         0.0000 
     47 H47        -2.1351   49.9753   23.3591 H         1 UNK         0.0000 
     48 H48         1.0775   51.2906   24.5165 H         1 UNK         0.0000 
     49 H49         0.2051   52.7765   24.3721 H         1 UNK         0.0000 
     50 H50         0.0226   49.3999   22.6121 H         1 UNK         0.0000 
     51 H51         0.4019   50.0366   21.0515 H         1 UNK         0.0000 
     52 H52         2.3567   49.9534   23.4467 H         1 UNK         0.0000 
     53 H53         2.4362   48.9896   21.9657 H         1 UNK         0.0000 
     54 H54         3.8836   50.9188   21.8505 H         1 UNK         0.0000 
     55 H55         2.7177   52.5775   23.1641 H         1 UNK         0.0000 
     56 H56         3.0725   53.1611   21.5211 H         1 UNK         0.0000 
     57 H57         0.7638   52.5947   20.7454 H         1 UNK         0.0000 
     58 H58         0.7046   53.6476   22.1215 H         1 UNK         0.0000 
     59 H59        -2.1965   52.0938   28.4029 H         1 UNK         0.0000 
     60 H60        -0.7224   52.5192   30.3158 H         1 UNK         0.0000 
     61 H61         2.5695   50.9770   28.0749 H         1 UNK         0.0000 
     62 H62         1.1042   50.4465   26.2508 H         1 UNK         0.0000 
     63 H63         2.7653   50.9551   20.6812 H         1 UNK         0.0000 
@<TRIPOS>BOND
     1    1    6 ar   
     2    1    2 ar   
     3    1   37 1    
     4    2    3 ar   
     5    2   38 1    
     6    3    4 ar   
     7    3   39 1    
     8    4    5 ar   
     9    4   36 1    
    10    5    6 ar   
    11    5    7 1    
    12    6   40 1    
    13    7    8 1    
    14    7   41 1    
    15    7   42 1    
    16    8    9 1    
    17    8   43 1    
    18    8   44 1    
    19    9   10 am   BACKBONE|DICT|INTERRES
    20    9   45 1    
    21   10   11 2    
    22   10   12 1    
    23   12   13 1    
    24   12   17 1    
    25   12   14 1    
    26   14   15 1    
    27   14   46 1    
    28   14   47 1    
    29   15   16 1    
    30   15   23 am   BACKBONE|DICT|INTERRES
    31   16   17 1    
    32   16   48 1    
    33   16   49 1    
    34   17   22 1    
    35   17   18 1    
    36   18   19 1    
    37   18   50 1    
    38   18   51 1    
    39   19   20 1    
    40   19   52 1    
    41   19   53 1    
    42   20   21 1    
    43   20   54 1    
    44   20   63 1    
    45   21   22 1    
    46   21   55 1    
    47   21   56 1    
    48   22   57 1    
    49   22   58 1    
    50   23   24 2    
    51   23   25 1    
    52   25   30 ar   
    53   25   26 ar   
    54   26   27 ar   
    55   26   59 1    
    56   27   28 ar   
    57   27   60 1    
    58   28   29 ar   
    59   28   31 1    
    60   29   30 ar   
    61   29   61 1    
    62   30   62 1    
    63   31   32 1    
    64   32   33 1    
    65   32   34 1    
    66   32   35 1    
@<TRIPOS>SUBSTRUCTURE
     1 UNK         1 GROUP             0       ****    0 ROOT    
