@<TRIPOS>MOLECULE
ZINC13387839_4351
49   52    1
SMALL
USER_CHARGES


@<TRIPOS>ATOM
      1 C1          5.5730   54.4960   28.0659 C.ar      1 UNK         0.0000 
      2 C2          6.7018   54.4968   27.2534 C.ar      1 UNK         0.0000 
      3 C3          6.5588   54.3401   25.8794 C.ar      1 UNK         0.0000 
      4 C4          5.2907   54.1793   25.3030 C.ar      1 UNK         0.0000 
      5 C5          4.1639   54.1757   26.1397 C.ar      1 UNK         0.0000 
      6 C6          4.3053   54.3370   27.5151 C.ar      1 UNK         0.0000 
      7 C7          5.1833   53.9321   23.7852 C.3       1 UNK         0.0000 
      8 H8          5.5031   52.8967   23.7037 H         1 UNK         0.0000 
      9 C9          3.7461   54.0154   23.1889 C.3       1 UNK         0.0000 
     10 C10         3.6602   53.7336   21.6661 C.3       1 UNK         0.0000 
     11 H11         2.7057   54.0963   21.2829 H         1 UNK         0.0000 
     12 N12         4.7424   54.4964   21.0393 N.pl3     1 UNK         0.0000 
     13 C13         5.9397   54.8360   21.6267 C.ar      1 UNK         0.0000 
     14 C14         6.7539   55.2966   20.6134 C.ar      1 UNK         0.0000 
     15 C15         5.9486   55.2888   19.4529 C.ar      1 UNK         0.0000 
     16 N16         4.7640   54.7644   19.7253 N.2       1 UNK         0.0000 
     17 C17         6.3571   55.7627   18.1430 C.2       1 UNK         0.0000 
     18 O18         7.3725   56.4414   17.9859 O.2       1 UNK         0.0000 
     19 N19         5.5334   55.4291   17.1312 N.am      1 UNK         0.0000 
     20 C20         5.6875   55.8482   15.7332 C.3       1 UNK         0.0000 
     21 C21         4.6694   56.9205   15.2801 C.3       1 UNK         0.0000 
     22 H22         4.8109   57.1610   14.2247 H         1 UNK         0.0000 
     23 C23         4.6790   58.2305   16.0822 C.3       1 UNK         0.0000 
     24 C24         3.2250   58.6305   16.0849 C.3       1 UNK         0.0000 
     25 C25         2.5429   57.2820   16.2444 C.3       1 UNK         0.0000 
     26 O26         3.3471   56.3963   15.4679 O.3       1 UNK         0.0000 
     27 Br27        8.5960   55.7543   20.8067 Br        1 UNK         0.0000 
     28 N28         6.1540   54.6862   22.9806 N.pl3     1 UNK         0.0000 
     29 C29         3.7139   52.2298   21.3058 C.3       1 UNK         0.0000 
     30 F30         2.7873   51.5362   21.9686 F         1 UNK         0.0000 
     31 F31         3.4957   52.0312   20.0072 F         1 UNK         0.0000 
     32 F32         4.8978   51.6966   21.6026 F         1 UNK         0.0000 
     33 H33         5.6841   54.6236   29.1328 H         1 UNK         0.0000 
     34 H34         7.6817   54.6168   27.6902 H         1 UNK         0.0000 
     35 H35         7.4423   54.3285   25.2607 H         1 UNK         0.0000 
     36 H36         3.1682   54.0370   25.7501 H         1 UNK         0.0000 
     37 H37         3.4343   54.3347   28.1531 H         1 UNK         0.0000 
     38 H38         3.3011   54.9879   23.3998 H         1 UNK         0.0000 
     39 H39         3.0976   53.3086   23.7046 H         1 UNK         0.0000 
     40 H40         4.7550   54.8184   17.3336 H         1 UNK         0.0000 
     41 H41         5.5771   54.9657   15.1025 H         1 UNK         0.0000 
     42 H42         6.6977   56.2120   15.5338 H         1 UNK         0.0000 
     43 H43         5.3448   58.9857   15.6616 H         1 UNK         0.0000 
     44 H44         5.0066   58.0738   17.1099 H         1 UNK         0.0000 
     45 H45         2.9485   59.0966   15.1391 H         1 UNK         0.0000 
     46 H46         2.9814   59.3250   16.8878 H         1 UNK         0.0000 
     47 H47         1.5078   57.2938   15.9025 H         1 UNK         0.0000 
     48 H48         2.5613   56.9485   17.2816 H         1 UNK         0.0000 
     49 H49         7.1037   54.6182   23.3197 H         1 UNK         0.0000 
@<TRIPOS>BOND
     1    1    6 ar   
     2    1    2 ar   
     3    1   33 1    
     4    2    3 ar   
     5    2   34 1    
     6    3    4 ar   
     7    3   35 1    
     8    4    5 ar   
     9    4    7 1    
    10    5    6 ar   
    11    5   36 1    
    12    6   37 1    
    13    7    8 1    
    14    7   28 1    
    15    7    9 1    
    16    9   10 1    
    17    9   38 1    
    18    9   39 1    
    19   10   11 1    
    20   10   12 1    
    21   10   29 1    
    22   12   16 ar   
    23   12   13 ar   
    24   13   14 ar   
    25   13   28 1    
    26   14   15 ar   
    27   14   27 1    
    28   15   16 ar   
    29   15   17 1    
    30   17   18 2    
    31   17   19 am   BACKBONE|DICT|INTERRES
    32   19   20 1    
    33   19   40 1    
    34   20   21 1    
    35   20   41 1    
    36   20   42 1    
    37   21   22 1    
    38   21   26 1    
    39   21   23 1    
    40   23   24 1    
    41   23   43 1    
    42   23   44 1    
    43   24   25 1    
    44   24   45 1    
    45   24   46 1    
    46   25   26 1    
    47   25   47 1    
    48   25   48 1    
    49   28   49 1    
    50   29   30 1    
    51   29   31 1    
    52   29   32 1    
@<TRIPOS>SUBSTRUCTURE
     1 UNK         1 GROUP             0       ****    0 ROOT    
