@<TRIPOS>MOLECULE
ZINC50695224_4802
30   31    1
SMALL
USER_CHARGES


@<TRIPOS>ATOM
      1 C1         -1.0640   51.6224   26.2595 C.ar      1 UNK         0.0000 
      2 C2          0.0448   52.0967   25.5700 C.ar      1 UNK         0.0000 
      3 C3          1.1039   52.7762   26.2153 C.ar      1 UNK         0.0000 
      4 C4          1.0306   52.8780   27.6321 C.ar      1 UNK         0.0000 
      5 C5         -0.0953   52.3900   28.3158 C.ar      1 UNK         0.0000 
      6 C6         -1.1459   51.7913   27.6320 C.ar      1 UNK         0.0000 
      7 Cl7        -2.5643   51.2945   28.4774 Cl        1 UNK         0.0000 
      8 C8          2.1480   53.5458   28.4605 C.3       1 UNK         0.0000 
      9 F9          3.3036   52.9044   28.2803 F         1 UNK         0.0000 
     10 F10         2.3055   54.8152   28.0818 F         1 UNK         0.0000 
     11 F11         1.8959   53.5493   29.7732 F         1 UNK         0.0000 
     12 N12         2.2177   53.2966   25.5652 N.2       1 UNK         0.0000 
     13 C13         2.1825   53.6612   24.2935 C.2       1 UNK         0.0000 
     14 O14         1.1928   53.8027   23.5660 O.2       1 UNK         0.0000 
     15 C15         3.5429   53.9674   23.6943 C.ar      1 UNK         0.0000 
     16 C16         4.7324   54.0987   24.4394 C.ar      1 UNK         0.0000 
     17 C17         5.9384   54.3688   23.7923 C.ar      1 UNK         0.0000 
     18 C18         5.9580   54.4967   22.4021 C.ar      1 UNK         0.0000 
     19 C19         4.7686   54.3502   21.6819 C.ar      1 UNK         0.0000 
     20 N20         3.6228   54.0972   22.3486 N.pl3     1 UNK         0.0000 
     21 N21         7.1043   54.4994   24.5404 N.pl3     1 UNK         0.0000 
     22 H22        -1.8623   51.1306   25.7264 H         1 UNK         0.0000 
     23 H23         0.0603   51.9248   24.5053 H         1 UNK         0.0000 
     24 H24        -0.1810   52.4894   29.3873 H         1 UNK         0.0000 
     25 H25         4.7195   53.9904   25.5145 H         1 UNK         0.0000 
     26 H26         6.8843   54.7061   21.8858 H         1 UNK         0.0000 
     27 H27         4.6834   54.4303   20.6061 H         1 UNK         0.0000 
     28 H28         7.0727   54.2193   25.5102 H         1 UNK         0.0000 
     29 H29         7.9959   54.6800   24.0809 H         1 UNK         0.0000 
     30 H30         2.7593   54.0188   21.8240 H         1 UNK         0.0000 
@<TRIPOS>BOND
     1    1    6 ar   
     2    1    2 ar   
     3    1   22 1    
     4    2    3 ar   
     5    2   23 1    
     6    3    4 ar   
     7    3   12 1    
     8    4    5 ar   
     9    4    8 1    
    10    5    6 ar   
    11    5   24 1    
    12    6    7 1    
    13    8    9 1    
    14    8   10 1    
    15    8   11 1    
    16   12   13 1    
    17   13   14 2    
    18   13   15 1    
    19   15   20 ar   
    20   15   16 ar   
    21   16   17 ar   
    22   16   25 1    
    23   17   18 ar   
    24   17   21 1    
    25   18   19 ar   
    26   18   26 1    
    27   19   20 ar   
    28   19   27 1    
    29   20   30 1    
    30   21   28 1    
    31   21   29 1    
@<TRIPOS>SUBSTRUCTURE
     1 UNK         1 GROUP             0       ****    0 ROOT    
