@<TRIPOS>MOLECULE
ZINC02889368_2507
57   59    1
SMALL
USER_CHARGES


@<TRIPOS>ATOM
      1 C1         10.5869   54.7583   17.6299 C.3       1 UNK         0.0000 
      2 C2          9.1723   55.3308   17.6378 C.ar      1 UNK         0.0000 
      3 C3          9.0347   56.6997   17.8245 C.ar      1 UNK         0.0000 
      4 C4          7.7859   57.3111   17.8039 C.ar      1 UNK         0.0000 
      5 C5          6.6268   56.5364   17.5989 C.ar      1 UNK         0.0000 
      6 C6          6.7401   55.1254   17.4428 C.ar      1 UNK         0.0000 
      7 C7          8.0315   54.5296   17.4486 C.ar      1 UNK         0.0000 
      8 C8          8.2250   53.0157   17.2822 C.3       1 UNK         0.0000 
      9 S9          5.2697   54.0549   17.1773 S.o2      1 UNK         0.0000 
     10 O10         5.6326   53.0026   16.2226 O.2       1 UNK         0.0000 
     11 O11         4.0739   54.8585   16.9018 O.2       1 UNK         0.0000 
     12 N12         5.0384   53.2967   18.7491 N.pl3     1 UNK         0.0000 
     13 C13         4.1418   53.9510   19.6908 C.3       1 UNK         0.0000 
     14 C14         4.2682   53.4017   21.1208 C.2       1 UNK         0.0000 
     15 O15         4.2073   52.1852   21.3335 O.2       1 UNK         0.0000 
     16 N16         4.3947   54.3331   22.0922 N.am      1 UNK         0.0000 
     17 C17         4.2204   54.0966   23.4497 C.2       1 UNK         0.0000 
     18 C18         5.0888   54.3765   24.5301 C.2       1 UNK         0.0000 
     19 C19         4.4422   54.1500   25.7822 C.2       1 UNK         0.0000 
     20 C20         3.1215   53.6969   25.6272 C.2       1 UNK         0.0000 
     21 S21         2.6436   53.5965   23.9718 S.3       1 UNK         0.0000 
     22 C22         2.1557   53.3878   26.7610 C.3       1 UNK         0.0000 
     23 C23         2.9485   53.1816   28.0661 C.3       1 UNK         0.0000 
     24 C24         3.9721   54.3053   28.2857 C.3       1 UNK         0.0000 
     25 C25         5.0523   54.3465   27.1822 C.3       1 UNK         0.0000 
     26 C26         6.4443   54.8961   24.4096 C.2       1 UNK         0.0000 
     27 O27         6.9988   55.5457   25.2937 O.2       1 UNK         0.0000 
     28 N28         7.1041   54.5997   23.2926 N.am      1 UNK         0.0000 
     29 C29         5.2709   57.2516   17.5582 C.3       1 UNK         0.0000 
     30 C30         7.7431   58.8249   17.9976 C.3       1 UNK         0.0000 
     31 H31        10.7401   54.0997   18.4807 H         1 UNK         0.0000 
     32 H32        10.7561   54.1762   16.7228 H         1 UNK         0.0000 
     33 H33        11.3519   55.5337   17.6623 H         1 UNK         0.0000 
     34 H34         9.9210   57.3001   17.9764 H         1 UNK         0.0000 
     35 H35         9.1659   52.6433   17.6821 H         1 UNK         0.0000 
     36 H36         7.4630   52.4535   17.8189 H         1 UNK         0.0000 
     37 H37         8.1759   52.7393   16.2287 H         1 UNK         0.0000 
     38 H38         4.8988   52.2779   18.6747 H         1 UNK         0.0000 
     39 H39         3.1056   53.8454   19.3640 H         1 UNK         0.0000 
     40 H40         4.3345   55.0249   19.6894 H         1 UNK         0.0000 
     41 H41         4.5455   55.2948   21.8174 H         1 UNK         0.0000 
     42 H42         1.5565   52.5056   26.5412 H         1 UNK         0.0000 
     43 H43         1.4638   54.2182   26.8878 H         1 UNK         0.0000 
     44 H44         3.4619   52.2187   28.0445 H         1 UNK         0.0000 
     45 H45         2.2582   53.1359   28.9082 H         1 UNK         0.0000 
     46 H46         4.4522   54.1935   29.2603 H         1 UNK         0.0000 
     47 H47         3.4488   55.2622   28.3175 H         1 UNK         0.0000 
     48 H48         5.5804   55.2966   27.2725 H         1 UNK         0.0000 
     49 H49         5.7900   53.5623   27.3645 H         1 UNK         0.0000 
     50 H50         6.6698   54.0655   22.5545 H         1 UNK         0.0000 
     51 H51         8.0773   54.8935   23.2376 H         1 UNK         0.0000 
     52 H52         5.3033   58.3169   17.7727 H         1 UNK         0.0000 
     53 H53         4.8278   57.1569   16.5685 H         1 UNK         0.0000 
     54 H54         4.5860   56.8208   18.2866 H         1 UNK         0.0000 
     55 H55         8.7363   59.2604   18.1117 H         1 UNK         0.0000 
     56 H56         7.2723   59.3057   17.1391 H         1 UNK         0.0000 
     57 H57         7.1605   59.0846   18.8822 H         1 UNK         0.0000 
@<TRIPOS>BOND
     1    1    2 1    
     2    1   31 1    
     3    1   32 1    
     4    1   33 1    
     5    2    7 ar   
     6    2    3 ar   
     7    3    4 ar   
     8    3   34 1    
     9    4    5 ar   
    10    4   30 1    
    11    5    6 ar   
    12    5   29 1    
    13    6    7 ar   
    14    6    9 1    
    15    7    8 1    
    16    8   35 1    
    17    8   36 1    
    18    8   37 1    
    19    9   10 2    
    20    9   11 2    
    21    9   12 1    
    22   12   13 1    
    23   12   38 1    
    24   13   14 1    
    25   13   39 1    
    26   13   40 1    
    27   14   15 2    
    28   14   16 am   BACKBONE|DICT|INTERRES
    29   16   17 am   BACKBONE|DICT|INTERRES
    30   16   41 1    
    31   17   21 1    
    32   17   18 2    
    33   18   19 1    
    34   18   26 1    
    35   19   25 1    
    36   19   20 2    
    37   20   21 1    
    38   20   22 1    
    39   22   23 1    
    40   22   42 1    
    41   22   43 1    
    42   23   24 1    
    43   23   44 1    
    44   23   45 1    
    45   24   25 1    
    46   24   46 1    
    47   24   47 1    
    48   25   48 1    
    49   25   49 1    
    50   26   27 2    
    51   26   28 am   BACKBONE|DICT|INTERRES
    52   28   50 1    
    53   28   51 1    
    54   29   52 1    
    55   29   53 1    
    56   29   54 1    
    57   30   55 1    
    58   30   56 1    
    59   30   57 1    
@<TRIPOS>SUBSTRUCTURE
     1 UNK         1 GROUP             0       ****    0 ROOT    
