@<TRIPOS>MOLECULE
ZINC13479807_1709
35   36    1
SMALL
USER_CHARGES


@<TRIPOS>ATOM
      1 C1          6.4872   53.9623   27.1662 C.3       1 UNK         0.0000 
      2 C2          5.7328   54.0967   25.8556 C.ar      1 UNK         0.0000 
      3 C3          6.2514   54.2331   24.5819 C.ar      1 UNK         0.0000 
      4 C4          5.2210   54.2420   23.6359 C.ar      1 UNK         0.0000 
      5 C5          4.0405   54.1231   24.3804 C.ar      1 UNK         0.0000 
      6 N6          4.3468   54.0300   25.7424 N.pl3     1 UNK         0.0000 
      7 C7          3.4264   53.8545   26.8229 C.ar      1 UNK         0.0000 
      8 C8          2.3750   52.9322   26.7311 C.ar      1 UNK         0.0000 
      9 C9          1.4986   52.7474   27.7968 C.ar      1 UNK         0.0000 
     10 C10         1.6529   53.4991   28.9637 C.ar      1 UNK         0.0000 
     11 C11         2.6940   54.4208   29.0675 C.ar      1 UNK         0.0000 
     12 C12         3.5777   54.5877   28.0056 C.ar      1 UNK         0.0000 
     13 S13         0.4606   53.3441   30.2912 S.o2      1 UNK         0.0000 
     14 O14         0.3040   54.6774   30.8814 O.2       1 UNK         0.0000 
     15 O15        -0.6772   52.6009   29.7485 O.2       1 UNK         0.0000 
     16 N16         1.1793   52.3367   31.5145 N.pl3     1 UNK         0.0000 
     17 C17         2.6107   54.0970   23.8522 C.3       1 UNK         0.0000 
     18 C18         5.3173   54.2862   22.1644 C.2       1 UNK         0.0000 
     19 N19         6.1724   54.8972   21.4385 N.2       1 UNK         0.0000 
     20 O20         7.1035   55.6951   22.1281 O.3       1 UNK         0.0000 
     21 H21         7.5057   53.6169   27.0013 H         1 UNK         0.0000 
     22 H22         6.5604   54.9115   27.7007 H         1 UNK         0.0000 
     23 H23         6.0328   53.2333   27.8406 H         1 UNK         0.0000 
     24 H24         7.3110   54.2655   24.3623 H         1 UNK         0.0000 
     25 H25         2.2342   52.3376   25.8423 H         1 UNK         0.0000 
     26 H26         0.6948   52.0307   27.7039 H         1 UNK         0.0000 
     27 H27         2.8076   55.0233   29.9561 H         1 UNK         0.0000 
     28 H28         4.3801   55.2962   28.1102 H         1 UNK         0.0000 
     29 H29         1.6089   52.8901   32.2613 H         1 UNK         0.0000 
     30 H30         0.4687   51.7201   31.9324 H         1 UNK         0.0000 
     31 H31         2.5293   54.5798   22.8794 H         1 UNK         0.0000 
     32 H32         2.2445   53.0797   23.7185 H         1 UNK         0.0000 
     33 H33         1.9045   54.6243   24.4903 H         1 UNK         0.0000 
     34 H34         4.5237   53.7096   21.7002 H         1 UNK         0.0000 
     35 H35         6.8460   55.5785   23.0469 H         1 UNK         0.0000 
@<TRIPOS>BOND
     1    1    2 1    
     2    1   21 1    
     3    1   22 1    
     4    1   23 1    
     5    2    6 ar   
     6    2    3 ar   
     7    3    4 ar   
     8    3   24 1    
     9    4    5 ar   
    10    4   18 1    
    11    5    6 ar   
    12    5   17 1    
    13    6    7 1    
    14    7   12 ar   
    15    7    8 ar   
    16    8    9 ar   
    17    8   25 1    
    18    9   10 ar   
    19    9   26 1    
    20   10   11 ar   
    21   10   13 1    
    22   11   12 ar   
    23   11   27 1    
    24   12   28 1    
    25   13   14 2    
    26   13   15 2    
    27   13   16 1    
    28   16   29 1    
    29   16   30 1    
    30   17   31 1    
    31   17   32 1    
    32   17   33 1    
    33   18   19 2    
    34   18   34 1    
    35   19   20 1    
    36   20   35 1    
@<TRIPOS>SUBSTRUCTURE
     1 UNK         1 GROUP             0       ****    0 ROOT    
