@<TRIPOS>MOLECULE
ZINC21520315_4775
29   30    1
SMALL
USER_CHARGES


@<TRIPOS>ATOM
      1 C1          6.0127   54.2229   23.1803 C.ar      1 UNK         0.0000 
      2 C2          4.9173   53.8701   22.3889 C.ar      1 UNK         0.0000 
      3 C3          3.6404   53.7765   22.9495 C.ar      1 UNK         0.0000 
      4 C4          3.4663   54.0570   24.3128 C.ar      1 UNK         0.0000 
      5 C5          4.5626   54.4127   25.1007 C.ar      1 UNK         0.0000 
      6 C6          5.8342   54.4981   24.5353 C.ar      1 UNK         0.0000 
      7 F7          6.8899   54.8600   25.3003 F         1 UNK         0.0000 
      8 F8          2.2406   54.0051   24.8803 F         1 UNK         0.0000 
      9 N9          2.5535   53.4636   22.1211 N.pl3     1 UNK         0.0000 
     10 S10         1.8742   51.8312   21.9941 S.o2      1 UNK         0.0000 
     11 O11         0.9920   51.8592   20.8242 O.2       1 UNK         0.0000 
     12 O12         2.9855   50.8797   22.0804 O.2       1 UNK         0.0000 
     13 C13         0.8022   51.5715   23.4052 C.ar      1 UNK         0.0000 
     14 C14        -0.0803   52.5793   23.7947 C.ar      1 UNK         0.0000 
     15 C15        -0.9546   52.3717   24.8574 C.ar      1 UNK         0.0000 
     16 C16        -0.9607   51.1513   25.5332 C.ar      1 UNK         0.0000 
     17 C17        -0.0823   50.1316   25.1438 C.ar      1 UNK         0.0000 
     18 C18         0.8002   50.3458   24.0805 C.ar      1 UNK         0.0000 
     19 N19        -0.0892   48.9015   25.8066 N.pl3     1 UNK         0.0000 
     20 F20        -1.8175   50.9773   26.5684 F         1 UNK         0.0000 
     21 H21         7.0012   54.2981   22.7476 H         1 UNK         0.0000 
     22 H22         5.0621   53.6656   21.3381 H         1 UNK         0.0000 
     23 H23         4.4260   54.6294   26.1497 H         1 UNK         0.0000 
     24 H24         2.1753   54.1702   21.5016 H         1 UNK         0.0000 
     25 H25        -0.0756   53.5311   23.2840 H         1 UNK         0.0000 
     26 H26        -1.6319   53.1560   25.1620 H         1 UNK         0.0000 
     27 H27         1.4737   49.5554   23.7728 H         1 UNK         0.0000 
     28 H28        -0.6616   48.7928   26.6457 H         1 UNK         0.0000 
     29 H29         0.6303   48.2171   25.6129 H         1 UNK         0.0000 
@<TRIPOS>BOND
     1    1    6 ar   
     2    1    2 ar   
     3    1   21 1    
     4    2    3 ar   
     5    2   22 1    
     6    3    4 ar   
     7    3    9 1    
     8    4    5 ar   
     9    4    8 1    
    10    5    6 ar   
    11    5   23 1    
    12    6    7 1    
    13    9   10 1    
    14    9   24 1    
    15   10   11 2    
    16   10   12 2    
    17   10   13 1    
    18   13   18 ar   
    19   13   14 ar   
    20   14   15 ar   
    21   14   25 1    
    22   15   16 ar   
    23   15   26 1    
    24   16   17 ar   
    25   16   20 1    
    26   17   18 ar   
    27   17   19 1    
    28   18   27 1    
    29   19   28 1    
    30   19   29 1    
@<TRIPOS>SUBSTRUCTURE
     1 UNK         1 GROUP             0       ****    0 ROOT    
