@<TRIPOS>MOLECULE
ZINC35023524_4284
53   55    1
SMALL
USER_CHARGES


@<TRIPOS>ATOM
      1 C1         -6.5236   53.4263   25.5584 C.3       1 UNK         0.0000 
      2 C2         -5.2477   52.6090   25.6362 C.ar      1 UNK         0.0000 
      3 C3         -5.2605   51.2726   25.2425 C.ar      1 UNK         0.0000 
      4 C4         -4.0884   50.5239   25.2873 C.ar      1 UNK         0.0000 
      5 C5         -2.8811   51.0986   25.7177 C.ar      1 UNK         0.0000 
      6 C6         -2.8917   52.4402   26.1266 C.ar      1 UNK         0.0000 
      7 C7         -4.0626   53.1924   26.0805 C.ar      1 UNK         0.0000 
      8 C8         -1.5574   50.2809   25.7077 C.3       1 UNK         0.0000 
      9 C9         -0.6651   50.5685   24.4512 C.3       1 UNK         0.0000 
     10 H10         0.0750   49.7685   24.4308 H         1 UNK         0.0000 
     11 C11         0.1476   51.9030   24.5687 C.3       1 UNK         0.0000 
     12 H12        -0.5680   52.7189   24.4405 H         1 UNK         0.0000 
     13 N13         0.7040   52.0256   25.9242 N.am      1 UNK         0.0000 
     14 C14         0.2597   51.4297   27.0473 C.2       1 UNK         0.0000 
     15 O15         0.6408   51.7863   28.1565 O.2       1 UNK         0.0000 
     16 N16        -0.6979   50.4967   26.8799 N.am      1 UNK         0.0000 
     17 C17         1.2023   52.1511   23.4816 C.ar      1 UNK         0.0000 
     18 C18         1.7589   53.4296   23.3640 C.ar      1 UNK         0.0000 
     19 C19         2.7044   53.6967   22.3785 C.ar      1 UNK         0.0000 
     20 C20         3.0948   52.6883   21.4927 C.ar      1 UNK         0.0000 
     21 C21         2.5666   51.4036   21.6290 C.ar      1 UNK         0.0000 
     22 C22         1.6407   51.1330   22.6250 C.ar      1 UNK         0.0000 
     23 C23         4.0923   52.9808   20.3754 C.3       1 UNK         0.0000 
     24 C24         5.3418   52.0971   20.5036 C.3       1 UNK         0.0000 
     25 C25         3.4516   52.8407   18.9809 C.3       1 UNK         0.0000 
     26 C26        -1.4768   50.4933   23.1201 C.2       1 UNK         0.0000 
     27 O27        -2.0621   51.4885   22.6817 O.2       1 UNK         0.0000 
     28 C28        -1.5213   49.1667   22.3387 C.3       1 UNK         0.0000 
     29 F29        -2.7928   48.8163   22.1374 F         1 UNK         0.0000 
     30 F30        -0.9310   49.3400   21.1554 F         1 UNK         0.0000 
     31 F31        -0.8959   48.1881   22.9948 F         1 UNK         0.0000 
     32 O32        -1.8223   48.8870   25.6817 O.3       1 UNK         0.0000 
     33 H33        -6.3251   54.4970   25.6114 H         1 UNK         0.0000 
     34 H34        -7.2058   53.1464   26.3623 H         1 UNK         0.0000 
     35 H35        -7.0302   53.2418   24.6090 H         1 UNK         0.0000 
     36 H36        -6.1745   50.8140   24.8941 H         1 UNK         0.0000 
     37 H37        -4.1240   49.4955   24.9594 H         1 UNK         0.0000 
     38 H38        -1.9886   52.9207   26.4677 H         1 UNK         0.0000 
     39 H39        -4.0417   54.2274   26.3890 H         1 UNK         0.0000 
     40 H40         1.4206   52.7204   26.0677 H         1 UNK         0.0000 
     41 H41        -0.9594   49.9768   27.7122 H         1 UNK         0.0000 
     42 H42         1.4462   54.2258   24.0242 H         1 UNK         0.0000 
     43 H43         3.1072   54.6947   22.2835 H         1 UNK         0.0000 
     44 H44         2.8679   50.6117   20.9585 H         1 UNK         0.0000 
     45 H45         1.2748   50.1219   22.7031 H         1 UNK         0.0000 
     46 H46         4.4202   54.0175   20.4730 H         1 UNK         0.0000 
     47 H47         5.8500   52.2799   21.4512 H         1 UNK         0.0000 
     48 H48         5.0978   51.0354   20.4789 H         1 UNK         0.0000 
     49 H49         6.0340   52.2892   19.6818 H         1 UNK         0.0000 
     50 H50         2.5658   53.4685   18.8820 H         1 UNK         0.0000 
     51 H51         4.1496   53.1359   18.1969 H         1 UNK         0.0000 
     52 H52         3.1555   51.8113   18.7739 H         1 UNK         0.0000 
     53 H53        -1.8208   48.5743   26.6033 H         1 UNK         0.0000 
@<TRIPOS>BOND
     1    1    2 1    
     2    1   33 1    
     3    1   34 1    
     4    1   35 1    
     5    2    7 ar   
     6    2    3 ar   
     7    3    4 ar   
     8    3   36 1    
     9    4    5 ar   
    10    4   37 1    
    11    5    6 ar   
    12    5    8 1    
    13    6    7 ar   
    14    6   38 1    
    15    7   39 1    
    16    8   16 1    
    17    8    9 1    
    18    8   32 1    
    19    9   10 1    
    20    9   11 1    
    21    9   26 1    
    22   11   12 1    
    23   11   13 1    
    24   11   17 1    
    25   13   14 am   BACKBONE|DICT|INTERRES
    26   13   40 1    
    27   14   15 2    
    28   14   16 am   BACKBONE|DICT|INTERRES
    29   16   41 1    
    30   17   22 ar   
    31   17   18 ar   
    32   18   19 ar   
    33   18   42 1    
    34   19   20 ar   
    35   19   43 1    
    36   20   21 ar   
    37   20   23 1    
    38   21   22 ar   
    39   21   44 1    
    40   22   45 1    
    41   23   24 1    
    42   23   25 1    
    43   23   46 1    
    44   24   47 1    
    45   24   48 1    
    46   24   49 1    
    47   25   50 1    
    48   25   51 1    
    49   25   52 1    
    50   26   27 2    
    51   26   28 1    
    52   28   29 1    
    53   28   30 1    
    54   28   31 1    
    55   32   53 1    
@<TRIPOS>SUBSTRUCTURE
     1 UNK         1 GROUP             0       ****    0 ROOT    
