ZINC26884590_4385
                    3D
 Schrodinger Suite 2024-2.
 46 48  0  0  1  0            999 V2000
    1.2788   56.0701   30.4810 C   0  0  0  0  0  0
    0.9989   54.5912   30.2642 C   0  0  0  0  0  0
    0.3037   53.8023   31.1916 C   0  0  0  0  0  0
    0.0888   52.4966   30.7829 C   0  0  0  0  0  0
    0.8611   52.1489   29.2892 S   0  0  0  0  0  0
    1.4200   53.8028   29.1760 C   0  0  0  0  0  0
    2.2850   54.1932   28.0952 C   0  0  0  0  0  0
    3.1041   55.0942   28.2499 O   0  0  0  0  0  0
    2.0957   53.5053   26.9501 N   0  0  0  0  0  0
    2.7294   53.6963   25.7176 C   0  0  0  0  0  0
    2.0210   53.2976   24.5865 C   0  0  0  0  0  0
    2.5500   53.4928   23.3121 C   0  0  0  0  0  0
    3.8212   54.0799   23.1656 C   0  0  0  0  0  0
    4.5517   54.4560   24.3077 C   0  0  0  0  0  0
    4.0061   54.2548   25.5731 C   0  0  0  0  0  0
    6.1373   55.1512   24.1995 Cl  0  0  0  0  0  0
    4.3783   54.3416   21.9081 N   0  0  0  0  0  0
    4.7811   53.4064   21.0292 C   0  0  0  0  0  0
    4.6273   52.1940   21.1905 O   0  0  0  0  0  0
    5.5036   53.9384   19.8182 C   0  0  0  0  0  0
    5.3271   53.3130   18.5812 C   0  0  0  0  0  0
    6.0711   53.7117   17.4758 C   0  0  0  0  0  0
    7.0002   54.7446   17.6054 C   0  0  0  0  0  0
    7.1577   55.4057   18.8250 C   0  0  0  0  0  0
    6.4089   55.0062   19.9278 C   0  0  0  0  0  0
    8.0250   55.1919   16.2107 S   0  0  0  0  0  0
    7.2664   54.8941   14.9904 O   0  0  0  0  0  0
    8.5453   56.5406   16.4551 O   0  0  0  0  0  0
    9.4528   53.9758   16.3343 C   0  0  0  0  0  0
    1.5736   53.0131   21.9653 Cl  0  0  0  0  0  0
    2.3093   56.3233   30.2735 H   0  0  0  0  0  0
    0.7040   56.7010   29.8088 H   0  0  0  0  0  0
    1.1048   56.3949   31.5064 H   0  0  0  0  0  0
   -0.0911   54.1887   32.1212 H   0  0  0  0  0  0
   -0.4786   51.7246   31.2816 H   0  0  0  0  0  0
    1.3494   52.8249   26.9588 H   0  0  0  0  0  0
    1.0388   52.8554   24.6829 H   0  0  0  0  0  0
    4.5948   54.5402   26.4315 H   0  0  0  0  0  0
    4.5582   55.3056   21.6823 H   0  0  0  0  0  0
    4.6292   52.4966   18.4699 H   0  0  0  0  0  0
    5.9390   53.1969   16.5339 H   0  0  0  0  0  0
    7.8770   56.2050   18.9260 H   0  0  0  0  0  0
    6.5792   55.5012   20.8733 H   0  0  0  0  0  0
   10.1441   54.1769   15.5165 H   0  0  0  0  0  0
    9.9502   54.1175   17.2938 H   0  0  0  0  0  0
    9.0567   52.9632   16.2550 H   0  0  0  0  0  0
  1  2  1  0  0  0
  1 31  1  0  0  0
  1 32  1  0  0  0
  1 33  1  0  0  0
  2  6  2  0  0  0
  2  3  1  0  0  0
  3  4  2  0  0  0
  3 34  1  0  0  0
  4  5  1  0  0  0
  4 35  1  0  0  0
  5  6  1  0  0  0
  6  7  1  0  0  0
  7  8  2  0  0  0
  7  9  1  0  0  0
  9 10  1  0  0  0
  9 36  1  0  0  0
 10 15  2  0  0  0
 10 11  1  0  0  0
 11 12  2  0  0  0
 11 37  1  0  0  0
 12 13  1  0  0  0
 12 30  1  0  0  0
 13 14  2  0  0  0
 13 17  1  0  0  0
 14 15  1  0  0  0
 14 16  1  0  0  0
 15 38  1  0  0  0
 17 18  1  0  0  0
 17 39  1  0  0  0
 18 19  2  0  0  0
 18 20  1  0  0  0
 20 25  2  0  0  0
 20 21  1  0  0  0
 21 22  2  0  0  0
 21 40  1  0  0  0
 22 23  1  0  0  0
 22 41  1  0  0  0
 23 24  2  0  0  0
 23 26  1  0  0  0
 24 25  1  0  0  0
 24 42  1  0  0  0
 25 43  1  0  0  0
 26 27  2  0  0  0
 26 28  2  0  0  0
 26 29  1  0  0  0
 29 44  1  0  0  0
 29 45  1  0  0  0
 29 46  1  0  0  0
M  END
> <i_i_glide_confnum>
3

> <i_i_glide_lignum>
4386

> <i_i_glide_posenum>
89

> <i_i_glide_rotatable_bonds>
7

> <i_m_Source_File_Index>
3964

> <b_m_subgroup_collapsed>
0

> <r_i_docking_score>
-5.30449

> <r_i_glide_ecoul>
-2.70685

> <r_i_glide_eff_state_penalty>
0

> <r_i_glide_einternal>
3.79769

> <r_i_glide_emodel>
-63.6503

> <r_i_glide_energy>
-47.671

> <r_i_glide_erotb>
0.521269

> <r_i_glide_esite>
0

> <r_i_glide_evdw>
-44.9642

> <r_i_glide_gscore>
-5.30449

> <r_i_glide_hbond>
0

> <r_i_glide_ligand_efficiency>
-0.176816

> <r_i_glide_ligand_efficiency_ln>
-1.20524

> <r_i_glide_ligand_efficiency_sa>
-0.549409

> <r_i_glide_lipo>
-2.65537

> <r_i_glide_metal>
0

> <r_i_glide_rewards>
-0.516155

> <s_i_glide_gridfile>
wee1_glide-grid

> <s_m_Source_File>
wee1_decoys_glide_SP.sdf

> <s_m_Source_Path>
/Users/zhangxujun/Desktop

> <s_m_entry_id>
4239

> <s_m_entry_name>
wee1_decoys_glide_SP.3964

> <s_m_subgroup_title>
wee1_decoys_glide_SP

> <s_m_subgroupid>
wee1_decoys_glide_SP


$$$$
