@<TRIPOS>MOLECULE
ZINC08918445_3245
69   73    1
SMALL
USER_CHARGES


@<TRIPOS>ATOM
      1 C1         -0.2851   51.9741   27.7933 C.3       1 UNK         0.0000 
      2 C2          0.6252   52.4966   26.6794 C.ar      1 UNK         0.0000 
      3 C3          0.1708   52.4965   25.3490 C.ar      1 UNK         0.0000 
      4 C4          1.0267   52.9581   24.3374 C.ar      1 UNK         0.0000 
      5 C5          2.2931   53.4494   24.6403 C.ar      1 UNK         0.0000 
      6 C6          2.7487   53.4781   25.9628 C.ar      1 UNK         0.0000 
      7 C7          1.9048   52.9992   26.9763 C.ar      1 UNK         0.0000 
      8 O8          2.3064   53.0042   28.3044 O.3       1 UNK         0.0000 
      9 C9          3.5542   53.4300   28.7076 C.2       1 UNK         0.0000 
     10 O10         3.7476   53.4009   29.9234 O.2       1 UNK         0.0000 
     11 C11         4.4989   53.8694   27.6535 C.2       1 UNK         0.0000 
     12 C12         4.1051   53.9477   26.3519 C.2       1 UNK         0.0000 
     13 C13         5.1177   54.2441   25.2299 C.3       1 UNK         0.0000 
     14 C14         6.4578   54.8232   25.7298 C.3       1 UNK         0.0000 
     15 C15         6.9380   54.1020   26.9950 C.3       1 UNK         0.0000 
     16 C16         5.9056   54.2632   28.1199 C.3       1 UNK         0.0000 
     17 O17        -1.1177   52.0454   25.1138 O.3       1 UNK         0.0000 
     18 C18        -1.7553   52.2170   23.8388 C.3       1 UNK         0.0000 
     19 C19        -1.6792   50.9280   23.0007 C.2       1 UNK         0.0000 
     20 O20        -2.3648   50.8299   21.9825 O.2       1 UNK         0.0000 
     21 N21        -0.8769   49.9467   23.4454 N.am      1 UNK         0.0000 
     22 C22        -0.8056   48.5853   22.9056 C.3       1 UNK         0.0000 
     23 C23        -2.0242   47.6974   23.2689 C.2       1 UNK         0.0000 
     24 O24        -2.5034   47.0126   22.3630 O.2       1 UNK         0.0000 
     25 N25        -2.5397   47.6641   24.5299 N.am      1 UNK         0.0000 
     26 C26        -1.9105   48.2968   25.6969 C.3       1 UNK         0.0000 
     27 C27        -2.8930   49.3833   26.2040 C.3       1 UNK         0.0000 
     28 C28        -4.2954   48.8305   26.5812 C.3       1 UNK         0.0000 
     29 C29        -5.2484   49.9767   27.0161 C.3       1 UNK         0.0000 
     30 C30        -5.6849   50.8918   25.8523 C.3       1 UNK         0.0000 
     31 C31        -6.2708   50.0772   24.6844 C.3       1 UNK         0.0000 
     32 C32        -5.2908   48.9930   24.2042 C.3       1 UNK         0.0000 
     33 C33        -4.8343   48.0356   25.3426 C.3       1 UNK         0.0000 
     34 H34        -5.7201   47.5082   25.7012 H         1 UNK         0.0000 
     35 C35        -3.8112   46.9738   24.8367 C.3       1 UNK         0.0000 
     36 O36        -4.0957   47.9683   27.6920 O.3       1 UNK         0.0000 
     37 H37        -1.3353   52.1677   27.5742 H         1 UNK         0.0000 
     38 H38        -0.1540   50.8985   27.9228 H         1 UNK         0.0000 
     39 H39        -0.0918   52.4668   28.7462 H         1 UNK         0.0000 
     40 H40         0.7341   52.9431   23.2997 H         1 UNK         0.0000 
     41 H41         2.9108   53.7890   23.8224 H         1 UNK         0.0000 
     42 H42         5.3144   53.3019   24.7166 H         1 UNK         0.0000 
     43 H43         4.6910   54.8777   24.4534 H         1 UNK         0.0000 
     44 H44         6.3431   55.8883   25.9345 H         1 UNK         0.0000 
     45 H45         7.2107   54.7455   24.9430 H         1 UNK         0.0000 
     46 H46         7.8995   54.4972   27.3213 H         1 UNK         0.0000 
     47 H47         7.0985   53.0434   26.7856 H         1 UNK         0.0000 
     48 H48         5.9022   55.2995   28.4569 H         1 UNK         0.0000 
     49 H49         6.2288   53.6779   28.9793 H         1 UNK         0.0000 
     50 H50        -1.3992   53.0797   23.2771 H         1 UNK         0.0000 
     51 H51        -2.8075   52.4169   24.0452 H         1 UNK         0.0000 
     52 H52        -0.3426   50.1309   24.2840 H         1 UNK         0.0000 
     53 H53         0.0916   48.0983   23.2830 H         1 UNK         0.0000 
     54 H54        -0.6902   48.6323   21.8215 H         1 UNK         0.0000 
     55 H55        -1.8140   47.5122   26.4490 H         1 UNK         0.0000 
     56 H56        -0.8846   48.6298   25.5510 H         1 UNK         0.0000 
     57 H57        -2.9889   50.1512   25.4421 H         1 UNK         0.0000 
     58 H58        -2.4794   49.9407   27.0441 H         1 UNK         0.0000 
     59 H59        -4.7558   50.6143   27.7525 H         1 UNK         0.0000 
     60 H60        -6.1491   49.5544   27.4664 H         1 UNK         0.0000 
     61 H61        -6.4271   51.6085   26.2069 H         1 UNK         0.0000 
     62 H62        -4.8411   51.4884   25.5017 H         1 UNK         0.0000 
     63 H63        -7.2051   49.6088   24.9966 H         1 UNK         0.0000 
     64 H64        -6.5229   50.7423   23.8566 H         1 UNK         0.0000 
     65 H65        -5.7279   48.4155   23.3873 H         1 UNK         0.0000 
     66 H66        -4.4280   49.4839   23.7526 H         1 UNK         0.0000 
     67 H67        -3.6196   46.2456   25.6262 H         1 UNK         0.0000 
     68 H68        -4.1977   46.4000   23.9925 H         1 UNK         0.0000 
     69 H69        -3.1860   48.0964   28.0310 H         1 UNK         0.0000 
@<TRIPOS>BOND
     1    1    2 1    
     2    1   37 1    
     3    1   38 1    
     4    1   39 1    
     5    2    7 ar   
     6    2    3 ar   
     7    3    4 ar   
     8    3   17 1    
     9    4    5 ar   
    10    4   40 1    
    11    5    6 ar   
    12    5   41 1    
    13    6   12 1    
    14    6    7 ar   
    15    7    8 1    
    16    8    9 1    
    17    9   10 2    
    18    9   11 1    
    19   11   16 1    
    20   11   12 2    
    21   12   13 1    
    22   13   14 1    
    23   13   42 1    
    24   13   43 1    
    25   14   15 1    
    26   14   44 1    
    27   14   45 1    
    28   15   16 1    
    29   15   46 1    
    30   15   47 1    
    31   16   48 1    
    32   16   49 1    
    33   17   18 1    
    34   18   19 1    
    35   18   50 1    
    36   18   51 1    
    37   19   20 2    
    38   19   21 am   BACKBONE|DICT|INTERRES
    39   21   22 1    
    40   21   52 1    
    41   22   23 1    
    42   22   53 1    
    43   22   54 1    
    44   23   24 2    
    45   23   25 am   BACKBONE|DICT|INTERRES
    46   25   35 1    
    47   25   26 1    
    48   26   27 1    
    49   26   55 1    
    50   26   56 1    
    51   27   28 1    
    52   27   57 1    
    53   27   58 1    
    54   28   33 1    
    55   28   29 1    
    56   28   36 1    
    57   29   30 1    
    58   29   59 1    
    59   29   60 1    
    60   30   31 1    
    61   30   61 1    
    62   30   62 1    
    63   31   32 1    
    64   31   63 1    
    65   31   64 1    
    66   32   33 1    
    67   32   65 1    
    68   32   66 1    
    69   33   34 1    
    70   33   35 1    
    71   35   67 1    
    72   35   68 1    
    73   36   69 1    
@<TRIPOS>SUBSTRUCTURE
     1 UNK         1 GROUP             0       ****    0 ROOT    
