ZINC12416365_6108
                    3D
 Schrodinger Suite 2024-2.
 64 68  0  0  1  0            999 V2000
    3.3333   53.0320   17.7664 C   0  0  0  0  0  0
    4.4589   53.6944   18.5564 C   0  0  0  0  0  0
    5.6555   54.1438   18.0834 C   0  0  0  0  0  0
    6.6765   54.8493   19.0247 C   0  0  2  0  0  0
    7.5742   54.2288   19.0382 H   0  0  0  0  0  0
    6.1803   54.8650   20.5027 C   0  0  0  0  0  0
    4.9335   54.4360   20.8353 C   0  0  0  0  0  0
    4.1212   53.8751   19.8775 N   0  0  0  0  0  0
    4.3923   54.3822   22.2672 C   0  0  0  0  0  0
    5.5450   54.2706   23.2991 C   0  0  1  0  0  0
    6.0083   53.2921   23.1525 H   0  0  0  0  0  0
    6.6557   55.2969   23.0021 C   0  0  0  0  0  0
    7.1314   55.3011   21.5470 C   0  0  0  0  0  0
    8.2632   55.6966   21.2816 O   0  0  0  0  0  0
    5.0952   54.3319   24.7562 C   0  0  0  0  0  0
    3.8088   54.2821   25.3018 C   0  0  0  0  0  0
    3.7611   54.3602   26.6969 C   0  0  0  0  0  0
    5.0157   54.4767   27.2637 C   0  0  0  0  0  0
    6.2554   54.4828   26.0608 S   0  0  0  0  0  0
    7.1457   56.2361   18.5448 C   0  0  0  0  0  0
    6.1837   57.2311   18.3408 C   0  0  0  0  0  0
    6.5584   58.4967   17.9044 C   0  0  0  0  0  0
    7.9014   58.7949   17.6946 C   0  0  0  0  0  0
    8.8770   57.8222   17.9077 C   0  0  0  0  0  0
    8.5016   56.5251   18.2992 C   0  0  0  0  0  0
    9.4573   55.5543   18.4893 O   0  0  0  0  0  0
   10.0085   55.0119   17.2981 C   0  0  0  0  0  0
   10.1949   58.1591   17.7240 O   0  0  0  0  0  0
   10.8868   58.4419   18.9329 C   0  0  0  0  0  0
    6.0964   53.9435   16.7056 C   0  0  0  0  0  0
    6.5888   54.8567   16.0416 O   0  0  0  0  0  0
    5.9652   52.6833   16.2367 N   0  0  0  0  0  0
    6.3363   52.2184   14.9639 C   0  0  0  0  0  0
    7.5314   52.6025   14.3396 C   0  0  0  0  0  0
    7.8691   52.0684   13.0987 C   0  0  0  0  0  0
    7.0172   51.1519   12.4863 C   0  0  0  0  0  0
    5.8301   50.7633   13.1035 C   0  0  0  0  0  0
    5.4909   51.2967   14.3444 C   0  0  0  0  0  0
    3.3145   51.9601   17.9715 H   0  0  0  0  0  0
    2.3638   53.4501   18.0430 H   0  0  0  0  0  0
    3.4305   53.1690   16.6903 H   0  0  0  0  0  0
    3.1436   53.7700   20.1096 H   0  0  0  0  0  0
    3.7053   55.2116   22.4354 H   0  0  0  0  0  0
    3.8237   53.4580   22.3892 H   0  0  0  0  0  0
    6.3048   56.2987   23.2180 H   0  0  0  0  0  0
    7.5045   55.1499   23.6592 H   0  0  0  0  0  0
    2.9190   54.1875   24.6971 H   0  0  0  0  0  0
    2.8442   54.3327   27.2677 H   0  0  0  0  0  0
    5.2723   54.5569   28.3102 H   0  0  0  0  0  0
    5.1383   57.0173   18.5107 H   0  0  0  0  0  0
    5.8098   59.2588   17.7360 H   0  0  0  0  0  0
    8.1800   59.7871   17.3707 H   0  0  0  0  0  0
   10.7040   54.2135   17.5581 H   0  0  0  0  0  0
    9.2370   54.5833   16.6578 H   0  0  0  0  0  0
   10.5604   55.7593   16.7272 H   0  0  0  0  0  0
   11.9594   58.4677   18.7424 H   0  0  0  0  0  0
   10.5917   59.4159   19.3247 H   0  0  0  0  0  0
   10.7045   57.6967   19.7083 H   0  0  0  0  0  0
    5.5039   52.0082   16.8375 H   0  0  0  0  0  0
    8.2066   53.2977   14.8155 H   0  0  0  0  0  0
    8.7920   52.3576   12.6181 H   0  0  0  0  0  0
    7.2838   50.7350   11.5263 H   0  0  0  0  0  0
    5.1783   50.0452   12.6285 H   0  0  0  0  0  0
    4.5780   50.9774   14.8289 H   0  0  0  0  0  0
  1  2  1  0  0  0
  1 39  1  0  0  0
  1 40  1  0  0  0
  1 41  1  0  0  0
  2  8  1  0  0  0
  2  3  2  0  0  0
  3  4  1  0  0  0
  3 30  1  0  0  0
  4  5  1  0  0  0
  4  6  1  0  0  0
  4 20  1  0  0  0
  6 13  1  0  0  0
  6  7  2  0  0  0
  7  8  1  0  0  0
  7  9  1  0  0  0
  8 42  1  0  0  0
  9 10  1  0  0  0
  9 43  1  0  0  0
  9 44  1  0  0  0
 10 11  1  0  0  0
 10 12  1  0  0  0
 10 15  1  0  0  0
 12 13  1  0  0  0
 12 45  1  0  0  0
 12 46  1  0  0  0
 13 14  2  0  0  0
 15 19  1  0  0  0
 15 16  2  0  0  0
 16 17  1  0  0  0
 16 47  1  0  0  0
 17 18  2  0  0  0
 17 48  1  0  0  0
 18 19  1  0  0  0
 18 49  1  0  0  0
 20 25  2  0  0  0
 20 21  1  0  0  0
 21 22  2  0  0  0
 21 50  1  0  0  0
 22 23  1  0  0  0
 22 51  1  0  0  0
 23 24  2  0  0  0
 23 52  1  0  0  0
 24 25  1  0  0  0
 24 28  1  0  0  0
 25 26  1  0  0  0
 26 27  1  0  0  0
 27 53  1  0  0  0
 27 54  1  0  0  0
 27 55  1  0  0  0
 28 29  1  0  0  0
 29 56  1  0  0  0
 29 57  1  0  0  0
 29 58  1  0  0  0
 30 31  2  0  0  0
 30 32  1  0  0  0
 32 33  1  0  0  0
 32 59  1  0  0  0
 33 38  2  0  0  0
 33 34  1  0  0  0
 34 35  2  0  0  0
 34 60  1  0  0  0
 35 36  1  0  0  0
 35 61  1  0  0  0
 36 37  2  0  0  0
 36 62  1  0  0  0
 37 38  1  0  0  0
 37 63  1  0  0  0
 38 64  1  0  0  0
M  END
> <i_i_glide_confnum>
51

> <i_i_glide_lignum>
6109

> <i_i_glide_posenum>
385

> <i_i_glide_rotatable_bonds>
7

> <i_m_Source_File_Index>
141

> <b_m_subgroup_collapsed>
0

> <r_i_docking_score>
-4.59337

> <r_i_glide_ecoul>
-2.82113

> <r_i_glide_eff_state_penalty>
0

> <r_i_glide_einternal>
12.4551

> <r_i_glide_emodel>
-47.468

> <r_i_glide_energy>
-42.7947

> <r_i_glide_erotb>
0.407422

> <r_i_glide_esite>
-0.0648417

> <r_i_glide_evdw>
-39.9736

> <r_i_glide_gscore>
-4.59337

> <r_i_glide_hbond>
-0.224181

> <r_i_glide_ligand_efficiency>
-0.127594

> <r_i_glide_ligand_efficiency_ln>
-1.00215

> <r_i_glide_ligand_efficiency_sa>
-0.421305

> <r_i_glide_lipo>
-2.15986

> <r_i_glide_metal>
0

> <r_i_glide_rewards>
-0.13006

> <s_i_glide_gridfile>
wee1_glide-grid

> <s_m_Source_File>
wee1_decoys_glide_SP.sdf

> <s_m_Source_Path>
/Users/zhangxujun/Desktop

> <s_m_entry_id>
416

> <s_m_entry_name>
wee1_decoys_glide_SP.141

> <s_m_subgroup_title>
wee1_decoys_glide_SP

> <s_m_subgroupid>
wee1_decoys_glide_SP


$$$$
