@<TRIPOS>MOLECULE
ZINC12451383_210
61   64    1
SMALL
USER_CHARGES


@<TRIPOS>ATOM
      1 C1          0.6700   54.6533   28.6787 C.3       1 UNK         0.0000 
      2 C2          2.2039   54.4792   28.5455 C.3       1 UNK         0.0000 
      3 C3          2.8019   53.0839   28.9262 C.3       1 UNK         0.0000 
      4 H4          3.1628   52.9490   29.9465 H         1 UNK         0.0000 
      5 C5          1.9011   51.8741   28.4908 C.3       1 UNK         0.0000 
      6 C6          1.4457   52.0967   27.0428 C.2       1 UNK         0.0000 
      7 C7          1.8578   53.1873   26.3531 C.2       1 UNK         0.0000 
      8 C8          2.7673   54.1878   27.1100 C.3       1 UNK         0.0000 
      9 H9          3.1045   55.0290   26.5041 H         1 UNK         0.0000 
     10 C10         3.8672   53.3657   27.8333 C.3       1 UNK         0.0000 
     11 C11         1.3575   53.4800   24.9471 C.3       1 UNK         0.0000 
     12 C12         3.4646   53.3968   23.4228 C.3       1 UNK         0.0000 
     13 C13         3.7946   52.7569   22.0506 C.3       1 UNK         0.0000 
     14 H14         4.6954   52.1366   22.0818 H         1 UNK         0.0000 
     15 C15         2.5975   51.8698   21.6869 C.3       1 UNK         0.0000 
     16 C16         1.4395   52.3841   22.5543 C.3       1 UNK         0.0000 
     17 H17         1.0025   53.3125   22.1842 H         1 UNK         0.0000 
     18 C18         0.3679   51.2924   22.7687 C.2       1 UNK         0.0000 
     19 O19         0.2475   50.6784   23.8316 O.2       1 UNK         0.0000 
     20 O20        -0.3903   51.1131   21.6687 O.3       1 UNK         0.0000 
     21 C21        -1.4196   50.1318   21.6589 C.3       1 UNK         0.0000 
     22 N22         3.9945   53.7617   21.0055 N.am      1 UNK         0.0000 
     23 C23         5.1087   54.4972   20.8855 C.2       1 UNK         0.0000 
     24 O24         5.9394   54.6080   21.7881 O.2       1 UNK         0.0000 
     25 N25         5.1923   55.0775   19.6742 N.am      1 UNK         0.0000 
     26 C26         6.2327   55.8882   19.1904 C.ar      1 UNK         0.0000 
     27 C27         5.8803   56.9081   18.3030 C.ar      1 UNK         0.0000 
     28 C28         6.8625   57.7373   17.7677 C.ar      1 UNK         0.0000 
     29 C29         8.1999   57.5238   18.0960 C.ar      1 UNK         0.0000 
     30 C30         8.5634   56.4977   18.9662 C.ar      1 UNK         0.0000 
     31 C31         7.5803   55.6857   19.5244 C.ar      1 UNK         0.0000 
     32 C32         2.8503   55.6778   29.2890 C.3       1 UNK         0.0000 
     33 H33         0.3426   55.5033   28.0819 H         1 UNK         0.0000 
     34 H34         0.0722   53.8098   28.3437 H         1 UNK         0.0000 
     35 H35         0.3788   54.8334   29.7143 H         1 UNK         0.0000 
     36 H36         1.0359   51.7786   29.1480 H         1 UNK         0.0000 
     37 H37         2.4437   50.9330   28.5700 H         1 UNK         0.0000 
     38 H38         0.7775   51.3845   26.5775 H         1 UNK         0.0000 
     39 H39         4.7350   53.9275   28.1840 H         1 UNK         0.0000 
     40 H40         4.2762   52.4967   27.3194 H         1 UNK         0.0000 
     41 H41         1.3919   54.5339   24.6844 H         1 UNK         0.0000 
     42 H42         0.3274   53.1316   24.8614 H         1 UNK         0.0000 
     43 H43         4.2183   53.2968   24.2054 H         1 UNK         0.0000 
     44 H44         3.2335   54.4612   23.3341 H         1 UNK         0.0000 
     45 H45         2.3718   51.8434   20.6181 H         1 UNK         0.0000 
     46 H46         2.8359   50.8395   21.9660 H         1 UNK         0.0000 
     47 H47        -1.9077   50.1118   20.6836 H         1 UNK         0.0000 
     48 H48        -1.0138   49.1371   21.8555 H         1 UNK         0.0000 
     49 H49        -2.1763   50.3499   22.4151 H         1 UNK         0.0000 
     50 H50         3.2710   53.8498   20.3051 H         1 UNK         0.0000 
     51 H51         4.3853   55.0089   19.0736 H         1 UNK         0.0000 
     52 H52         4.8464   57.0763   18.0343 H         1 UNK         0.0000 
     53 H53         6.5879   58.5417   17.0983 H         1 UNK         0.0000 
     54 H54         8.9626   58.1611   17.6732 H         1 UNK         0.0000 
     55 H55         9.6026   56.3389   19.2164 H         1 UNK         0.0000 
     56 H56         7.8788   54.8961   20.1966 H         1 UNK         0.0000 
     57 H57         2.5243   56.6330   28.8793 H         1 UNK         0.0000 
     58 H58         2.5518   55.6741   30.3367 H         1 UNK         0.0000 
     59 H59         3.9379   55.6712   29.2767 H         1 UNK         0.0000 
     60 N60         2.1612   52.7071   23.8804 N.4       1 UNK         0.0000 
     61 H61         2.4003   51.8141   24.2916 H         1 UNK         0.0000 
@<TRIPOS>BOND
     1    1    2 1    
     2    1   33 1    
     3    1   34 1    
     4    1   35 1    
     5    2    8 1    
     6    2    3 1    
     7    2   32 1    
     8    3    4 1    
     9    3   10 1    
    10    3    5 1    
    11    5    6 1    
    12    5   36 1    
    13    5   37 1    
    14    6    7 2    
    15    6   38 1    
    16    7    8 1    
    17    7   11 1    
    18    8    9 1    
    19    8   10 1    
    20   10   39 1    
    21   10   40 1    
    22   11   41 1    
    23   11   42 1    
    24   11   60 1    
    25   12   13 1    
    26   12   43 1    
    27   12   44 1    
    28   12   60 1    
    29   13   14 1    
    30   13   15 1    
    31   13   22 1    
    32   15   16 1    
    33   15   45 1    
    34   15   46 1    
    35   16   17 1    
    36   16   18 1    
    37   16   60 1    
    38   18   19 2    
    39   18   20 1    
    40   20   21 1    
    41   21   47 1    
    42   21   48 1    
    43   21   49 1    
    44   22   23 am   BACKBONE|DICT|INTERRES
    45   22   50 1    
    46   23   24 2    
    47   23   25 am   BACKBONE|DICT|INTERRES
    48   25   26 1    
    49   25   51 1    
    50   26   31 ar   
    51   26   27 ar   
    52   27   28 ar   
    53   27   52 1    
    54   28   29 ar   
    55   28   53 1    
    56   29   30 ar   
    57   29   54 1    
    58   30   31 ar   
    59   30   55 1    
    60   31   56 1    
    61   32   57 1    
    62   32   58 1    
    63   32   59 1    
    64   60   61 1    
@<TRIPOS>SUBSTRUCTURE
     1 UNK         1 GROUP             0       ****    0 ROOT    
