@<TRIPOS>MOLECULE
ZINC27318047_4983
86   91    1
SMALL
USER_CHARGES


@<TRIPOS>ATOM
      1 C1          1.6361   48.7237   21.2489 C.3       1 UNK         0.0000 
      2 C2          1.2369   50.1726   20.8471 C.3       1 UNK         0.0000 
      3 C3         -0.1471   50.6214   21.3634 C.3       1 UNK         0.0000 
      4 H4         -0.9822   50.0132   21.0128 H         1 UNK         0.0000 
      5 C5         -0.2323   52.0944   20.9026 C.3       1 UNK         0.0000 
      6 C6          1.2237   52.5748   21.0839 C.3       1 UNK         0.0000 
      7 C7          1.9522   51.3132   21.6395 C.3       1 UNK         0.0000 
      8 C8          1.4832   51.0503   23.1194 C.3       1 UNK         0.0000 
      9 H9          2.0706   50.2095   23.4941 H         1 UNK         0.0000 
     10 C10         0.0049   50.6204   22.9071 C.3       1 UNK         0.0000 
     11 N11         1.6720   52.1960   24.0201 N.am      1 UNK         0.0000 
     12 C12         1.3148   52.2190   25.3163 C.2       1 UNK         0.0000 
     13 O13         0.7044   51.3011   25.8637 O.2       1 UNK         0.0000 
     14 C14         1.6754   53.4681   26.1228 C.3       1 UNK         0.0000 
     15 C15         2.5500   53.3234   27.3952 C.3       1 UNK         0.0000 
     16 C16         4.0997   53.4253   27.2887 C.3       1 UNK         0.0000 
     17 H17         4.4910   52.4152   27.3155 H         1 UNK         0.0000 
     18 C18         4.6618   54.0544   25.9955 C.3       1 UNK         0.0000 
     19 C19         6.1984   53.9556   25.9709 C.3       1 UNK         0.0000 
     20 C20         6.8307   54.6629   27.1800 C.3       1 UNK         0.0000 
     21 N21         6.2378   54.0961   28.4817 N.4       1 UNK         0.0000 
     22 C22         4.6951   54.1438   28.5275 C.3       1 UNK         0.0000 
     23 C23         3.4941   51.2720   21.4595 C.3       1 UNK         0.0000 
     24 S24         4.4255   52.8633   21.8911 S.o2      1 UNK         0.0000 
     25 O25         3.5543   53.7804   22.6369 O.2       1 UNK         0.0000 
     26 O26         5.7155   52.4971   22.4817 O.2       1 UNK         0.0000 
     27 N27         4.7616   53.5330   20.2937 N.pl3     1 UNK         0.0000 
     28 C28         5.5100   52.7972   19.2478 C.3       1 UNK         0.0000 
     29 C29         6.6224   53.6560   18.5890 C.3       1 UNK         0.0000 
     30 C30         6.1465   55.0784   18.1879 C.3       1 UNK         0.0000 
     31 C31         5.0920   55.0326   17.0602 C.3       1 UNK         0.0000 
     32 C32         5.8555   55.2444   15.7524 C.3       1 UNK         0.0000 
     33 C33         7.1019   55.9875   16.1881 C.ar      1 UNK         0.0000 
     34 C34         7.2732   55.8905   17.5739 C.ar      1 UNK         0.0000 
     35 C35         8.4080   56.4388   18.1803 C.ar      1 UNK         0.0000 
     36 C36         9.3677   57.0833   17.4003 C.ar      1 UNK         0.0000 
     37 C37         9.2072   57.1642   16.0161 C.ar      1 UNK         0.0000 
     38 C38         8.0827   56.6025   15.4066 C.ar      1 UNK         0.0000 
     39 C39         5.5521   55.7196   19.4697 C.3       1 UNK         0.0000 
     40 C40         4.3640   54.8968   20.0079 C.3       1 UNK         0.0000 
     41 C41         1.3817   50.2101   19.2881 C.3       1 UNK         0.0000 
     42 H42         2.6708   48.5083   20.9787 H         1 UNK         0.0000 
     43 H43         1.5399   48.4967   22.3072 H         1 UNK         0.0000 
     44 H44         1.0114   48.0060   20.7162 H         1 UNK         0.0000 
     45 H45        -0.5514   52.1747   19.8630 H         1 UNK         0.0000 
     46 H46        -0.9438   52.6640   21.4998 H         1 UNK         0.0000 
     47 H47         1.6584   52.8967   20.1378 H         1 UNK         0.0000 
     48 H48         1.2629   53.4339   21.7511 H         1 UNK         0.0000 
     49 H49        -0.1747   49.6275   23.3210 H         1 UNK         0.0000 
     50 H50        -0.7126   51.2962   23.3746 H         1 UNK         0.0000 
     51 H51         2.2639   52.9395   23.6644 H         1 UNK         0.0000 
     52 H52         0.7044   53.6967   26.5331 H         1 UNK         0.0000 
     53 H53         1.9683   54.3028   25.4859 H         1 UNK         0.0000 
     54 H54         2.2872   52.4008   27.9178 H         1 UNK         0.0000 
     55 H55         2.2123   54.1141   28.0694 H         1 UNK         0.0000 
     56 H56         4.3192   55.0841   25.8800 H         1 UNK         0.0000 
     57 H57         4.2621   53.5262   25.1295 H         1 UNK         0.0000 
     58 H58         6.5858   54.3738   25.0400 H         1 UNK         0.0000 
     59 H59         6.5034   52.9068   25.9867 H         1 UNK         0.0000 
     60 H60         6.6252   55.7317   27.1950 H         1 UNK         0.0000 
     61 H61         7.9041   54.4965   27.2542 H         1 UNK         0.0000 
     62 H62         6.6249   54.6245   29.2583 H         1 UNK         0.0000 
     63 H63         4.4046   53.6680   29.4657 H         1 UNK         0.0000 
     64 H64         4.4153   55.1978   28.5745 H         1 UNK         0.0000 
     65 H65         3.9043   50.4968   22.0817 H         1 UNK         0.0000 
     66 H66         3.7643   51.0294   20.4330 H         1 UNK         0.0000 
     67 H67         5.9062   51.8802   19.6819 H         1 UNK         0.0000 
     68 H68         4.7831   52.4967   18.4942 H         1 UNK         0.0000 
     69 H69         7.4524   53.7577   19.2817 H         1 UNK         0.0000 
     70 H70         7.0564   53.1351   17.7335 H         1 UNK         0.0000 
     71 H71         4.4377   54.1612   17.0675 H         1 UNK         0.0000 
     72 H72         4.4189   55.8867   17.1641 H         1 UNK         0.0000 
     73 H73         5.2576   55.7949   15.0251 H         1 UNK         0.0000 
     74 H74         6.1150   54.2829   15.3063 H         1 UNK         0.0000 
     75 H75         8.5648   56.3514   19.2449 H         1 UNK         0.0000 
     76 H76        10.2472   57.5017   17.8687 H         1 UNK         0.0000 
     77 H77         9.9616   57.6493   15.4133 H         1 UNK         0.0000 
     78 H78         7.9809   56.6518   14.3325 H         1 UNK         0.0000 
     79 H79         5.2647   56.7557   19.2817 H         1 UNK         0.0000 
     80 H80         6.3162   55.7841   20.2470 H         1 UNK         0.0000 
     81 H81         3.5063   54.8899   19.3339 H         1 UNK         0.0000 
     82 H82         4.0401   55.2962   20.9603 H         1 UNK         0.0000 
     83 H83         2.3731   49.8842   18.9680 H         1 UNK         0.0000 
     84 H84         0.6644   49.5358   18.8187 H         1 UNK         0.0000 
     85 H85         1.2268   51.1857   18.8333 H         1 UNK         0.0000 
     86 H86         6.5420   53.1391   28.5919 H         1 UNK         0.0000 
@<TRIPOS>BOND
     1    1    2 1    
     2    1   42 1    
     3    1   43 1    
     4    1   44 1    
     5    2    7 1    
     6    2    3 1    
     7    2   41 1    
     8    3    4 1    
     9    3   10 1    
    10    3    5 1    
    11    5    6 1    
    12    5   45 1    
    13    5   46 1    
    14    6    7 1    
    15    6   47 1    
    16    6   48 1    
    17    7    8 1    
    18    7   23 1    
    19    8    9 1    
    20    8   10 1    
    21    8   11 1    
    22   10   49 1    
    23   10   50 1    
    24   11   12 am   BACKBONE|DICT|INTERRES
    25   11   51 1    
    26   12   13 2    
    27   12   14 1    
    28   14   15 1    
    29   14   52 1    
    30   14   53 1    
    31   15   16 1    
    32   15   54 1    
    33   15   55 1    
    34   16   17 1    
    35   16   22 1    
    36   16   18 1    
    37   18   19 1    
    38   18   56 1    
    39   18   57 1    
    40   19   20 1    
    41   19   58 1    
    42   19   59 1    
    43   20   21 1    
    44   20   60 1    
    45   20   61 1    
    46   21   22 1    
    47   21   62 1    
    48   21   86 1    
    49   22   63 1    
    50   22   64 1    
    51   23   24 1    
    52   23   65 1    
    53   23   66 1    
    54   24   25 2    
    55   24   26 2    
    56   24   27 1    
    57   27   40 1    
    58   27   28 1    
    59   28   29 1    
    60   28   67 1    
    61   28   68 1    
    62   29   30 1    
    63   29   69 1    
    64   29   70 1    
    65   30   34 1    
    66   30   31 1    
    67   30   39 1    
    68   31   32 1    
    69   31   71 1    
    70   31   72 1    
    71   32   33 1    
    72   32   73 1    
    73   32   74 1    
    74   33   38 ar   
    75   33   34 ar   
    76   34   35 ar   
    77   35   36 ar   
    78   35   75 1    
    79   36   37 ar   
    80   36   76 1    
    81   37   38 ar   
    82   37   77 1    
    83   38   78 1    
    84   39   40 1    
    85   39   79 1    
    86   39   80 1    
    87   40   81 1    
    88   40   82 1    
    89   41   83 1    
    90   41   84 1    
    91   41   85 1    
@<TRIPOS>SUBSTRUCTURE
     1 UNK         1 GROUP             0       ****    0 ROOT    
