@<TRIPOS>MOLECULE
ZINC63361858_5469
75   79    1
SMALL
USER_CHARGES


@<TRIPOS>ATOM
      1 C1          4.2628   54.1779   23.9062 C.3       1 UNK         0.0000 
      2 C2          2.8800   53.8247   24.4769 C.3       1 UNK         0.0000 
      3 H3          2.3183   54.7633   24.4892 H         1 UNK         0.0000 
      4 C4          2.9668   53.2506   25.9172 C.3       1 UNK         0.0000 
      5 C5          2.5274   54.1978   27.0397 C.3       1 UNK         0.0000 
      6 C6          2.6328   53.5461   28.4343 C.3       1 UNK         0.0000 
      7 C7          1.8797   54.2771   29.5708 C.3       1 UNK         0.0000 
      8 C8          2.2590   55.7667   29.6795 C.3       1 UNK         0.0000 
      9 C9          0.3533   54.0781   29.5022 C.3       1 UNK         0.0000 
     10 N10         2.1913   52.8903   23.5814 N.am      1 UNK         0.0000 
     11 C11         0.8535   52.7693   23.4959 C.2       1 UNK         0.0000 
     12 O12         0.0985   53.5416   24.0816 O.2       1 UNK         0.0000 
     13 C13         0.3243   51.6115   22.6659 C.ar      1 UNK         0.0000 
     14 C14         1.0236   51.2360   21.5051 C.ar      1 UNK         0.0000 
     15 C15         0.6108   50.1600   20.7244 C.ar      1 UNK         0.0000 
     16 C16        -0.5209   49.4358   21.0814 C.ar      1 UNK         0.0000 
     17 C17        -1.2469   49.7939   22.2135 C.ar      1 UNK         0.0000 
     18 C18        -0.8473   50.8761   23.0113 C.ar      1 UNK         0.0000 
     19 N19        -1.6653   51.1839   24.1271 N.am      1 UNK         0.0000 
     20 C20        -1.6526   50.4931   25.2913 C.2       1 UNK         0.0000 
     21 O21        -1.0350   49.4578   25.5436 O.2       1 UNK         0.0000 
     22 C22        -2.5326   51.2682   26.2688 C.3       1 UNK         0.0000 
     23 C23        -3.8266   50.5096   26.7539 C.3       1 UNK         0.0000 
     24 H24        -4.2168   49.8491   25.9763 H         1 UNK         0.0000 
     25 C25        -4.8915   51.4864   27.2316 C.2       1 UNK         0.0000 
     26 C26        -5.2358   51.2086   28.5011 C.2       1 UNK         0.0000 
     27 C27        -6.1441   51.8671   29.4504 C.2       1 UNK         0.0000 
     28 C28        -6.2348   51.4617   30.7367 C.2       1 UNK         0.0000 
     29 C29        -5.3957   50.3230   31.1316 C.2       1 UNK         0.0000 
     30 C30        -4.5675   49.6947   30.2597 C.2       1 UNK         0.0000 
     31 C31        -4.4704   50.1317   28.9371 C.2       1 UNK         0.0000 
     32 N32        -3.6959   49.6930   27.9732 N.pl3     1 UNK         0.0000 
     33 O33        -7.0348   52.1668   31.5824 O.3       1 UNK         0.0000 
     34 C34        -7.0772   51.7827   32.9567 C.3       1 UNK         0.0000 
     35 C35        -5.2418   52.6099   26.2735 C.3       1 UNK         0.0000 
     36 C36        -3.9311   53.3422   25.8918 C.3       1 UNK         0.0000 
     37 N37        -2.9474   52.3550   25.4073 N.am      1 UNK         0.0000 
     38 C38        -2.5502   52.2152   24.1331 C.2       1 UNK         0.0000 
     39 O39        -2.8949   52.9002   23.1749 O.2       1 UNK         0.0000 
     40 C40        -1.6045   51.7189   27.4338 C.3       1 UNK         0.0000 
     41 H41         4.7892   54.8619   24.5732 H         1 UNK         0.0000 
     42 H42         4.8986   53.2981   23.8015 H         1 UNK         0.0000 
     43 H43         4.1811   54.6731   22.9378 H         1 UNK         0.0000 
     44 H44         2.3288   52.3700   25.9959 H         1 UNK         0.0000 
     45 H45         3.9781   52.8971   26.1231 H         1 UNK         0.0000 
     46 H46         3.1231   55.1110   27.0106 H         1 UNK         0.0000 
     47 H47         1.4979   54.4944   26.8589 H         1 UNK         0.0000 
     48 H48         2.2669   52.5184   28.3853 H         1 UNK         0.0000 
     49 H49         3.6882   53.4607   28.6984 H         1 UNK         0.0000 
     50 H50         2.2060   53.7992   30.4939 H         1 UNK         0.0000 
     51 H51         1.8649   56.3485   28.8451 H         1 UNK         0.0000 
     52 H52         1.8777   56.2144   30.5980 H         1 UNK         0.0000 
     53 H53         3.3414   55.8862   29.6812 H         1 UNK         0.0000 
     54 H54         0.0945   53.0187   29.5293 H         1 UNK         0.0000 
     55 H55        -0.1397   54.5487   30.3534 H         1 UNK         0.0000 
     56 H56        -0.0793   54.4953   28.5935 H         1 UNK         0.0000 
     57 H57         2.7697   52.2906   23.0148 H         1 UNK         0.0000 
     58 H58         1.9035   51.7775   21.1870 H         1 UNK         0.0000 
     59 H59         1.1720   49.8883   19.8417 H         1 UNK         0.0000 
     60 H60        -0.8419   48.6003   20.4770 H         1 UNK         0.0000 
     61 H61        -2.1299   49.2258   22.4666 H         1 UNK         0.0000 
     62 H62        -6.7504   52.7084   29.1490 H         1 UNK         0.0000 
     63 H63        -5.4065   49.9678   32.1509 H         1 UNK         0.0000 
     64 H64        -3.9555   48.8774   30.6161 H         1 UNK         0.0000 
     65 H65        -7.4579   50.7664   33.0779 H         1 UNK         0.0000 
     66 H66        -6.0960   51.8564   33.4322 H         1 UNK         0.0000 
     67 H67        -7.7499   52.4493   33.4971 H         1 UNK         0.0000 
     68 H68        -5.7305   52.2197   25.3783 H         1 UNK         0.0000 
     69 H69        -5.9418   53.3175   26.7201 H         1 UNK         0.0000 
     70 H70        -4.0703   54.1354   25.1553 H         1 UNK         0.0000 
     71 H71        -3.4899   53.8219   26.7664 H         1 UNK         0.0000 
     72 H72        -0.9009   52.4960   27.1282 H         1 UNK         0.0000 
     73 H73        -2.1826   52.0967   28.2715 H         1 UNK         0.0000 
     74 H74        -1.0185   50.8926   27.8431 H         1 UNK         0.0000 
     75 H75        -2.9886   48.9513   28.0845 H         1 UNK         0.0000 
@<TRIPOS>BOND
     1    1    2 1    
     2    1   41 1    
     3    1   42 1    
     4    1   43 1    
     5    2    3 1    
     6    2    4 1    
     7    2   10 1    
     8    4    5 1    
     9    4   44 1    
    10    4   45 1    
    11    5    6 1    
    12    5   46 1    
    13    5   47 1    
    14    6    7 1    
    15    6   48 1    
    16    6   49 1    
    17    7    8 1    
    18    7    9 1    
    19    7   50 1    
    20    8   51 1    
    21    8   52 1    
    22    8   53 1    
    23    9   54 1    
    24    9   55 1    
    25    9   56 1    
    26   10   11 am   BACKBONE|DICT|INTERRES
    27   10   57 1    
    28   11   12 2    
    29   11   13 1    
    30   13   18 ar   
    31   13   14 ar   
    32   14   15 ar   
    33   14   58 1    
    34   15   16 ar   
    35   15   59 1    
    36   16   17 ar   
    37   16   60 1    
    38   17   18 ar   
    39   17   61 1    
    40   18   19 1    
    41   19   38 am   BACKBONE|DICT|INTERRES
    42   19   20 am   BACKBONE|DICT|INTERRES
    43   20   21 2    
    44   20   22 1    
    45   22   37 1    
    46   22   23 1    
    47   22   40 1    
    48   23   24 1    
    49   23   32 1    
    50   23   25 1    
    51   25   26 2    
    52   25   35 1    
    53   26   31 1    
    54   26   27 1    
    55   27   28 2    
    56   27   62 1    
    57   28   29 1    
    58   28   33 1    
    59   29   30 2    
    60   29   63 1    
    61   30   31 1    
    62   30   64 1    
    63   31   32 2    
    64   32   75 1    
    65   33   34 1    
    66   34   65 1    
    67   34   66 1    
    68   34   67 1    
    69   35   36 1    
    70   35   68 1    
    71   35   69 1    
    72   36   37 1    
    73   36   70 1    
    74   36   71 1    
    75   37   38 am   BACKBONE|DICT|INTERRES
    76   38   39 2    
    77   40   72 1    
    78   40   73 1    
    79   40   74 1    
@<TRIPOS>SUBSTRUCTURE
     1 UNK         1 GROUP             0       ****    0 ROOT    
