ZINC22131234_79
                    3D
 Schrodinger Suite 2024-2.
 54 57  0  0  1  0            999 V2000
    2.4423   55.7326   29.3442 C   0  0  0  0  0  0
    3.1720   54.3703   29.3550 C   0  0  1  0  0  0
    3.4333   54.1618   30.3910 H   0  0  0  0  0  0
    2.2908   53.1821   28.8917 C   0  0  0  0  0  0
    1.7952   53.3594   27.4352 C   0  0  0  0  0  0
    2.9832   53.7601   26.5626 C   0  0  0  0  0  0
    4.1949   54.2311   27.0915 C   0  0  0  0  0  0
    5.3075   54.5232   25.7916 S   0  0  0  0  0  0
    4.0448   54.0527   24.6765 C   0  0  0  0  0  0
    2.9207   53.6999   25.2459 N   0  0  0  0  0  0
    4.1752   54.0003   23.2980 N   0  0  0  0  0  0
    5.3058   54.1253   22.5687 C   0  0  0  0  0  0
    6.4329   54.3254   23.0292 O   0  0  0  0  0  0
    5.1112   54.0481   21.0770 C   0  0  0  0  0  0
    5.8544   54.8948   20.2440 C   0  0  0  0  0  0
    5.7252   54.8080   18.8613 C   0  0  0  0  0  0
    4.8468   53.8764   18.3073 C   0  0  0  0  0  0
    4.1021   53.0270   19.1248 C   0  0  0  0  0  0
    4.2325   53.1124   20.5075 C   0  0  0  0  0  0
    4.7045   53.7738   16.5263 S   0  0  0  0  0  0
    6.0692   53.8139   15.9874 O   0  0  0  0  0  0
    3.7838   52.6893   16.1718 O   0  0  0  0  0  0
    3.9551   55.3061   16.0492 N   0  0  0  0  0  0
    2.6151   55.6820   16.2539 C   0  0  0  0  0  0
    1.6372   54.8025   16.7410 C   0  0  0  0  0  0
    0.3161   55.2216   16.8838 C   0  0  0  0  0  0
   -0.0427   56.5266   16.5555 C   0  0  0  0  0  0
    0.9243   57.4146   16.0889 C   0  0  0  0  0  0
    2.2621   57.0072   15.9462 C   0  0  0  0  0  0
    3.2713   57.8540   15.5201 O   0  0  0  0  0  0
    3.0412   59.2570   15.4752 C   0  0  0  0  0  0
    4.5110   54.3800   28.5720 C   0  0  0  0  0  0
    2.1043   56.0078   28.3459 H   0  0  0  0  0  0
    1.5676   55.7211   29.9963 H   0  0  0  0  0  0
    3.0905   56.5378   29.6815 H   0  0  0  0  0  0
    1.4154   53.0931   29.5371 H   0  0  0  0  0  0
    2.8454   52.2470   28.9787 H   0  0  0  0  0  0
    1.3298   52.4369   27.0849 H   0  0  0  0  0  0
    1.0272   54.1287   27.4033 H   0  0  0  0  0  0
    3.3340   53.7842   22.7843 H   0  0  0  0  0  0
    6.5491   55.6115   20.6604 H   0  0  0  0  0  0
    6.3107   55.4527   18.2253 H   0  0  0  0  0  0
    3.4468   52.2840   18.6920 H   0  0  0  0  0  0
    3.6670   52.4258   21.1218 H   0  0  0  0  0  0
    4.5845   56.0475   15.7856 H   0  0  0  0  0  0
    1.8730   53.7866   17.0150 H   0  0  0  0  0  0
   -0.4278   54.5342   17.2578 H   0  0  0  0  0  0
   -1.0667   56.8526   16.6659 H   0  0  0  0  0  0
    0.6218   58.4258   15.8570 H   0  0  0  0  0  0
    3.9824   59.7424   15.2268 H   0  0  0  0  0  0
    2.3183   59.5231   14.7043 H   0  0  0  0  0  0
    2.7034   59.6518   16.4367 H   0  0  0  0  0  0
    5.0729   55.2954   28.7719 H   0  0  0  0  0  0
    5.1444   53.5588   28.9081 H   0  0  0  0  0  0
  1  2  1  0  0  0
  1 33  1  0  0  0
  1 34  1  0  0  0
  1 35  1  0  0  0
  2  3  1  0  0  0
  2 32  1  0  0  0
  2  4  1  0  0  0
  4  5  1  0  0  0
  4 36  1  0  0  0
  4 37  1  0  0  0
  5  6  1  0  0  0
  5 38  1  0  0  0
  5 39  1  0  0  0
  6 10  1  0  0  0
  6  7  2  0  0  0
  7  8  1  0  0  0
  7 32  1  0  0  0
  8  9  1  0  0  0
  9 10  2  0  0  0
  9 11  1  0  0  0
 11 12  1  0  0  0
 11 40  1  0  0  0
 12 13  2  0  0  0
 12 14  1  0  0  0
 14 19  2  0  0  0
 14 15  1  0  0  0
 15 16  2  0  0  0
 15 41  1  0  0  0
 16 17  1  0  0  0
 16 42  1  0  0  0
 17 18  2  0  0  0
 17 20  1  0  0  0
 18 19  1  0  0  0
 18 43  1  0  0  0
 19 44  1  0  0  0
 20 21  2  0  0  0
 20 22  2  0  0  0
 20 23  1  0  0  0
 23 24  1  0  0  0
 23 45  1  0  0  0
 24 29  2  0  0  0
 24 25  1  0  0  0
 25 26  2  0  0  0
 25 46  1  0  0  0
 26 27  1  0  0  0
 26 47  1  0  0  0
 27 28  2  0  0  0
 27 48  1  0  0  0
 28 29  1  0  0  0
 28 49  1  0  0  0
 29 30  1  0  0  0
 30 31  1  0  0  0
 31 50  1  0  0  0
 31 51  1  0  0  0
 31 52  1  0  0  0
 32 53  1  0  0  0
 32 54  1  0  0  0
M  END
> <i_i_glide_confnum>
123

> <i_i_glide_lignum>
80

> <i_i_glide_posenum>
395

> <i_i_glide_rotatable_bonds>
7

> <i_m_Source_File_Index>
3708

> <b_m_subgroup_collapsed>
0

> <r_i_docking_score>
-4.04316

> <r_i_glide_ecoul>
0.287066

> <r_i_glide_eff_state_penalty>
0

> <r_i_glide_einternal>
0.869939

> <r_i_glide_emodel>
-49.3093

> <r_i_glide_energy>
-40.8

> <r_i_glide_erotb>
0.576188

> <r_i_glide_esite>
-0.0729769

> <r_i_glide_evdw>
-41.087

> <r_i_glide_gscore>
-4.04316

> <r_i_glide_hbond>
0

> <r_i_glide_ligand_efficiency>
-0.130424

> <r_i_glide_ligand_efficiency_ln>
-0.911856

> <r_i_glide_ligand_efficiency_sa>
-0.409713

> <r_i_glide_lipo>
-2.3884

> <r_i_glide_metal>
0

> <r_i_glide_rewards>
-0.146674

> <s_i_glide_gridfile>
wee1_glide-grid

> <s_m_Source_File>
wee1_decoys_glide_SP.sdf

> <s_m_Source_Path>
/Users/zhangxujun/Desktop

> <s_m_entry_id>
3983

> <s_m_entry_name>
wee1_decoys_glide_SP.3708

> <s_m_subgroup_title>
wee1_decoys_glide_SP

> <s_m_subgroupid>
wee1_decoys_glide_SP


$$$$
