ZINC13132644_4664
                    3D
 Schrodinger Suite 2024-2.
 55 59  0  0  1  0            999 V2000
    1.0138   57.3269   16.0797 C   0  0  0  0  0  0
   -0.3388   57.6524   16.0847 C   0  0  0  0  0  0
   -1.2975   56.6895   16.3908 C   0  0  0  0  0  0
   -0.9056   55.3616   16.6938 C   0  0  0  0  0  0
   -1.8516   54.3558   17.0077 C   0  0  0  0  0  0
   -1.4377   53.0568   17.3052 C   0  0  0  0  0  0
   -0.0800   52.7341   17.2873 C   0  0  0  0  0  0
    0.8763   53.6989   16.9834 C   0  0  0  0  0  0
    0.4834   55.0269   16.6860 C   0  0  0  0  0  0
    1.4323   56.0327   16.3766 C   0  0  0  0  0  0
   -2.6639   51.8179   17.7436 S   0  0  0  0  0  0
   -2.0806   50.5262   17.3729 O   0  0  0  0  0  0
   -3.8765   52.2337   17.0314 O   0  0  0  0  0  0
   -2.7679   52.0966   19.2817 N   0  5  0  0  0  0
   -1.9387   51.6935   20.2568 C   0  0  0  0  0  0
   -2.0953   52.0956   21.4815 N   0  0  0  0  0  0
   -1.1758   51.5700   22.3195 C   0  0  0  0  0  0
   -1.1181   51.8617   23.6807 C   0  0  0  0  0  0
   -0.1409   51.2337   24.4610 C   0  0  0  0  0  0
    0.7693   50.3438   23.8727 C   0  0  0  0  0  0
    0.7445   50.0600   22.5060 C   0  0  0  0  0  0
   -0.2443   50.6814   21.7330 C   0  0  0  0  0  0
   -0.6028   50.5674   20.0169 S   0  0  0  0  0  0
   -0.0764   51.5913   26.2283 S   0  0  0  0  0  0
    0.3797   50.3329   26.8299 O   0  0  0  0  0  0
   -1.4496   52.0011   26.5530 O   0  0  0  0  0  0
    1.1046   52.8950   26.1125 N   0  0  0  0  0  0
    1.9723   53.0250   27.0320 C   0  0  0  0  0  0
    2.0412   52.1948   28.1446 N   0  0  0  0  0  0
    2.3954   52.5157   29.5217 C   0  0  0  0  0  0
    3.9035   52.6848   29.7571 C   0  0  0  0  0  0
    4.5673   53.8732   29.0380 C   0  0  0  0  0  0
    4.4265   53.8775   27.5118 C   0  0  0  0  0  0
    2.9954   54.1619   27.0109 C   0  0  0  0  0  0
    1.7454   58.0895   15.8544 H   0  0  0  0  0  0
   -0.6417   58.6644   15.8626 H   0  0  0  0  0  0
   -2.3470   56.9523   16.3918 H   0  0  0  0  0  0
   -2.9024   54.6058   17.0151 H   0  0  0  0  0  0
    0.2411   51.7259   17.5033 H   0  0  0  0  0  0
    1.9266   53.4386   16.9781 H   0  0  0  0  0  0
    2.4848   55.7903   16.3785 H   0  0  0  0  0  0
   -1.8266   52.5431   24.1275 H   0  0  0  0  0  0
    1.5104   49.8519   24.4821 H   0  0  0  0  0  0
    1.4540   49.3754   22.0653 H   0  0  0  0  0  0
    1.9772   51.7758   30.2049 H   0  0  0  0  0  0
    1.8950   53.4582   29.7519 H   0  0  0  0  0  0
    4.4108   51.7638   29.4618 H   0  0  0  0  0  0
    4.0801   52.7775   30.8272 H   0  0  0  0  0  0
    5.6303   53.8794   29.2793 H   0  0  0  0  0  0
    4.1745   54.8072   29.4431 H   0  0  0  0  0  0
    5.0861   54.6502   27.1117 H   0  0  0  0  0  0
    4.7978   52.9392   27.0937 H   0  0  0  0  0  0
    2.5813   55.0175   27.5461 H   0  0  0  0  0  0
    3.0887   54.5085   25.9780 H   0  0  0  0  0  0
    1.3871   51.4178   28.0886 H   0  0  0  0  0  0
  1 10  2  0  0  0
  1  2  1  0  0  0
  1 35  1  0  0  0
  2  3  2  0  0  0
  2 36  1  0  0  0
  3  4  1  0  0  0
  3 37  1  0  0  0
  4  9  2  0  0  0
  4  5  1  0  0  0
  5  6  2  0  0  0
  5 38  1  0  0  0
  6  7  1  0  0  0
  6 11  1  0  0  0
  7  8  2  0  0  0
  7 39  1  0  0  0
  8  9  1  0  0  0
  8 40  1  0  0  0
  9 10  1  0  0  0
 10 41  1  0  0  0
 11 12  2  0  0  0
 11 13  2  0  0  0
 11 14  1  0  0  0
 14 15  1  0  0  0
 15 23  1  0  0  0
 15 16  2  0  0  0
 16 17  1  0  0  0
 17 22  2  0  0  0
 17 18  1  0  0  0
 18 19  2  0  0  0
 18 42  1  0  0  0
 19 20  1  0  0  0
 19 24  1  0  0  0
 20 21  2  0  0  0
 20 43  1  0  0  0
 21 22  1  0  0  0
 21 44  1  0  0  0
 22 23  1  0  0  0
 24 25  2  0  0  0
 24 26  2  0  0  0
 24 27  1  0  0  0
 27 28  2  0  0  0
 28 34  1  0  0  0
 28 29  1  0  0  0
 29 30  1  0  0  0
 29 55  1  0  0  0
 30 31  1  0  0  0
 30 45  1  0  0  0
 30 46  1  0  0  0
 31 32  1  0  0  0
 31 47  1  0  0  0
 31 48  1  0  0  0
 32 33  1  0  0  0
 32 49  1  0  0  0
 32 50  1  0  0  0
 33 34  1  0  0  0
 33 51  1  0  0  0
 33 52  1  0  0  0
 34 53  1  0  0  0
 34 54  1  0  0  0
M  CHG  1  14  -1
M  END
> <i_i_glide_confnum>
72

> <i_i_glide_lignum>
4665

> <i_i_glide_posenum>
384

> <i_i_glide_rotatable_bonds>
5

> <i_m_Source_File_Index>
5863

> <b_m_subgroup_collapsed>
0

> <r_i_docking_score>
-3.24854

> <r_i_glide_ecoul>
0.791568

> <r_i_glide_eff_state_penalty>
0

> <r_i_glide_einternal>
7.76474

> <r_i_glide_emodel>
-43.2894

> <r_i_glide_energy>
-38.4743

> <r_i_glide_erotb>
0.388661

> <r_i_glide_esite>
-0.111505

> <r_i_glide_evdw>
-39.2659

> <r_i_glide_gscore>
-3.24854

> <r_i_glide_hbond>
-0.199527

> <r_i_glide_ligand_efficiency>
-0.0955452

> <r_i_glide_ligand_efficiency_ln>
-0.717693

> <r_i_glide_ligand_efficiency_sa>
-0.309529

> <r_i_glide_lipo>
-1.23425

> <r_i_glide_metal>
0

> <r_i_glide_rewards>
-0.247353

> <s_i_glide_gridfile>
wee1_glide-grid

> <s_m_Source_File>
wee1_decoys_glide_SP.sdf

> <s_m_Source_Path>
/Users/zhangxujun/Desktop

> <s_m_entry_id>
6138

> <s_m_entry_name>
wee1_decoys_glide_SP.5863

> <s_m_subgroup_title>
wee1_decoys_glide_SP

> <s_m_subgroupid>
wee1_decoys_glide_SP


$$$$
