@<TRIPOS>MOLECULE
ZINC36032537_5265
65   68    1
SMALL
USER_CHARGES


@<TRIPOS>ATOM
      1 C1         -2.6333   46.3209   23.3390 C.3       1 UNK         0.0000 
      2 C2         -3.6892   46.9371   24.2808 C.3       1 UNK         0.0000 
      3 C3         -4.6414   45.8760   24.8719 C.3       1 UNK         0.0000 
      4 C4         -3.0490   47.7885   25.4039 C.3       1 UNK         0.0000 
      5 C5         -2.1039   48.9323   24.9485 C.3       1 UNK         0.0000 
      6 H6         -1.2693   48.5602   24.3534 H         1 UNK         0.0000 
      7 C7         -2.7676   50.0873   24.1769 C.2       1 UNK         0.0000 
      8 O8         -3.4665   49.9257   23.1770 O.2       1 UNK         0.0000 
      9 N9         -2.4602   51.2590   24.7731 N.am      1 UNK         0.0000 
     10 C10        -1.5203   51.1432   25.8841 C.3       1 UNK         0.0000 
     11 N11        -1.4299   49.6308   26.0817 N.4       1 UNK         0.0000 
     12 C12        -0.0844   51.6216   25.5611 C.3       1 UNK         0.0000 
     13 C13         0.8938   51.4105   26.7443 C.3       1 UNK         0.0000 
     14 N14         0.3414   52.1276   27.9116 N.am      1 UNK         0.0000 
     15 C15        -0.9705   51.6273   28.3809 C.3       1 UNK         0.0000 
     16 C16        -1.9736   51.7989   27.2110 C.3       1 UNK         0.0000 
     17 C17         1.0192   53.0767   28.6248 C.2       1 UNK         0.0000 
     18 O18         0.5815   53.5463   29.6781 O.2       1 UNK         0.0000 
     19 C19         2.3711   53.5632   28.1439 C.ar      1 UNK         0.0000 
     20 C20         3.4594   53.5935   29.0311 C.ar      1 UNK         0.0000 
     21 C21         4.7130   54.0388   28.6043 C.ar      1 UNK         0.0000 
     22 C22         4.8947   54.4638   27.2891 C.ar      1 UNK         0.0000 
     23 C23         3.8179   54.4654   26.4058 C.ar      1 UNK         0.0000 
     24 C24         2.5630   54.0301   26.8329 C.ar      1 UNK         0.0000 
     25 F25         3.9878   54.8958   25.1363 F         1 UNK         0.0000 
     26 C26        -3.0793   52.5272   24.3554 C.3       1 UNK         0.0000 
     27 C27        -4.4184   52.8437   25.0224 C.ar      1 UNK         0.0000 
     28 C28        -4.5436   53.9361   25.8868 C.ar      1 UNK         0.0000 
     29 C29        -5.7685   54.2330   26.4813 C.ar      1 UNK         0.0000 
     30 C30        -6.8864   53.4516   26.2005 C.ar      1 UNK         0.0000 
     31 C31        -6.7881   52.3656   25.3234 C.ar      1 UNK         0.0000 
     32 C32        -5.5505   52.0704   24.7387 C.ar      1 UNK         0.0000 
     33 C33        -8.0250   51.5220   25.0141 C.3       1 UNK         0.0000 
     34 F34        -8.2706   50.7209   26.0498 F         1 UNK         0.0000 
     35 F35        -7.8628   50.7636   23.9285 F         1 UNK         0.0000 
     36 F36        -9.0880   52.3045   24.8171 F         1 UNK         0.0000 
     37 H37        -1.6884   46.1380   23.8531 H         1 UNK         0.0000 
     38 H38        -2.9630   45.3803   22.8996 H         1 UNK         0.0000 
     39 H39        -2.4277   46.9948   22.5064 H         1 UNK         0.0000 
     40 H40        -4.3161   47.5877   23.6701 H         1 UNK         0.0000 
     41 H41        -4.5240   45.7774   25.9530 H         1 UNK         0.0000 
     42 H42        -5.6815   46.1518   24.6908 H         1 UNK         0.0000 
     43 H43        -4.5009   44.8855   24.4403 H         1 UNK         0.0000 
     44 H44        -2.4895   47.1236   26.0659 H         1 UNK         0.0000 
     45 H45        -3.8456   48.2082   26.0234 H         1 UNK         0.0000 
     46 H46        -1.7996   49.3428   26.9912 H         1 UNK         0.0000 
     47 H47         0.2973   51.1138   24.6748 H         1 UNK         0.0000 
     48 H48        -0.0974   52.6800   25.2977 H         1 UNK         0.0000 
     49 H49         0.9516   50.3549   27.0121 H         1 UNK         0.0000 
     50 H50         1.9043   51.6977   26.4836 H         1 UNK         0.0000 
     51 H51        -0.8569   50.5726   28.6266 H         1 UNK         0.0000 
     52 H52        -1.3278   52.1264   29.2851 H         1 UNK         0.0000 
     53 H53        -2.1092   52.8697   27.0368 H         1 UNK         0.0000 
     54 H54        -2.9559   51.4254   27.5085 H         1 UNK         0.0000 
     55 H55         3.3415   53.2619   30.0540 H         1 UNK         0.0000 
     56 H56         5.5524   54.0532   29.2827 H         1 UNK         0.0000 
     57 H57         5.8645   54.8053   26.9594 H         1 UNK         0.0000 
     58 H58         1.7416   54.0596   26.1316 H         1 UNK         0.0000 
     59 H59        -3.2393   52.5252   23.2758 H         1 UNK         0.0000 
     60 H60        -2.3712   53.3333   24.5395 H         1 UNK         0.0000 
     61 H61        -3.6956   54.5606   26.1126 H         1 UNK         0.0000 
     62 H62        -5.8502   55.0702   27.1588 H         1 UNK         0.0000 
     63 H63        -7.8338   53.6916   26.6619 H         1 UNK         0.0000 
     64 H64        -5.4728   51.2424   24.0508 H         1 UNK         0.0000 
     65 H65        -0.4624   49.3505   26.1402 H         1 UNK         0.0000 
@<TRIPOS>BOND
     1    1    2 1    
     2    1   37 1    
     3    1   38 1    
     4    1   39 1    
     5    2    3 1    
     6    2    4 1    
     7    2   40 1    
     8    3   41 1    
     9    3   42 1    
    10    3   43 1    
    11    4    5 1    
    12    4   44 1    
    13    4   45 1    
    14    5    6 1    
    15    5   11 1    
    16    5    7 1    
    17    7    8 2    
    18    7    9 am   BACKBONE|DICT|INTERRES
    19    9   10 1    
    20    9   26 1    
    21   10   16 1    
    22   10   11 1    
    23   10   12 1    
    24   11   46 1    
    25   11   65 1    
    26   12   13 1    
    27   12   47 1    
    28   12   48 1    
    29   13   14 1    
    30   13   49 1    
    31   13   50 1    
    32   14   15 1    
    33   14   17 am   BACKBONE|DICT|INTERRES
    34   15   16 1    
    35   15   51 1    
    36   15   52 1    
    37   16   53 1    
    38   16   54 1    
    39   17   18 2    
    40   17   19 1    
    41   19   24 ar   
    42   19   20 ar   
    43   20   21 ar   
    44   20   55 1    
    45   21   22 ar   
    46   21   56 1    
    47   22   23 ar   
    48   22   57 1    
    49   23   24 ar   
    50   23   25 1    
    51   24   58 1    
    52   26   27 1    
    53   26   59 1    
    54   26   60 1    
    55   27   32 ar   
    56   27   28 ar   
    57   28   29 ar   
    58   28   61 1    
    59   29   30 ar   
    60   29   62 1    
    61   30   31 ar   
    62   30   63 1    
    63   31   32 ar   
    64   31   33 1    
    65   32   64 1    
    66   33   34 1    
    67   33   35 1    
    68   33   36 1    
@<TRIPOS>SUBSTRUCTURE
     1 UNK         1 GROUP             0       ****    0 ROOT    
