ZINC44491443_4049
                    3D
 Schrodinger Suite 2024-2.
 65 69  0  0  1  0            999 V2000
    3.1046   54.1124   25.9749 C   0  0  0  0  0  0
    2.0732   52.9665   25.7843 C   0  0  2  0  0  0
    2.5960   52.0967   25.3971 H   0  0  0  0  0  0
    1.0729   53.3133   24.6931 C   0  0  0  0  0  0
   -0.1138   52.3407   24.8178 C   0  0  1  0  0  0
   -1.0082   52.9473   24.6777 H   0  0  0  0  0  0
   -0.1385   51.2550   23.6825 C   0  0  2  0  0  0
    0.8625   50.8195   23.7291 H   0  0  0  0  0  0
   -0.2419   51.8190   22.2335 C   0  0  0  0  0  0
   -1.6712   52.0799   21.7454 C   0  0  0  0  0  0
   -2.4712   50.7894   21.8677 C   0  0  0  0  0  0
   -3.0024   50.1627   20.7905 C   0  0  0  0  0  0
   -3.7611   48.9135   20.8334 C   0  0  0  0  0  0
   -4.2278   48.3741   19.8328 O   0  0  0  0  0  0
   -3.9098   48.3652   22.1770 C   0  0  0  0  0  0
   -3.4027   48.9436   23.2847 C   0  0  0  0  0  0
   -2.5994   50.2580   23.3211 C   0  0  1  0  0  0
   -1.1323   50.0398   23.9190 C   0  0  2  0  0  0
   -1.1497   49.5935   25.4350 C   0  0  2  0  0  0
   -2.0839   49.9132   25.8782 H   0  0  0  0  0  0
   -0.0001   50.2258   26.2553 C   0  0  0  0  0  0
   -0.0866   51.7883   26.3050 C   0  0  1  0  0  0
    1.1944   52.5020   26.9975 C   0  0  1  0  0  0
    2.0471   51.7273   28.0817 C   0  0  0  0  0  0
    1.5176   50.8967   28.7918 O   0  0  0  0  0  0
    3.5045   52.0967   28.4184 C   0  0  0  0  0  0
    3.6935   53.6146   29.3330 Cl  0  0  0  0  0  0
    0.8093   53.6967   27.7058 O   0  0  0  0  0  0
    0.3043   53.7850   28.9968 C   0  0  0  0  0  0
   -0.3559   52.9474   29.6106 O   0  0  0  0  0  0
    0.7729   54.9854   29.5900 C   0  0  0  0  0  0
    0.7092   55.4385   30.8817 C   0  0  0  0  0  0
    1.3904   56.6529   30.8817 C   0  0  0  0  0  0
    1.7697   56.8966   29.5850 C   0  0  0  0  0  0
    1.4131   55.8775   28.7947 O   0  0  0  0  0  0
   -1.4444   52.1661   26.9769 C   0  0  0  0  0  0
   -1.2241   48.2038   25.6817 O   0  0  0  0  0  0
   -0.3768   48.7049   22.9663 Cl  0  0  0  0  0  0
   -3.5040   51.2600   24.0905 C   0  0  0  0  0  0
    2.7395   54.8967   26.6358 H   0  0  0  0  0  0
    4.0564   53.7730   26.3734 H   0  0  0  0  0  0
    3.3470   54.5836   25.0214 H   0  0  0  0  0  0
    0.7044   54.3185   24.8816 H   0  0  0  0  0  0
    1.5401   53.3915   23.7128 H   0  0  0  0  0  0
    0.3824   52.6961   22.0764 H   0  0  0  0  0  0
    0.1971   51.0823   21.5574 H   0  0  0  0  0  0
   -1.6364   52.4134   20.7075 H   0  0  0  0  0  0
   -2.1285   52.8967   22.3014 H   0  0  0  0  0  0
   -2.8445   50.6102   19.8208 H   0  0  0  0  0  0
   -4.4546   47.4411   22.2970 H   0  0  0  0  0  0
   -3.5786   48.4359   24.2228 H   0  0  0  0  0  0
    0.9561   49.9028   25.8436 H   0  0  0  0  0  0
   -0.0374   49.8115   27.2615 H   0  0  0  0  0  0
    3.9030   51.3204   29.0709 H   0  0  0  0  0  0
    4.1463   52.1168   27.5460 H   0  0  0  0  0  0
    0.2679   54.9254   31.7252 H   0  0  0  0  0  0
    1.5658   57.2965   31.7310 H   0  0  0  0  0  0
    2.2630   57.6957   29.0740 H   0  0  0  0  0  0
   -2.3130   51.9120   26.3841 H   0  0  0  0  0  0
   -1.5806   51.6643   27.9347 H   0  0  0  0  0  0
   -1.5492   53.2399   27.1090 H   0  0  0  0  0  0
   -1.2956   48.0967   26.6496 H   0  0  0  0  0  0
   -4.4237   51.4604   23.5378 H   0  0  0  0  0  0
   -3.8267   50.8812   25.0596 H   0  0  0  0  0  0
   -3.0308   52.2243   24.2532 H   0  0  0  0  0  0
  1  2  1  0  0  0
  1 40  1  0  0  0
  1 41  1  0  0  0
  1 42  1  0  0  0
  2  3  1  0  0  0
  2 23  1  0  0  0
  2  4  1  0  0  0
  4  5  1  0  0  0
  4 43  1  0  0  0
  4 44  1  0  0  0
  5  6  1  0  0  0
  5 22  1  0  0  0
  5  7  1  0  0  0
  7  8  1  0  0  0
  7 18  1  0  0  0
  7  9  1  0  0  0
  9 10  1  0  0  0
  9 45  1  0  0  0
  9 46  1  0  0  0
 10 11  1  0  0  0
 10 47  1  0  0  0
 10 48  1  0  0  0
 11 17  1  0  0  0
 11 12  2  0  0  0
 12 13  1  0  0  0
 12 49  1  0  0  0
 13 14  2  0  0  0
 13 15  1  0  0  0
 15 16  2  0  0  0
 15 50  1  0  0  0
 16 17  1  0  0  0
 16 51  1  0  0  0
 17 18  1  0  0  0
 17 39  1  0  0  0
 18 19  1  0  0  0
 18 38  1  0  0  0
 19 20  1  0  0  0
 19 21  1  0  0  0
 19 37  1  0  0  0
 21 22  1  0  0  0
 21 52  1  0  0  0
 21 53  1  0  0  0
 22 23  1  0  0  0
 22 36  1  0  0  0
 23 24  1  0  0  0
 23 28  1  0  0  0
 24 25  2  0  0  0
 24 26  1  0  0  0
 26 27  1  0  0  0
 26 54  1  0  0  0
 26 55  1  0  0  0
 28 29  1  0  0  0
 29 30  2  0  0  0
 29 31  1  0  0  0
 31 35  1  0  0  0
 31 32  2  0  0  0
 32 33  1  0  0  0
 32 56  1  0  0  0
 33 34  2  0  0  0
 33 57  1  0  0  0
 34 35  1  0  0  0
 34 58  1  0  0  0
 36 59  1  0  0  0
 36 60  1  0  0  0
 36 61  1  0  0  0
 37 62  1  0  0  0
 39 63  1  0  0  0
 39 64  1  0  0  0
 39 65  1  0  0  0
M  END
> <i_i_glide_confnum>
68

> <i_i_glide_lignum>
4050

> <i_i_glide_posenum>
145

> <i_i_glide_rotatable_bonds>
6

> <i_m_Source_File_Index>
4369

> <b_m_subgroup_collapsed>
0

> <r_i_docking_score>
-4.0582

> <r_i_glide_ecoul>
-6.99416

> <r_i_glide_eff_state_penalty>
0

> <r_i_glide_einternal>
22.8575

> <r_i_glide_emodel>
-13.6431

> <r_i_glide_energy>
-24.1622

> <r_i_glide_erotb>
0.30244

> <r_i_glide_esite>
0

> <r_i_glide_evdw>
-17.168

> <r_i_glide_gscore>
-4.0582

> <r_i_glide_hbond>
-0.16

> <r_i_glide_ligand_efficiency>
-0.115949

> <r_i_glide_ligand_efficiency_ln>
-0.890865

> <r_i_glide_ligand_efficiency_sa>
-0.379275

> <r_i_glide_lipo>
-2.06444

> <r_i_glide_metal>
0

> <r_i_glide_rewards>
-0.228678

> <s_i_glide_gridfile>
wee1_glide-grid

> <s_m_Source_File>
wee1_decoys_glide_SP.sdf

> <s_m_Source_Path>
/Users/zhangxujun/Desktop

> <s_m_entry_id>
4644

> <s_m_entry_name>
wee1_decoys_glide_SP.4369

> <s_m_subgroup_title>
wee1_decoys_glide_SP

> <s_m_subgroupid>
wee1_decoys_glide_SP


$$$$
