@<TRIPOS>MOLECULE
ZINC39683345_3082
72   75    1
SMALL
USER_CHARGES


@<TRIPOS>ATOM
      1 C1         -3.0994   53.4401   14.9730 C.3       1 UNK         0.0000 
      2 C2         -3.6211   54.8805   14.8060 C.3       1 UNK         0.0000 
      3 C3         -5.0276   55.0430   15.4089 C.3       1 UNK         0.0000 
      4 C4         -2.6282   55.9171   15.3673 C.3       1 UNK         0.0000 
      5 O5         -2.4321   55.7116   16.7650 O.3       1 UNK         0.0000 
      6 C6         -1.5022   56.5956   17.3788 C.3       1 UNK         0.0000 
      7 C7         -0.0414   56.3441   16.9573 C.3       1 UNK         0.0000 
      8 C8          0.3955   54.8664   17.0498 C.3       1 UNK         0.0000 
      9 N9          1.8305   54.7415   17.2791 N.am      1 UNK         0.0000 
     10 C10         2.7999   54.7740   16.3448 C.2       1 UNK         0.0000 
     11 O11         2.5436   54.7656   15.1435 O.2       1 UNK         0.0000 
     12 C12         4.2897   54.8937   16.7879 C.3       1 UNK         0.0000 
     13 H13         4.8395   54.1379   16.2252 H         1 UNK         0.0000 
     14 C14         4.4701   54.5111   18.2782 C.3       1 UNK         0.0000 
     15 N15         5.5662   55.3530   18.7701 N.am      1 UNK         0.0000 
     16 C16         6.0518   56.2473   17.7137 C.3       1 UNK         0.0000 
     17 C17         4.9068   56.3178   16.6706 C.3       1 UNK         0.0000 
     18 C18         3.8885   57.4462   17.0353 C.3       1 UNK         0.0000 
     19 C19         4.4946   58.8633   16.9765 C.3       1 UNK         0.0000 
     20 N20         5.1049   59.0964   15.5821 N.4       1 UNK         0.0000 
     21 C21         6.0985   58.0001   15.1426 C.3       1 UNK         0.0000 
     22 C22         5.3790   56.6366   15.2299 C.3       1 UNK         0.0000 
     23 C23         6.0192   55.4497   20.0564 C.2       1 UNK         0.0000 
     24 O24         6.9009   56.2541   20.3695 O.2       1 UNK         0.0000 
     25 C25         5.4159   54.6292   21.1081 C.2       1 UNK         0.0000 
     26 C26         4.4438   53.6264   21.1337 C.2       1 UNK         0.0000 
     27 C27         4.1908   53.3249   22.4670 C.2       1 UNK         0.0000 
     28 C28         5.0491   54.0973   23.2259 C.2       1 UNK         0.0000 
     29 O29         5.8247   54.8503   22.3951 O.3       1 UNK         0.0000 
     30 C30         5.2032   54.2492   24.6969 C.ar      1 UNK         0.0000 
     31 C31         6.4462   54.4991   25.2890 C.ar      1 UNK         0.0000 
     32 C32         6.5470   54.5787   26.6790 C.ar      1 UNK         0.0000 
     33 C33         5.4105   54.4192   27.4684 C.ar      1 UNK         0.0000 
     34 C34         4.1722   54.1802   26.8865 C.ar      1 UNK         0.0000 
     35 C35         4.0684   54.0966   25.5005 C.ar      1 UNK         0.0000 
     36 F36         5.5047   54.4999   28.8143 F         1 UNK         0.0000 
     37 H37        -2.9874   53.1760   16.0255 H         1 UNK         0.0000 
     38 H38        -2.1244   53.3152   14.5000 H         1 UNK         0.0000 
     39 H39        -3.7758   52.7161   14.5202 H         1 UNK         0.0000 
     40 H40        -3.7068   55.0696   13.7344 H         1 UNK         0.0000 
     41 H41        -5.0335   54.8266   16.4779 H         1 UNK         0.0000 
     42 H42        -5.3973   56.0609   15.2801 H         1 UNK         0.0000 
     43 H43        -5.7425   54.3723   14.9309 H         1 UNK         0.0000 
     44 H44        -1.6872   55.8260   14.8228 H         1 UNK         0.0000 
     45 H45        -2.9996   56.9274   15.1841 H         1 UNK         0.0000 
     46 H46        -1.7858   57.6351   17.2021 H         1 UNK         0.0000 
     47 H47        -1.5889   56.4477   18.4556 H         1 UNK         0.0000 
     48 H48         0.1359   56.7096   15.9458 H         1 UNK         0.0000 
     49 H49         0.5957   56.9637   17.5880 H         1 UNK         0.0000 
     50 H50        -0.0837   54.4040   17.9146 H         1 UNK         0.0000 
     51 H51         0.0536   54.2930   16.1851 H         1 UNK         0.0000 
     52 H52         2.0927   54.7106   18.2530 H         1 UNK         0.0000 
     53 H53         3.6135   54.8237   18.8798 H         1 UNK         0.0000 
     54 H54         4.6996   53.4466   18.3679 H         1 UNK         0.0000 
     55 H55         6.8928   55.7448   17.2348 H         1 UNK         0.0000 
     56 H56         6.3981   57.2265   18.0398 H         1 UNK         0.0000 
     57 H57         3.0097   57.4317   16.3884 H         1 UNK         0.0000 
     58 H58         3.5064   57.2789   18.0412 H         1 UNK         0.0000 
     59 H59         3.7176   59.6187   17.1239 H         1 UNK         0.0000 
     60 H60         5.3049   59.0421   17.6836 H         1 UNK         0.0000 
     61 H61         4.3481   59.1575   14.9150 H         1 UNK         0.0000 
     62 H62         6.4026   58.2482   14.1239 H         1 UNK         0.0000 
     63 H63         6.9653   58.0745   15.8025 H         1 UNK         0.0000 
     64 H64         6.0808   55.8638   14.9061 H         1 UNK         0.0000 
     65 H65         4.5480   56.5814   14.5231 H         1 UNK         0.0000 
     66 H66         3.9100   53.1649   20.3185 H         1 UNK         0.0000 
     67 H67         3.4523   52.6257   22.8295 H         1 UNK         0.0000 
     68 H68         7.3273   54.6049   24.6735 H         1 UNK         0.0000 
     69 H69         7.4980   54.7546   27.1594 H         1 UNK         0.0000 
     70 H70         3.2986   54.0529   27.5086 H         1 UNK         0.0000 
     71 H71         3.1010   53.9024   25.0582 H         1 UNK         0.0000 
     72 H72         5.5371   60.0146   15.5959 H         1 UNK         0.0000 
@<TRIPOS>BOND
     1    1    2 1    
     2    1   37 1    
     3    1   38 1    
     4    1   39 1    
     5    2    3 1    
     6    2    4 1    
     7    2   40 1    
     8    3   41 1    
     9    3   42 1    
    10    3   43 1    
    11    4    5 1    
    12    4   44 1    
    13    4   45 1    
    14    5    6 1    
    15    6    7 1    
    16    6   46 1    
    17    6   47 1    
    18    7    8 1    
    19    7   48 1    
    20    7   49 1    
    21    8    9 1    
    22    8   50 1    
    23    8   51 1    
    24    9   10 am   BACKBONE|DICT|INTERRES
    25    9   52 1    
    26   10   11 2    
    27   10   12 1    
    28   12   13 1    
    29   12   17 1    
    30   12   14 1    
    31   14   15 1    
    32   14   53 1    
    33   14   54 1    
    34   15   16 1    
    35   15   23 am   BACKBONE|DICT|INTERRES
    36   16   17 1    
    37   16   55 1    
    38   16   56 1    
    39   17   22 1    
    40   17   18 1    
    41   18   19 1    
    42   18   57 1    
    43   18   58 1    
    44   19   20 1    
    45   19   59 1    
    46   19   60 1    
    47   20   21 1    
    48   20   61 1    
    49   20   72 1    
    50   21   22 1    
    51   21   62 1    
    52   21   63 1    
    53   22   64 1    
    54   22   65 1    
    55   23   24 2    
    56   23   25 1    
    57   25   29 1    
    58   25   26 2    
    59   26   27 1    
    60   26   66 1    
    61   27   28 2    
    62   27   67 1    
    63   28   29 1    
    64   28   30 1    
    65   30   35 ar   
    66   30   31 ar   
    67   31   32 ar   
    68   31   68 1    
    69   32   33 ar   
    70   32   69 1    
    71   33   34 ar   
    72   33   36 1    
    73   34   35 ar   
    74   34   70 1    
    75   35   71 1    
@<TRIPOS>SUBSTRUCTURE
     1 UNK         1 GROUP             0       ****    0 ROOT    
