ZINC39683639_3692
                    3D
 Schrodinger Suite 2024-2.
 64 66  0  0  1  0            999 V2000
    7.3820   53.5720   24.0099 C   0  0  0  0  0  0
    6.6000   54.3946   22.9785 C   0  0  0  0  0  0
    5.4526   53.5696   22.3480 C   0  0  0  0  0  0
    4.5824   54.2788   21.2676 C   0  0  1  0  0  0
    3.8233   54.8766   21.7735 H   0  0  0  0  0  0
    5.3990   55.2789   20.4113 C   0  0  0  0  0  0
    3.8041   53.2595   20.3821 C   0  0  0  0  0  0
    4.0779   53.1349   19.1892 O   0  0  0  0  0  0
    2.8192   52.5178   20.9309 N   0  0  0  0  0  0
    1.5519   53.0962   21.3522 C   0  0  0  0  0  0
    0.9722   52.0943   22.3698 C   0  0  2  0  0  0
    1.1607   52.4924   23.3678 H   0  0  0  0  0  0
    1.7574   50.7588   22.1780 C   0  0  0  0  0  0
    3.0757   51.2168   21.5115 C   0  0  0  0  0  0
    1.1031   49.6497   21.2928 C   0  0  0  0  0  0
   -0.1015   48.9108   21.9561 C   0  0  0  0  0  0
    0.2163   48.4969   23.4171 N   0  3  0  0  0  0
    0.9482   49.5351   24.2848 C   0  0  0  0  0  0
    2.1471   50.0657   23.4860 C   0  0  0  0  0  0
   -0.5658   52.0275   22.1752 C   0  0  0  0  0  0
   -1.0929   52.0970   21.0642 O   0  0  0  0  0  0
   -1.2855   51.9432   23.3022 N   0  0  0  0  0  0
   -2.7380   51.9044   23.4105 C   0  0  0  0  0  0
   -3.2310   52.8554   24.5103 C   0  0  0  0  0  0
   -3.3486   52.2397   25.9036 C   0  0  0  0  0  0
   -4.6355   51.9588   26.3824 C   0  0  0  0  0  0
   -4.8210   51.4331   27.6587 C   0  0  0  0  0  0
   -3.7156   51.1397   28.4532 C   0  0  0  0  0  0
   -2.4264   51.3567   27.9699 C   0  0  0  0  0  0
   -2.2352   51.9655   26.7255 C   0  0  0  0  0  0
   -0.4540   52.4886   26.2688 Br  0  0  0  0  0  0
    8.1908   54.0966   24.4816 H   0  0  0  0  0  0
    7.8905   52.7191   23.5562 H   0  0  0  0  0  0
    6.7236   53.2953   24.8301 H   0  0  0  0  0  0
    6.1942   55.2881   23.4533 H   0  0  0  0  0  0
    7.3022   54.7352   22.2175 H   0  0  0  0  0  0
    5.8958   52.6593   21.9397 H   0  0  0  0  0  0
    4.7916   53.2531   23.1565 H   0  0  0  0  0  0
    4.8301   55.6716   19.5670 H   0  0  0  0  0  0
    5.7186   56.1423   20.9958 H   0  0  0  0  0  0
    6.2937   54.8065   20.0146 H   0  0  0  0  0  0
    1.6891   54.0514   21.8674 H   0  0  0  0  0  0
    0.9460   53.1495   20.4468 H   0  0  0  0  0  0
    3.5940   50.4856   20.8874 H   0  0  0  0  0  0
    3.7736   51.4464   22.3144 H   0  0  0  0  0  0
    0.8065   50.0665   20.3282 H   0  0  0  0  0  0
    1.8524   48.8963   21.0427 H   0  0  0  0  0  0
   -1.0179   49.4933   22.0080 H   0  0  0  0  0  0
   -0.3536   47.9926   21.4254 H   0  0  0  0  0  0
   -0.6272   48.2017   23.8902 H   0  0  0  0  0  0
    0.2236   50.2931   24.5630 H   0  0  0  0  0  0
    1.2539   49.0009   25.1870 H   0  0  0  0  0  0
    2.8839   49.2949   23.2877 H   0  0  0  0  0  0
    2.6837   50.7932   24.0821 H   0  0  0  0  0  0
   -0.7919   51.9286   24.1842 H   0  0  0  0  0  0
   -3.2201   52.1922   22.4786 H   0  0  0  0  0  0
   -3.0989   50.8886   23.5777 H   0  0  0  0  0  0
   -2.5768   53.7126   24.5303 H   0  0  0  0  0  0
   -4.2007   53.2678   24.2198 H   0  0  0  0  0  0
   -5.5067   52.1598   25.7745 H   0  0  0  0  0  0
   -5.8183   51.2298   28.0239 H   0  0  0  0  0  0
   -3.8511   50.7029   29.4327 H   0  0  0  0  0  0
   -1.5791   51.1121   28.5964 H   0  0  0  0  0  0
    0.8183   47.6859   23.3914 H   0  0  0  0  0  0
  1  2  1  0  0  0
  1 32  1  0  0  0
  1 33  1  0  0  0
  1 34  1  0  0  0
  2  3  1  0  0  0
  2 35  1  0  0  0
  2 36  1  0  0  0
  3  4  1  0  0  0
  3 37  1  0  0  0
  3 38  1  0  0  0
  4  5  1  0  0  0
  4  6  1  0  0  0
  4  7  1  0  0  0
  6 39  1  0  0  0
  6 40  1  0  0  0
  6 41  1  0  0  0
  7  8  2  0  0  0
  7  9  1  0  0  0
  9 14  1  0  0  0
  9 10  1  0  0  0
 10 11  1  0  0  0
 10 42  1  0  0  0
 10 43  1  0  0  0
 11 12  1  0  0  0
 11 13  1  0  0  0
 11 20  1  0  0  0
 13 19  1  0  0  0
 13 14  1  0  0  0
 13 15  1  0  0  0
 14 44  1  0  0  0
 14 45  1  0  0  0
 15 16  1  0  0  0
 15 46  1  0  0  0
 15 47  1  0  0  0
 16 17  1  0  0  0
 16 48  1  0  0  0
 16 49  1  0  0  0
 17 18  1  0  0  0
 17 50  1  0  0  0
 17 64  1  0  0  0
 18 19  1  0  0  0
 18 51  1  0  0  0
 18 52  1  0  0  0
 19 53  1  0  0  0
 19 54  1  0  0  0
 20 21  2  0  0  0
 20 22  1  0  0  0
 22 23  1  0  0  0
 22 55  1  0  0  0
 23 24  1  0  0  0
 23 56  1  0  0  0
 23 57  1  0  0  0
 24 25  1  0  0  0
 24 58  1  0  0  0
 24 59  1  0  0  0
 25 30  2  0  0  0
 25 26  1  0  0  0
 26 27  2  0  0  0
 26 60  1  0  0  0
 27 28  1  0  0  0
 27 61  1  0  0  0
 28 29  2  0  0  0
 28 62  1  0  0  0
 29 30  1  0  0  0
 29 63  1  0  0  0
 30 31  1  0  0  0
M  CHG  1  17   1
M  END
> <i_i_glide_confnum>
205

> <i_i_glide_lignum>
3693

> <i_i_glide_posenum>
390

> <i_i_glide_rotatable_bonds>
9

> <i_m_Source_File_Index>
4823

> <b_m_subgroup_collapsed>
0

> <r_i_docking_score>
3.91515

> <r_i_glide_ecoul>
-1.19297

> <r_i_glide_eff_state_penalty>
0

> <r_i_glide_einternal>
20.1943

> <r_i_glide_emodel>
19.9401

> <r_i_glide_energy>
-16.293

> <r_i_glide_erotb>
0.651632

> <r_i_glide_esite>
-0.0227779

> <r_i_glide_evdw>
-15.1

> <r_i_glide_gscore>
3.91515

> <r_i_glide_hbond>
0

> <r_i_glide_ligand_efficiency>
0.135005

> <r_i_glide_ligand_efficiency_ln>
0.89647

> <r_i_glide_ligand_efficiency_sa>
0.414779

> <r_i_glide_lipo>
-1.13414

> <r_i_glide_metal>
0

> <r_i_glide_rewards>
5.35438

> <s_i_glide_gridfile>
wee1_glide-grid

> <s_m_Source_File>
wee1_decoys_glide_SP.sdf

> <s_m_Source_Path>
/Users/zhangxujun/Desktop

> <s_m_entry_id>
5098

> <s_m_entry_name>
wee1_decoys_glide_SP.4823

> <s_m_subgroup_title>
wee1_decoys_glide_SP

> <s_m_subgroupid>
wee1_decoys_glide_SP


$$$$
