@<TRIPOS>MOLECULE
ZINC33137248_2261
42   45    1
SMALL
USER_CHARGES


@<TRIPOS>ATOM
      1 C1          6.5265   53.6965   28.1837 C.ar      1 UNK         0.0000 
      2 C2          5.1928   53.4321   28.4817 C.ar      1 UNK         0.0000 
      3 C3          4.1823   53.7991   27.5834 C.ar      1 UNK         0.0000 
      4 C4          4.5376   54.4203   26.3802 C.ar      1 UNK         0.0000 
      5 C5          5.8849   54.6289   26.0511 C.ar      1 UNK         0.0000 
      6 C6          6.8657   54.2907   26.9769 C.ar      1 UNK         0.0000 
      7 O7          6.3058   55.2139   24.8798 O.3       1 UNK         0.0000 
      8 C8          5.9888   54.7175   23.6285 C.ar      1 UNK         0.0000 
      9 C9          4.9748   53.7870   23.3366 C.ar      1 UNK         0.0000 
     10 N10         4.6322   53.4690   22.0625 N.ar      1 UNK         0.0000 
     11 C11         5.3074   54.0972   21.0666 C.ar      1 UNK         0.0000 
     12 C12         6.3364   55.0011   21.3429 C.ar      1 UNK         0.0000 
     13 N13         6.6944   55.2973   22.6211 N.ar      1 UNK         0.0000 
     14 N14         2.8209   53.5103   27.7812 N.am      1 UNK         0.0000 
     15 C15         2.1897   53.0851   28.8982 C.2       1 UNK         0.0000 
     16 O16         2.6628   53.0759   30.0393 O.2       1 UNK         0.0000 
     17 C17         0.8635   52.5894   28.6400 C.ar      1 UNK         0.0000 
     18 C18         0.1568   52.3968   27.4552 C.ar      1 UNK         0.0000 
     19 C19        -1.0945   51.8690   27.8021 C.ar      1 UNK         0.0000 
     20 N20        -1.1708   51.6967   29.1068 N.2       1 UNK         0.0000 
     21 N21        -0.0053   52.1261   29.5967 N.pl3     1 UNK         0.0000 
     22 H22         0.1936   52.0985   30.5878 H         1 UNK         0.0000 
     23 C23        -2.2469   51.5612   26.8944 C.ar      1 UNK         0.0000 
     24 C24        -3.2538   50.6647   27.2784 C.ar      1 UNK         0.0000 
     25 C25        -4.3336   50.4158   26.4373 C.ar      1 UNK         0.0000 
     26 C26        -4.4149   51.0646   25.2079 C.ar      1 UNK         0.0000 
     27 C27        -3.4191   51.9532   24.8101 C.ar      1 UNK         0.0000 
     28 C28        -2.3356   52.1969   25.6498 C.ar      1 UNK         0.0000 
     29 Br29       -5.8991   50.7381   24.0626 Br        1 UNK         0.0000 
     30 H30         7.3028   53.4306   28.8832 H         1 UNK         0.0000 
     31 H31         4.9706   52.9268   29.4074 H         1 UNK         0.0000 
     32 H32         3.7710   54.7274   25.6835 H         1 UNK         0.0000 
     33 H33         7.9006   54.4906   26.7594 H         1 UNK         0.0000 
     34 H34         4.3995   53.2970   24.1046 H         1 UNK         0.0000 
     35 H35         5.0247   53.8545   20.0522 H         1 UNK         0.0000 
     36 H36         6.8891   55.4868   20.5537 H         1 UNK         0.0000 
     37 H37         2.2577   53.5440   26.9469 H         1 UNK         0.0000 
     38 H38         0.4929   52.6178   26.4544 H         1 UNK         0.0000 
     39 H39        -3.1899   50.1452   28.2256 H         1 UNK         0.0000 
     40 H40        -5.1024   49.7197   26.7394 H         1 UNK         0.0000 
     41 H41        -3.4888   52.4526   23.8556 H         1 UNK         0.0000 
     42 H42        -1.5767   52.8958   25.3349 H         1 UNK         0.0000 
@<TRIPOS>BOND
     1    1    6 ar   
     2    1    2 ar   
     3    1   30 1    
     4    2    3 ar   
     5    2   31 1    
     6    3    4 ar   
     7    3   14 1    
     8    4    5 ar   
     9    4   32 1    
    10    5    6 ar   
    11    5    7 1    
    12    6   33 1    
    13    7    8 1    
    14    8   13 ar   
    15    8    9 ar   
    16    9   10 ar   
    17    9   34 1    
    18   10   11 ar   
    19   11   12 ar   
    20   11   35 1    
    21   12   13 ar   
    22   12   36 1    
    23   14   15 am   BACKBONE|DICT|INTERRES
    24   14   37 1    
    25   15   16 2    
    26   15   17 1    
    27   17   21 ar   
    28   17   18 ar   
    29   18   19 ar   
    30   18   38 1    
    31   19   20 ar   
    32   19   23 1    
    33   20   21 ar   
    34   21   22 1    
    35   23   28 ar   
    36   23   24 ar   
    37   24   25 ar   
    38   24   39 1    
    39   25   26 ar   
    40   25   40 1    
    41   26   27 ar   
    42   26   29 1    
    43   27   28 ar   
    44   27   41 1    
    45   28   42 1    
@<TRIPOS>SUBSTRUCTURE
     1 UNK         1 GROUP             0       ****    0 ROOT    
