@<TRIPOS>MOLECULE
ZINC38847373_1094
65   68    1
SMALL
USER_CHARGES


@<TRIPOS>ATOM
      1 C1          4.6543   54.2237   21.2393 C.3       1 UNK         0.0000 
      2 N2          3.5045   53.3196   20.7428 N.4       1 UNK         0.0000 
      3 C3          4.0078   52.3576   19.6430 C.3       1 UNK         0.0000 
      4 C4          2.8070   52.5594   21.8937 C.3       1 UNK         0.0000 
      5 C5          1.8928   53.4980   22.7186 C.3       1 UNK         0.0000 
      6 N6          1.2790   52.8251   23.8989 N.am      1 UNK         0.0000 
      7 C7          1.8913   53.0803   25.1519 C.2       1 UNK         0.0000 
      8 N8          3.1038   53.5705   25.2296 N.2       1 UNK         0.0000 
      9 C9          3.5269   53.7634   26.5086 C.ar      1 UNK         0.0000 
     10 C10         4.8069   54.2123   26.8818 C.ar      1 UNK         0.0000 
     11 C11         5.0812   54.3651   28.2502 C.ar      1 UNK         0.0000 
     12 C12         4.1178   54.0799   29.2163 C.ar      1 UNK         0.0000 
     13 C13         2.8494   53.6181   28.8663 C.ar      1 UNK         0.0000 
     14 C14         2.5674   53.4598   27.5042 C.ar      1 UNK         0.0000 
     15 S15         1.1041   52.8966   26.7231 S.3       1 UNK         0.0000 
     16 O16         5.6800   54.4614   25.8439 O.3       1 UNK         0.0000 
     17 C17         7.0257   54.7699   26.1579 C.3       1 UNK         0.0000 
     18 C18         0.2506   51.9508   23.6228 C.2       1 UNK         0.0000 
     19 O19        -0.2571   51.9326   22.4945 O.2       1 UNK         0.0000 
     20 C20        -0.3235   50.8863   24.6024 C.3       1 UNK         0.0000 
     21 C21        -1.8755   51.0826   24.7352 C.3       1 UNK         0.0000 
     22 C22        -2.5955   49.8452   25.3053 C.3       1 UNK         0.0000 
     23 N23        -2.1167   48.6315   24.6163 N.pl3     1 UNK         0.0000 
     24 C24        -0.6869   48.3514   24.8454 C.3       1 UNK         0.0000 
     25 C25         0.1327   49.4596   24.1513 C.3       1 UNK         0.0000 
     26 S26        -3.2552   47.3020   24.3588 S.o2      1 UNK         0.0000 
     27 O27        -2.4989   46.0969   24.0003 O.2       1 UNK         0.0000 
     28 O28        -4.3193   47.8005   23.4801 O.2       1 UNK         0.0000 
     29 C29        -4.0050   47.0073   25.9548 C.ar      1 UNK         0.0000 
     30 C30        -3.2954   46.3131   26.9352 C.ar      1 UNK         0.0000 
     31 C31        -3.8592   46.1354   28.1947 C.ar      1 UNK         0.0000 
     32 C32        -5.1237   46.6519   28.4659 C.ar      1 UNK         0.0000 
     33 C33        -5.8406   47.3312   27.4862 C.ar      1 UNK         0.0000 
     34 C34        -5.2789   47.5141   26.2275 C.ar      1 UNK         0.0000 
     35 F35        -5.6651   46.4969   29.6933 F         1 UNK         0.0000 
     36 H36         5.4237   53.5820   21.6716 H         1 UNK         0.0000 
     37 H37         5.0304   54.7757   20.3764 H         1 UNK         0.0000 
     38 H38         4.2500   54.9069   21.9846 H         1 UNK         0.0000 
     39 H39         4.7561   51.6953   20.0814 H         1 UNK         0.0000 
     40 H40         3.1558   51.7896   19.2688 H         1 UNK         0.0000 
     41 H41         4.4403   52.9567   18.8397 H         1 UNK         0.0000 
     42 H42         3.5954   52.0940   22.4817 H         1 UNK         0.0000 
     43 H43         2.2131   51.7747   21.4198 H         1 UNK         0.0000 
     44 H44         1.1085   53.9041   22.0796 H         1 UNK         0.0000 
     45 H45         2.4430   54.3828   23.0327 H         1 UNK         0.0000 
     46 H46         6.0482   54.7139   28.5841 H         1 UNK         0.0000 
     47 H47         4.3669   54.2152   30.2583 H         1 UNK         0.0000 
     48 H48         2.1075   53.3854   29.6174 H         1 UNK         0.0000 
     49 H49         7.5650   54.8975   25.2205 H         1 UNK         0.0000 
     50 H50         7.1040   55.6964   26.7258 H         1 UNK         0.0000 
     51 H51         7.5037   53.9667   26.7207 H         1 UNK         0.0000 
     52 H52         0.0842   50.9564   25.5949 H         1 UNK         0.0000 
     53 H53        -2.3397   51.2230   23.7549 H         1 UNK         0.0000 
     54 H54        -2.1134   51.9271   25.3841 H         1 UNK         0.0000 
     55 H55        -3.6794   49.9247   25.2135 H         1 UNK         0.0000 
     56 H56        -2.3405   49.7543   26.3643 H         1 UNK         0.0000 
     57 H57        -0.4912   48.3699   25.9200 H         1 UNK         0.0000 
     58 H58        -0.4267   47.3615   24.4682 H         1 UNK         0.0000 
     59 H59         1.1833   49.2886   24.3925 H         1 UNK         0.0000 
     60 H60        -0.0380   49.3075   23.0831 H         1 UNK         0.0000 
     61 H61        -2.2938   45.9543   26.7451 H         1 UNK         0.0000 
     62 H62        -3.2942   45.6412   28.9694 H         1 UNK         0.0000 
     63 H63        -6.8214   47.7236   27.7097 H         1 UNK         0.0000 
     64 H64        -5.8321   48.0573   25.4748 H         1 UNK         0.0000 
     65 H65         2.8004   53.9202   20.3201 H         1 UNK         0.0000 
@<TRIPOS>BOND
     1    1    2 1    
     2    1   36 1    
     3    1   37 1    
     4    1   38 1    
     5    2    3 1    
     6    2    4 1    
     7    2   65 1    
     8    3   39 1    
     9    3   40 1    
    10    3   41 1    
    11    4    5 1    
    12    4   42 1    
    13    4   43 1    
    14    5    6 1    
    15    5   44 1    
    16    5   45 1    
    17    6    7 am   BACKBONE|DICT|INTERRES
    18    6   18 am   BACKBONE|DICT|INTERRES
    19    7   15 1    
    20    7    8 2    
    21    8    9 1    
    22    9   14 ar   
    23    9   10 ar   
    24   10   11 ar   
    25   10   16 1    
    26   11   12 ar   
    27   11   46 1    
    28   12   13 ar   
    29   12   47 1    
    30   13   14 ar   
    31   13   48 1    
    32   14   15 1    
    33   16   17 1    
    34   17   49 1    
    35   17   50 1    
    36   17   51 1    
    37   18   19 2    
    38   18   20 1    
    39   20   25 1    
    40   20   21 1    
    41   20   52 1    
    42   21   22 1    
    43   21   53 1    
    44   21   54 1    
    45   22   23 1    
    46   22   55 1    
    47   22   56 1    
    48   23   24 1    
    49   23   26 1    
    50   24   25 1    
    51   24   57 1    
    52   24   58 1    
    53   25   59 1    
    54   25   60 1    
    55   26   27 2    
    56   26   28 2    
    57   26   29 1    
    58   29   34 ar   
    59   29   30 ar   
    60   30   31 ar   
    61   30   61 1    
    62   31   32 ar   
    63   31   62 1    
    64   32   33 ar   
    65   32   35 1    
    66   33   34 ar   
    67   33   63 1    
    68   34   64 1    
@<TRIPOS>SUBSTRUCTURE
     1 UNK         1 GROUP             0       ****    0 ROOT    
