@<TRIPOS>MOLECULE
ZINC66831999_1561
53   56    1
SMALL
USER_CHARGES


@<TRIPOS>ATOM
      1 C1          5.5394   54.0157   25.8395 C.3       1 UNK         0.0000 
      2 C2          4.3048   54.0420   24.9442 C.ar      1 UNK         0.0000 
      3 C3          4.1388   54.0967   23.5490 C.ar      1 UNK         0.0000 
      4 N4          2.8441   54.0955   23.2598 N.2       1 UNK         0.0000 
      5 N5          2.1279   53.9984   24.4269 N.2       1 UNK         0.0000 
      6 N6          3.0127   53.9519   25.4305 N.pl3     1 UNK         0.0000 
      7 C7          2.5524   53.8421   26.7595 C.ar      1 UNK         0.0000 
      8 C8          3.1164   54.6367   27.7596 C.ar      1 UNK         0.0000 
      9 C9          2.6260   54.6134   29.0581 C.ar      1 UNK         0.0000 
     10 C10         1.5597   53.7534   29.3913 C.ar      1 UNK         0.0000 
     11 C11         0.9974   52.9078   28.3859 C.ar      1 UNK         0.0000 
     12 C12         1.5041   52.9689   27.0683 C.ar      1 UNK         0.0000 
     13 C13        -0.0593   52.0405   28.7613 C.ar      1 UNK         0.0000 
     14 C14        -0.4959   52.0399   30.0822 C.ar      1 UNK         0.0000 
     15 C15         0.1121   52.8972   30.9961 C.ar      1 UNK         0.0000 
     16 N16         1.1057   53.7501   30.6719 N.ar      1 UNK         0.0000 
     17 C17         5.1987   54.0967   22.5691 C.2       1 UNK         0.0000 
     18 O18         6.3517   53.7980   22.8809 O.2       1 UNK         0.0000 
     19 N19         4.8232   54.4267   21.3176 N.am      1 UNK         0.0000 
     20 C20         5.6842   54.4605   20.1345 C.3       1 UNK         0.0000 
     21 C21         6.9962   55.2947   20.2593 C.3       1 UNK         0.0000 
     22 C22         7.8294   55.3388   18.9597 C.3       1 UNK         0.0000 
     23 C23         7.0124   55.7197   17.7008 C.3       1 UNK         0.0000 
     24 C24         5.8226   54.7324   17.5704 C.3       1 UNK         0.0000 
     25 C25         4.9062   54.6994   18.8162 C.3       1 UNK         0.0000 
     26 C26         6.5106   57.1892   17.7159 C.2       1 UNK         0.0000 
     27 O27         6.8871   57.9826   18.5820 O.2       1 UNK         0.0000 
     28 N28         5.7418   57.5616   16.6792 N.am      1 UNK         0.0000 
     29 C29         5.1907   58.8965   16.5041 C.3       1 UNK         0.0000 
     30 H30         6.4285   53.6450   25.3319 H         1 UNK         0.0000 
     31 H31         5.7879   55.0110   26.2101 H         1 UNK         0.0000 
     32 H32         5.4064   53.3629   26.7039 H         1 UNK         0.0000 
     33 H33         3.9345   55.2967   27.5292 H         1 UNK         0.0000 
     34 H34         3.0589   55.2534   29.8127 H         1 UNK         0.0000 
     35 H35         1.0631   52.3405   26.3081 H         1 UNK         0.0000 
     36 H36        -0.5048   51.3748   28.0351 H         1 UNK         0.0000 
     37 H37        -1.2801   51.3672   30.4047 H         1 UNK         0.0000 
     38 H38        -0.1891   52.9007   32.0335 H         1 UNK         0.0000 
     39 H39         3.8824   54.7707   21.1898 H         1 UNK         0.0000 
     40 H40         6.0245   53.4321   20.0108 H         1 UNK         0.0000 
     41 H41         7.6375   54.9002   21.0476 H         1 UNK         0.0000 
     42 H42         6.7384   56.3148   20.5441 H         1 UNK         0.0000 
     43 H43         8.2642   54.3528   18.7838 H         1 UNK         0.0000 
     44 H44         8.7274   55.9536   19.0442 H         1 UNK         0.0000 
     45 H45         7.6029   55.6457   16.7864 H         1 UNK         0.0000 
     46 H46         5.2702   54.8847   16.6419 H         1 UNK         0.0000 
     47 H47         6.2349   53.7353   17.4021 H         1 UNK         0.0000 
     48 H48         4.1449   53.9288   18.6826 H         1 UNK         0.0000 
     49 H49         4.3827   55.6548   18.8817 H         1 UNK         0.0000 
     50 H50         5.5195   56.8813   15.9676 H         1 UNK         0.0000 
     51 H51         4.3360   58.8730   15.8285 H         1 UNK         0.0000 
     52 H52         5.9346   59.5781   16.0896 H         1 UNK         0.0000 
     53 H53         4.8463   59.2970   17.4553 H         1 UNK         0.0000 
@<TRIPOS>BOND
     1    1    2 1    
     2    1   30 1    
     3    1   31 1    
     4    1   32 1    
     5    2    6 ar   
     6    2    3 ar   
     7    3    4 ar   
     8    3   17 1    
     9    4    5 ar   
    10    5    6 ar   
    11    6    7 1    
    12    7   12 ar   
    13    7    8 ar   
    14    8    9 ar   
    15    8   33 1    
    16    9   10 ar   
    17    9   34 1    
    18   10   16 ar   
    19   10   11 ar   
    20   11   12 ar   
    21   11   13 ar   
    22   12   35 1    
    23   13   14 ar   
    24   13   36 1    
    25   14   15 ar   
    26   14   37 1    
    27   15   16 ar   
    28   15   38 1    
    29   17   18 2    
    30   17   19 am   BACKBONE|DICT|INTERRES
    31   19   20 1    
    32   19   39 1    
    33   20   25 1    
    34   20   21 1    
    35   20   40 1    
    36   21   22 1    
    37   21   41 1    
    38   21   42 1    
    39   22   23 1    
    40   22   43 1    
    41   22   44 1    
    42   23   24 1    
    43   23   26 1    
    44   23   45 1    
    45   24   25 1    
    46   24   46 1    
    47   24   47 1    
    48   25   48 1    
    49   25   49 1    
    50   26   27 2    
    51   26   28 am   BACKBONE|DICT|INTERRES
    52   28   29 1    
    53   28   50 1    
    54   29   51 1    
    55   29   52 1    
    56   29   53 1    
@<TRIPOS>SUBSTRUCTURE
     1 UNK         1 GROUP             0       ****    0 ROOT    
