@<TRIPOS>MOLECULE
ZINC36072039_5910
54   57    1
SMALL
USER_CHARGES


@<TRIPOS>ATOM
      1 C1          0.4578   53.0977   31.0490 C.3       1 UNK         0.0000 
      2 C2          0.4265   52.6356   29.5940 C.2       1 UNK         0.0000 
      3 C3          1.4854   52.5060   28.7457 C.2       1 UNK         0.0000 
      4 C4          1.2768   51.9200   27.3014 C.3       1 UNK         0.0000 
      5 H5          1.9011   51.0309   27.2800 H         1 UNK         0.0000 
      6 N6         -0.1104   51.3515   27.1817 N.pl3     1 UNK         0.0000 
      7 C7         -0.6272   50.5388   26.1703 C.2       1 UNK         0.0000 
      8 C8         -1.9734   50.4935   26.2125 C.2       1 UNK         0.0000 
      9 S9         -2.6821   51.2982   27.5927 S.3       1 UNK         0.0000 
     10 C10        -1.0509   51.6981   28.1508 C.2       1 UNK         0.0000 
     11 N11        -0.8423   52.3074   29.2493 N.2       1 UNK         0.0000 
     12 C12         0.1077   49.8394   25.1183 C.2       1 UNK         0.0000 
     13 C13        -0.2912   49.7504   23.8300 C.2       1 UNK         0.0000 
     14 O14        -1.2815   50.3201   23.2372 O.co2     1 UNK         0.0000 
     15 N15         0.3646   48.9251   22.9409 N.pl3     1 UNK         0.0000 
     16 C16         0.6429   49.1342   21.5150 C.3       1 UNK         0.0000 
     17 C17         1.7850   50.0883   21.2616 C.2       1 UNK         0.0000 
     18 C18         2.6828   50.7449   22.0795 C.2       1 UNK         0.0000 
     19 C19         3.5904   51.4077   21.2600 C.2       1 UNK         0.0000 
     20 C20         3.1707   51.1759   19.9651 C.2       1 UNK         0.0000 
     21 O21         2.0828   50.3606   19.9624 O.3       1 UNK         0.0000 
     22 C22         1.7413   52.8050   26.0953 C.ar      1 UNK         0.0000 
     23 C23         0.9307   53.0171   24.9642 C.ar      1 UNK         0.0000 
     24 C24         1.4483   53.5906   23.8043 C.ar      1 UNK         0.0000 
     25 C25         2.7825   53.9808   23.7666 C.ar      1 UNK         0.0000 
     26 C26         3.5730   53.8868   24.9008 C.ar      1 UNK         0.0000 
     27 C27         3.0571   53.2964   26.0460 C.ar      1 UNK         0.0000 
     28 Cl28        3.5025   54.4954   22.2908 Cl        1 UNK         0.0000 
     29 C29         2.8341   52.7600   29.2036 C.2       1 UNK         0.0000 
     30 O30         3.5410   51.8141   29.5538 O.2       1 UNK         0.0000 
     31 N31         3.2752   54.0483   29.1901 N.am      1 UNK         0.0000 
     32 C32         4.7049   54.3527   29.2848 C.3       1 UNK         0.0000 
     33 C33         2.4470   55.2376   28.9475 C.3       1 UNK         0.0000 
     34 H34        -0.0936   52.4017   31.6797 H         1 UNK         0.0000 
     35 H35         1.4620   53.1762   31.4574 H         1 UNK         0.0000 
     36 H36        -0.0093   54.0738   31.1433 H         1 UNK         0.0000 
     37 H37        -2.6082   49.9529   25.5263 H         1 UNK         0.0000 
     38 H38         1.0045   49.3132   25.4144 H         1 UNK         0.0000 
     39 H39         1.0340   48.2972   23.3610 H         1 UNK         0.0000 
     40 H40        -0.2645   49.4815   21.0170 H         1 UNK         0.0000 
     41 H41         0.8815   48.1680   21.0715 H         1 UNK         0.0000 
     42 H42         2.6900   50.7090   23.1580 H         1 UNK         0.0000 
     43 H43         4.4459   51.9901   21.5689 H         1 UNK         0.0000 
     44 H44         3.5756   51.4703   19.0052 H         1 UNK         0.0000 
     45 H45        -0.0972   52.6905   24.9338 H         1 UNK         0.0000 
     46 H46         0.8350   53.6732   22.9191 H         1 UNK         0.0000 
     47 H47         4.6113   54.1843   24.8688 H         1 UNK         0.0000 
     48 H48         3.7596   53.1177   26.8398 H         1 UNK         0.0000 
     49 H49         5.3329   53.4597   29.2735 H         1 UNK         0.0000 
     50 H50         5.0199   54.9680   28.4401 H         1 UNK         0.0000 
     51 H51         4.9193   54.8990   30.2001 H         1 UNK         0.0000 
     52 H52         2.6935   55.6754   27.9790 H         1 UNK         0.0000 
     53 H53         1.3744   55.0386   28.9496 H         1 UNK         0.0000 
     54 H54         2.6359   55.9944   29.7102 H         1 UNK         0.0000 
@<TRIPOS>BOND
     1    1    2 1    
     2    1   34 1    
     3    1   35 1    
     4    1   36 1    
     5    2   11 1    
     6    2    3 2    
     7    3    4 1    
     8    3   29 1    
     9    4    5 1    
    10    4    6 1    
    11    4   22 1    
    12    6   10 1    
    13    6    7 1    
    14    7    8 2    
    15    7   12 1    
    16    8    9 1    
    17    8   37 1    
    18    9   10 1    
    19   10   11 2    
    20   12   13 2    
    21   12   38 1    
    22   13   14 1    
    23   13   15 1    
    24   15   16 1    
    25   15   39 1    
    26   16   17 1    
    27   16   40 1    
    28   16   41 1    
    29   17   21 1    
    30   17   18 2    
    31   18   19 1    
    32   18   42 1    
    33   19   20 2    
    34   19   43 1    
    35   20   21 1    
    36   20   44 1    
    37   22   27 ar   
    38   22   23 ar   
    39   23   24 ar   
    40   23   45 1    
    41   24   25 ar   
    42   24   46 1    
    43   25   26 ar   
    44   25   28 1    
    45   26   27 ar   
    46   26   47 1    
    47   27   48 1    
    48   29   30 2    
    49   29   31 am   BACKBONE|DICT|INTERRES
    50   31   32 1    
    51   31   33 1    
    52   32   49 1    
    53   32   50 1    
    54   32   51 1    
    55   33   52 1    
    56   33   53 1    
    57   33   54 1    
@<TRIPOS>SUBSTRUCTURE
     1 UNK         1 GROUP             0       ****    0 ROOT    
