@<TRIPOS>MOLECULE
ZINC12250850_3530
59   62    1
SMALL
USER_CHARGES


@<TRIPOS>ATOM
      1 C1          1.4915   53.3130   23.2641 C.3       1 UNK         0.0000 
      2 C2          2.1653   53.4080   24.6318 C.2       1 UNK         0.0000 
      3 N3          3.3570   54.1002   24.5653 N.pl3     1 UNK         0.0000 
      4 C4          4.1348   54.3874   25.6591 C.2       1 UNK         0.0000 
      5 C5          3.7728   53.9794   26.8913 C.2       1 UNK         0.0000 
      6 C6          2.4962   53.1522   27.1588 C.3       1 UNK         0.0000 
      7 H7          2.9081   52.1760   27.4195 H         1 UNK         0.0000 
      8 C8          1.6831   52.9563   25.8324 C.2       1 UNK         0.0000 
      9 C9          0.4653   52.1619   25.9193 C.2       1 UNK         0.0000 
     10 O10        -0.4682   52.4966   26.6458 O.2       1 UNK         0.0000 
     11 N11         0.4885   51.0412   25.1639 N.am      1 UNK         0.0000 
     12 C12        -0.4891   50.0400   25.0071 C.ar      1 UNK         0.0000 
     13 C13        -0.0904   48.9057   24.2952 C.ar      1 UNK         0.0000 
     14 C14        -0.9859   47.8620   24.0794 C.ar      1 UNK         0.0000 
     15 C15        -2.2839   47.9502   24.5737 C.ar      1 UNK         0.0000 
     16 C16        -2.6948   49.0755   25.2821 C.ar      1 UNK         0.0000 
     17 C17        -1.8023   50.1219   25.4992 C.ar      1 UNK         0.0000 
     18 C18         1.7299   53.5688   28.4368 C.ar      1 UNK         0.0000 
     19 C19         1.7276   54.9003   28.8838 C.ar      1 UNK         0.0000 
     20 C20         1.1033   55.2502   30.0817 C.ar      1 UNK         0.0000 
     21 C21         0.4549   54.2761   30.8416 C.ar      1 UNK         0.0000 
     22 C22         0.4541   52.9503   30.4166 C.ar      1 UNK         0.0000 
     23 C23         1.0987   52.5974   29.2313 C.ar      1 UNK         0.0000 
     24 F24         1.1372   51.2969   28.8711 F         1 UNK         0.0000 
     25 C25         4.6337   54.2561   27.9929 C.1       1 UNK         0.0000 
     26 N26         5.3286   54.4969   28.8816 N.1       1 UNK         0.0000 
     27 S27         5.6178   55.3119   25.2824 S.3       1 UNK         0.0000 
     28 C28         6.4761   54.2517   24.0852 C.3       1 UNK         0.0000 
     29 C29         6.3050   54.7083   22.6402 C.2       1 UNK         0.0000 
     30 O30         5.2312   54.4970   22.0745 O.2       1 UNK         0.0000 
     31 N31         7.3796   55.2960   22.0708 N.am      1 UNK         0.0000 
     32 C32         7.4661   55.8244   20.7723 C.ar      1 UNK         0.0000 
     33 C33         8.6747   55.6967   20.0875 C.ar      1 UNK         0.0000 
     34 C34         8.8219   56.2392   18.8140 C.ar      1 UNK         0.0000 
     35 C35         7.7623   56.9312   18.2327 C.ar      1 UNK         0.0000 
     36 C36         6.5589   57.0849   18.9157 C.ar      1 UNK         0.0000 
     37 C37         6.4152   56.5331   20.1853 C.ar      1 UNK         0.0000 
     38 H38         2.0165   52.5962   22.6325 H         1 UNK         0.0000 
     39 H39         0.4468   53.0104   23.3236 H         1 UNK         0.0000 
     40 H40         1.5043   54.2795   22.7569 H         1 UNK         0.0000 
     41 H41         1.3442   50.8733   24.6590 H         1 UNK         0.0000 
     42 H42         0.9173   48.8223   23.9121 H         1 UNK         0.0000 
     43 H43        -0.6769   46.9858   23.5323 H         1 UNK         0.0000 
     44 H44        -2.9779   47.1398   24.4107 H         1 UNK         0.0000 
     45 H45        -3.6995   49.1356   25.6718 H         1 UNK         0.0000 
     46 H46        -2.1583   50.9745   26.0528 H         1 UNK         0.0000 
     47 H47         2.2136   55.6740   28.3069 H         1 UNK         0.0000 
     48 H48         1.1133   56.2784   30.4151 H         1 UNK         0.0000 
     49 H49        -0.0354   54.5367   31.7680 H         1 UNK         0.0000 
     50 H50        -0.0346   52.1925   31.0145 H         1 UNK         0.0000 
     51 H51         6.0923   53.2405   24.1724 H         1 UNK         0.0000 
     52 H52         7.5298   54.2136   24.3551 H         1 UNK         0.0000 
     53 H53         8.2413   55.2991   22.6068 H         1 UNK         0.0000 
     54 H54         9.5037   55.1730   20.5328 H         1 UNK         0.0000 
     55 H55         9.7594   56.1302   18.2876 H         1 UNK         0.0000 
     56 H56         7.8763   57.3599   17.2476 H         1 UNK         0.0000 
     57 H57         5.7464   57.6383   18.4671 H         1 UNK         0.0000 
     58 H58         5.5045   56.6837   20.7316 H         1 UNK         0.0000 
     59 H59         3.7015   54.3753   23.6535 H         1 UNK         0.0000 
@<TRIPOS>BOND
     1    1    2 1    
     2    1   38 1    
     3    1   39 1    
     4    1   40 1    
     5    2    8 2    
     6    2    3 1    
     7    3    4 1    
     8    3   59 1    
     9    4    5 2    
    10    4   27 1    
    11    5    6 1    
    12    5   25 1    
    13    6    7 1    
    14    6    8 1    
    15    6   18 1    
    16    8    9 1    
    17    9   10 2    
    18    9   11 am   BACKBONE|DICT|INTERRES
    19   11   12 1    
    20   11   41 1    
    21   12   17 ar   
    22   12   13 ar   
    23   13   14 ar   
    24   13   42 1    
    25   14   15 ar   
    26   14   43 1    
    27   15   16 ar   
    28   15   44 1    
    29   16   17 ar   
    30   16   45 1    
    31   17   46 1    
    32   18   23 ar   
    33   18   19 ar   
    34   19   20 ar   
    35   19   47 1    
    36   20   21 ar   
    37   20   48 1    
    38   21   22 ar   
    39   21   49 1    
    40   22   23 ar   
    41   22   50 1    
    42   23   24 1    
    43   25   26 3    
    44   27   28 1    
    45   28   29 1    
    46   28   51 1    
    47   28   52 1    
    48   29   30 2    
    49   29   31 am   BACKBONE|DICT|INTERRES
    50   31   32 1    
    51   31   53 1    
    52   32   37 ar   
    53   32   33 ar   
    54   33   34 ar   
    55   33   54 1    
    56   34   35 ar   
    57   34   55 1    
    58   35   36 ar   
    59   35   56 1    
    60   36   37 ar   
    61   36   57 1    
    62   37   58 1    
@<TRIPOS>SUBSTRUCTURE
     1 UNK         1 GROUP             0       ****    0 ROOT    
