@<TRIPOS>MOLECULE
ZINC15511008_74
51   53    1
SMALL
USER_CHARGES


@<TRIPOS>ATOM
      1 C1          7.1045   54.7569   24.5814 C.3       1 UNK         0.0000 
      2 C2          6.1579   54.5237   25.7379 C.ar      1 UNK         0.0000 
      3 C3          6.6185   53.9749   26.9329 C.ar      1 UNK         0.0000 
      4 C4          5.7297   53.7310   27.9756 C.ar      1 UNK         0.0000 
      5 C5          4.3654   54.0401   27.8480 C.ar      1 UNK         0.0000 
      6 C6          3.9359   54.6152   26.6448 C.ar      1 UNK         0.0000 
      7 C7          4.8156   54.8505   25.5981 C.ar      1 UNK         0.0000 
      8 N8          3.4574   53.7702   28.9057 N.pl3     1 UNK         0.0000 
      9 C9          3.7615   52.6844   29.8422 C.3       1 UNK         0.0000 
     10 S10         1.8060   54.4634   29.0543 S.o2      1 UNK         0.0000 
     11 O11         1.7105   55.6944   28.2690 O.2       1 UNK         0.0000 
     12 O12         1.4956   54.5049   30.4818 O.2       1 UNK         0.0000 
     13 C13         0.7238   53.2257   28.3466 C.ar      1 UNK         0.0000 
     14 C14        -0.2020   52.5656   29.1592 C.ar      1 UNK         0.0000 
     15 C15        -1.0109   51.5685   28.6245 C.ar      1 UNK         0.0000 
     16 C16        -0.8753   51.1941   27.2891 C.ar      1 UNK         0.0000 
     17 C17         0.0750   51.8186   26.4705 C.ar      1 UNK         0.0000 
     18 C18         0.8475   52.8581   27.0037 C.ar      1 UNK         0.0000 
     19 C19         0.3113   51.3675   25.0522 C.2       1 UNK         0.0000 
     20 O20         0.6068   52.1912   24.1817 O.2       1 UNK         0.0000 
     21 N21         0.2774   50.0262   24.8620 N.am      1 UNK         0.0000 
     22 N22         0.5758   49.4680   23.6075 N.am      1 UNK         0.0000 
     23 C23        -0.3007   49.5570   22.5782 C.2       1 UNK         0.0000 
     24 O24        -1.4309   50.0461   22.6676 O.2       1 UNK         0.0000 
     25 C25         0.1593   48.9327   21.2817 C.ar      1 UNK         0.0000 
     26 C26        -0.7676   48.2685   20.4673 C.ar      1 UNK         0.0000 
     27 C27        -0.3565   47.6576   19.2850 C.ar      1 UNK         0.0000 
     28 C28         0.9801   47.7190   18.9025 C.ar      1 UNK         0.0000 
     29 C29         1.9058   48.4053   19.6829 C.ar      1 UNK         0.0000 
     30 C30         1.5010   49.0077   20.8721 C.ar      1 UNK         0.0000 
     31 Cl31        1.4948   46.9375   17.4519 Cl        1 UNK         0.0000 
     32 H32         7.8923   55.4460   24.8817 H         1 UNK         0.0000 
     33 H33         7.5701   53.8170   24.2842 H         1 UNK         0.0000 
     34 H34         6.6030   55.1761   23.7067 H         1 UNK         0.0000 
     35 H35         7.6578   53.7182   27.0573 H         1 UNK         0.0000 
     36 H36         6.1212   53.3026   28.8843 H         1 UNK         0.0000 
     37 H37         2.9156   54.8941   26.4722 H         1 UNK         0.0000 
     38 H38         4.4463   55.2829   24.6808 H         1 UNK         0.0000 
     39 H39         4.3041   53.0741   30.7023 H         1 UNK         0.0000 
     40 H40         2.8448   52.2289   30.2172 H         1 UNK         0.0000 
     41 H41         4.3462   51.8885   29.3768 H         1 UNK         0.0000 
     42 H42        -0.3041   52.8146   30.2063 H         1 UNK         0.0000 
     43 H43        -1.7212   51.0506   29.2548 H         1 UNK         0.0000 
     44 H44        -1.4965   50.3895   26.9165 H         1 UNK         0.0000 
     45 H45         1.5737   53.3389   26.3738 H         1 UNK         0.0000 
     46 H46        -0.2393   49.3923   25.4547 H         1 UNK         0.0000 
     47 H47         1.5685   49.3316   23.4808 H         1 UNK         0.0000 
     48 H48        -1.8092   48.2089   20.7517 H         1 UNK         0.0000 
     49 H49        -1.0721   47.1360   18.6676 H         1 UNK         0.0000 
     50 H50         2.9384   48.4681   19.3645 H         1 UNK         0.0000 
     51 H51         2.2402   49.5337   21.4602 H         1 UNK         0.0000 
@<TRIPOS>BOND
     1    1    2 1    
     2    1   32 1    
     3    1   33 1    
     4    1   34 1    
     5    2    7 ar   
     6    2    3 ar   
     7    3    4 ar   
     8    3   35 1    
     9    4    5 ar   
    10    4   36 1    
    11    5    6 ar   
    12    5    8 1    
    13    6    7 ar   
    14    6   37 1    
    15    7   38 1    
    16    8    9 1    
    17    8   10 1    
    18    9   39 1    
    19    9   40 1    
    20    9   41 1    
    21   10   11 2    
    22   10   12 2    
    23   10   13 1    
    24   13   18 ar   
    25   13   14 ar   
    26   14   15 ar   
    27   14   42 1    
    28   15   16 ar   
    29   15   43 1    
    30   16   17 ar   
    31   16   44 1    
    32   17   18 ar   
    33   17   19 1    
    34   18   45 1    
    35   19   20 2    
    36   19   21 am   BACKBONE|DICT|INTERRES
    37   21   22 1    
    38   21   46 1    
    39   22   23 am   BACKBONE|DICT|INTERRES
    40   22   47 1    
    41   23   24 2    
    42   23   25 1    
    43   25   30 ar   
    44   25   26 ar   
    45   26   27 ar   
    46   26   48 1    
    47   27   28 ar   
    48   27   49 1    
    49   28   29 ar   
    50   28   31 1    
    51   29   30 ar   
    52   29   50 1    
    53   30   51 1    
@<TRIPOS>SUBSTRUCTURE
     1 UNK         1 GROUP             0       ****    0 ROOT    
