@<TRIPOS>MOLECULE
ZINC08822617_4212
45   48    1
SMALL
USER_CHARGES


@<TRIPOS>ATOM
      1 C1          2.1386   55.0019   28.8790 C.ar      1 UNK         0.0000 
      2 C2          1.4524   55.1001   30.0813 C.ar      1 UNK         0.0000 
      3 C3          0.7475   53.9986   30.5613 C.ar      1 UNK         0.0000 
      4 C4          0.6793   52.8154   29.8341 C.ar      1 UNK         0.0000 
      5 C5          1.3507   52.7217   28.6199 C.ar      1 UNK         0.0000 
      6 C6          2.1007   53.8078   28.1473 C.ar      1 UNK         0.0000 
      7 C7          2.8177   53.6969   26.8307 C.2       1 UNK         0.0000 
      8 O8          2.2919   53.0706   25.9101 O.2       1 UNK         0.0000 
      9 N9          4.0397   54.2774   26.7899 N.am      1 UNK         0.0000 
     10 C10         4.8627   54.3973   25.6825 C.2       1 UNK         0.0000 
     11 N11         6.0938   54.8387   25.7612 N.2       1 UNK         0.0000 
     12 N12         6.6892   54.9870   24.5119 N.2       1 UNK         0.0000 
     13 C13         5.8944   54.6726   23.5158 C.2       1 UNK         0.0000 
     14 S14         4.3417   54.0996   24.0504 S.3       1 UNK         0.0000 
     15 S15         6.3049   54.8970   21.8088 S.3       1 UNK         0.0000 
     16 C16         4.7579   54.4168   20.9380 C.3       1 UNK         0.0000 
     17 C17         4.4088   52.9229   20.8949 C.2       1 UNK         0.0000 
     18 O18         5.1044   52.0960   21.4835 O.2       1 UNK         0.0000 
     19 N19         3.2812   52.6166   20.2232 N.am      1 UNK         0.0000 
     20 C20         2.6935   51.3478   20.1204 C.ar      1 UNK         0.0000 
     21 C21         2.6459   50.4448   21.1974 C.ar      1 UNK         0.0000 
     22 C22         2.0541   49.1922   21.0424 C.ar      1 UNK         0.0000 
     23 C23         1.5003   48.8366   19.8141 C.ar      1 UNK         0.0000 
     24 C24         1.5279   49.7455   18.7445 C.ar      1 UNK         0.0000 
     25 C25         2.1062   51.0028   18.9011 C.ar      1 UNK         0.0000 
     26 O26         0.9598   49.4505   17.5213 O.3       1 UNK         0.0000 
     27 C27         0.8911   48.0456   17.2641 C.3       1 UNK         0.0000 
     28 C28         0.2615   47.3217   18.4800 C.3       1 UNK         0.0000 
     29 O29         1.0149   47.5493   19.6800 O.3       1 UNK         0.0000 
     30 Br30       -0.0852   54.0961   32.2606 Br        1 UNK         0.0000 
     31 H31         2.6834   55.8644   28.5209 H         1 UNK         0.0000 
     32 H32         1.4875   56.0146   30.6570 H         1 UNK         0.0000 
     33 H33         0.1184   51.9724   30.2152 H         1 UNK         0.0000 
     34 H34         1.2939   51.7998   28.0584 H         1 UNK         0.0000 
     35 H35         4.4360   54.5750   27.6670 H         1 UNK         0.0000 
     36 H36         4.8445   54.7688   19.9109 H         1 UNK         0.0000 
     37 H37         3.9101   54.9286   21.3859 H         1 UNK         0.0000 
     38 H38         2.8419   53.3491   19.6832 H         1 UNK         0.0000 
     39 H39         3.0755   50.7029   22.1543 H         1 UNK         0.0000 
     40 H40         2.0564   48.4969   21.8672 H         1 UNK         0.0000 
     41 H41         2.1273   51.6848   18.0636 H         1 UNK         0.0000 
     42 H42         0.3096   47.8706   16.3574 H         1 UNK         0.0000 
     43 H43         1.8998   47.6628   17.0927 H         1 UNK         0.0000 
     44 H44        -0.7578   47.6852   18.6259 H         1 UNK         0.0000 
     45 H45         0.2057   46.2490   18.2901 H         1 UNK         0.0000 
@<TRIPOS>BOND
     1    1    6 ar   
     2    1    2 ar   
     3    1   31 1    
     4    2    3 ar   
     5    2   32 1    
     6    3    4 ar   
     7    3   30 1    
     8    4    5 ar   
     9    4   33 1    
    10    5    6 ar   
    11    5   34 1    
    12    6    7 1    
    13    7    8 2    
    14    7    9 am   BACKBONE|DICT|INTERRES
    15    9   10 am   BACKBONE|DICT|INTERRES
    16    9   35 1    
    17   10   14 1    
    18   10   11 2    
    19   11   12 1    
    20   12   13 2    
    21   13   14 1    
    22   13   15 1    
    23   15   16 1    
    24   16   17 1    
    25   16   36 1    
    26   16   37 1    
    27   17   18 2    
    28   17   19 am   BACKBONE|DICT|INTERRES
    29   19   20 1    
    30   19   38 1    
    31   20   25 ar   
    32   20   21 ar   
    33   21   22 ar   
    34   21   39 1    
    35   22   23 ar   
    36   22   40 1    
    37   23   29 1    
    38   23   24 ar   
    39   24   25 ar   
    40   24   26 1    
    41   25   41 1    
    42   26   27 1    
    43   27   28 1    
    44   27   42 1    
    45   27   43 1    
    46   28   29 1    
    47   28   44 1    
    48   28   45 1    
@<TRIPOS>SUBSTRUCTURE
     1 UNK         1 GROUP             0       ****    0 ROOT    
