ZINC21816263_3767
                    3D
 Schrodinger Suite 2024-2.
 38 39  0  0  1  0            999 V2000
    5.6649   53.7052   23.9298 C   0  0  0  0  0  0
    4.3554   54.1161   24.6562 C   0  0  2  0  0  0
    4.1114   55.1494   24.4213 H   0  0  0  0  0  0
    4.6536   54.1027   26.1826 C   0  0  0  0  0  0
    3.4209   54.3819   27.0411 C   0  0  0  0  0  0
    2.2938   53.4145   26.6784 C   0  0  0  0  0  0
    1.9278   53.4960   25.1779 C   0  0  1  0  0  0
    1.5431   54.4964   24.9786 H   0  0  0  0  0  0
    3.1196   53.2977   24.2652 N   0  0  0  0  0  0
    2.7173   52.8489   22.5443 S   0  0  0  0  0  0
    2.7019   51.3864   22.4816 O   0  0  0  0  0  0
    1.5051   53.6003   22.2017 O   0  0  0  0  0  0
    3.9548   53.4030   21.3368 C   0  0  0  0  0  0
    4.4568   54.6881   21.4361 C   0  0  0  0  0  0
    5.4433   55.1709   20.5715 C   0  0  0  0  0  0
    5.8754   54.3714   19.5189 C   0  0  0  0  0  0
    5.3347   53.1018   19.3601 C   0  0  0  0  0  0
    4.3933   52.6090   20.2706 C   0  0  0  0  0  0
    3.9072   51.3180   20.0824 N   0  0  0  0  0  0
    7.0712   54.9598   18.4180 Cl  0  0  0  0  0  0
    0.8148   52.4512   24.9020 C   0  0  0  0  0  0
    6.4388   53.3591   24.6184 H   0  0  0  0  0  0
    6.1178   54.5459   23.4134 H   0  0  0  0  0  0
    5.5372   52.8852   23.2253 H   0  0  0  0  0  0
    5.0505   53.1317   26.4862 H   0  0  0  0  0  0
    5.3887   54.8717   26.4246 H   0  0  0  0  0  0
    3.6690   54.2936   28.0998 H   0  0  0  0  0  0
    3.1072   55.4068   26.8879 H   0  0  0  0  0  0
    2.6240   52.4088   26.9362 H   0  0  0  0  0  0
    1.4250   53.6565   27.2951 H   0  0  0  0  0  0
    4.0499   55.2966   22.2209 H   0  0  0  0  0  0
    5.8284   56.1743   20.6831 H   0  0  0  0  0  0
    5.6584   52.4966   18.5228 H   0  0  0  0  0  0
    4.2695   50.7967   19.2715 H   0  0  0  0  0  0
    3.3237   50.9046   20.7972 H   0  0  0  0  0  0
    0.0607   52.4619   25.6895 H   0  0  0  0  0  0
    0.2613   52.6450   23.9854 H   0  0  0  0  0  0
    1.2100   51.4352   24.8471 H   0  0  0  0  0  0
  1  2  1  0  0  0
  1 22  1  0  0  0
  1 23  1  0  0  0
  1 24  1  0  0  0
  2  3  1  0  0  0
  2  9  1  0  0  0
  2  4  1  0  0  0
  4  5  1  0  0  0
  4 25  1  0  0  0
  4 26  1  0  0  0
  5  6  1  0  0  0
  5 27  1  0  0  0
  5 28  1  0  0  0
  6  7  1  0  0  0
  6 29  1  0  0  0
  6 30  1  0  0  0
  7  8  1  0  0  0
  7  9  1  0  0  0
  7 21  1  0  0  0
  9 10  1  0  0  0
 10 11  2  0  0  0
 10 12  2  0  0  0
 10 13  1  0  0  0
 13 18  2  0  0  0
 13 14  1  0  0  0
 14 15  2  0  0  0
 14 31  1  0  0  0
 15 16  1  0  0  0
 15 32  1  0  0  0
 16 17  2  0  0  0
 16 20  1  0  0  0
 17 18  1  0  0  0
 17 33  1  0  0  0
 18 19  1  0  0  0
 19 34  1  0  0  0
 19 35  1  0  0  0
 21 36  1  0  0  0
 21 37  1  0  0  0
 21 38  1  0  0  0
M  END
> <i_i_glide_confnum>
5

> <i_i_glide_lignum>
3768

> <i_i_glide_posenum>
73

> <i_i_glide_rotatable_bonds>
2

> <i_m_Source_File_Index>
2805

> <b_m_subgroup_collapsed>
0

> <r_i_docking_score>
-1.55193

> <r_i_glide_ecoul>
-2.05045

> <r_i_glide_eff_state_penalty>
0

> <r_i_glide_einternal>
5.28763

> <r_i_glide_emodel>
-9.39327

> <r_i_glide_energy>
-18.0759

> <r_i_glide_erotb>
0.401697

> <r_i_glide_esite>
-0.121711

> <r_i_glide_evdw>
-16.0254

> <r_i_glide_gscore>
-1.55193

> <r_i_glide_hbond>
-0.16

> <r_i_glide_ligand_efficiency>
-0.0816805

> <r_i_glide_ligand_efficiency_ln>
-0.393448

> <r_i_glide_ligand_efficiency_sa>
-0.217956

> <r_i_glide_lipo>
-1.65715

> <r_i_glide_metal>
0

> <r_i_glide_rewards>
1.09407

> <s_i_glide_gridfile>
wee1_glide-grid

> <s_m_Source_File>
wee1_decoys_glide_SP.sdf

> <s_m_Source_Path>
/Users/zhangxujun/Desktop

> <s_m_entry_id>
3080

> <s_m_entry_name>
wee1_decoys_glide_SP.2805

> <s_m_subgroup_title>
wee1_decoys_glide_SP

> <s_m_subgroupid>
wee1_decoys_glide_SP


$$$$
