ZINC08618075_4364
                    3D
 Schrodinger Suite 2024-2.
 47 50  0  0  1  0            999 V2000
    4.6522   54.5601   24.1588 C   0  0  0  0  0  0
    3.3406   54.1898   24.5572 O   0  0  0  0  0  0
    3.1036   53.6969   25.7917 C   0  0  0  0  0  0
    3.9704   53.7010   26.6713 O   0  0  0  0  0  0
    1.7156   53.1407   25.9818 C   0  0  0  0  0  0
    1.2588   52.7027   27.2029 C   0  0  0  0  0  0
   -0.0437   52.1992   27.4196 N   0  0  0  0  0  0
   -0.5590   51.7471   28.6119 C   0  0  0  0  0  0
    0.0574   51.6969   29.6808 O   0  0  0  0  0  0
   -1.9441   51.3460   28.4762 C   0  0  0  0  0  0
   -2.6405   50.8967   29.5509 C   0  0  0  0  0  0
   -4.0428   50.4257   29.6439 C   0  0  0  0  0  0
   -4.6718   50.4967   30.8916 C   0  0  0  0  0  0
   -5.9809   50.0551   31.0547 C   0  0  0  0  0  0
   -6.6686   49.5293   29.9636 C   0  0  0  0  0  0
   -6.0505   49.4336   28.7194 C   0  0  0  0  0  0
   -4.7381   49.8701   28.5618 C   0  0  0  0  0  0
   -8.2928   48.9842   30.1571 Cl  0  0  0  0  0  0
   -2.4808   51.5905   26.8250 S   0  0  0  0  0  0
   -0.8940   52.1854   26.3473 C   0  0  0  0  0  0
   -0.5907   52.5777   25.0911 C   0  0  0  0  0  0
    0.8070   53.0786   24.7140 C   0  0  2  0  0  0
    0.6827   54.0988   24.3496 H   0  0  0  0  0  0
    1.3795   52.3006   23.5205 C   0  0  0  0  0  0
    1.7527   52.9834   22.3585 C   0  0  0  0  0  0
    2.2821   52.2915   21.2772 C   0  0  0  0  0  0
    2.4272   50.9096   21.3484 C   0  0  0  0  0  0
    2.0314   50.2121   22.4904 C   0  0  0  0  0  0
    1.5043   50.9078   23.5758 C   0  0  0  0  0  0
    3.1028   50.0696   20.0077 Cl  0  0  0  0  0  0
   -1.5615   52.5227   24.0440 C   0  0  0  0  0  0
   -2.3340   52.4982   23.1814 N   0  0  0  0  0  0
    2.0695   52.7486   28.3247 N   0  0  0  0  0  0
    4.6380   54.8958   23.1215 H   0  0  0  0  0  0
    5.0447   55.3649   24.7816 H   0  0  0  0  0  0
    5.3349   53.7126   24.2260 H   0  0  0  0  0  0
   -2.1148   50.8316   30.4991 H   0  0  0  0  0  0
   -4.1421   50.8953   31.7474 H   0  0  0  0  0  0
   -6.4534   50.1131   32.0235 H   0  0  0  0  0  0
   -6.5805   49.0075   27.8801 H   0  0  0  0  0  0
   -4.2660   49.7409   27.6019 H   0  0  0  0  0  0
    1.6562   54.0578   22.2900 H   0  0  0  0  0  0
    2.5798   52.8284   20.3863 H   0  0  0  0  0  0
    2.1480   49.1384   22.5394 H   0  0  0  0  0  0
    1.2085   50.3641   24.4620 H   0  0  0  0  0  0
    3.0296   53.0654   28.2469 H   0  0  0  0  0  0
    1.7256   52.4182   29.2216 H   0  0  0  0  0  0
  1  2  1  0  0  0
  1 34  1  0  0  0
  1 35  1  0  0  0
  1 36  1  0  0  0
  2  3  1  0  0  0
  3  4  2  0  0  0
  3  5  1  0  0  0
  5 22  1  0  0  0
  5  6  2  0  0  0
  6  7  1  0  0  0
  6 33  1  0  0  0
  7 20  1  0  0  0
  7  8  1  0  0  0
  8  9  2  0  0  0
  8 10  1  0  0  0
 10 11  2  0  0  0
 10 19  1  0  0  0
 11 12  1  0  0  0
 11 37  1  0  0  0
 12 17  2  0  0  0
 12 13  1  0  0  0
 13 14  2  0  0  0
 13 38  1  0  0  0
 14 15  1  0  0  0
 14 39  1  0  0  0
 15 16  2  0  0  0
 15 18  1  0  0  0
 16 17  1  0  0  0
 16 40  1  0  0  0
 17 41  1  0  0  0
 19 20  1  0  0  0
 20 21  2  0  0  0
 21 22  1  0  0  0
 21 31  1  0  0  0
 22 23  1  0  0  0
 22 24  1  0  0  0
 24 29  2  0  0  0
 24 25  1  0  0  0
 25 26  2  0  0  0
 25 42  1  0  0  0
 26 27  1  0  0  0
 26 43  1  0  0  0
 27 28  2  0  0  0
 27 30  1  0  0  0
 28 29  1  0  0  0
 28 44  1  0  0  0
 29 45  1  0  0  0
 31 32  3  0  0  0
 33 46  1  0  0  0
 33 47  1  0  0  0
M  END
> <i_i_glide_confnum>
3

> <i_i_glide_lignum>
4365

> <i_i_glide_posenum>
318

> <i_i_glide_rotatable_bonds>
5

> <i_m_Source_File_Index>
2163

> <b_m_subgroup_collapsed>
0

> <r_i_docking_score>
-3.81153

> <r_i_glide_ecoul>
-3.36195

> <r_i_glide_eff_state_penalty>
0

> <r_i_glide_einternal>
1.4568

> <r_i_glide_emodel>
-50.0905

> <r_i_glide_energy>
-40.9238

> <r_i_glide_erotb>
0.173123

> <r_i_glide_esite>
-0.00111996

> <r_i_glide_evdw>
-37.5618

> <r_i_glide_gscore>
-3.81153

> <r_i_glide_hbond>
0

> <r_i_glide_ligand_efficiency>
-0.11911

> <r_i_glide_ligand_efficiency_ln>
-0.853506

> <r_i_glide_ligand_efficiency_sa>
-0.378152

> <r_i_glide_lipo>
-1.11454

> <r_i_glide_metal>
0

> <r_i_glide_rewards>
-0.486617

> <s_i_glide_gridfile>
wee1_glide-grid

> <s_m_Source_File>
wee1_decoys_glide_SP.sdf

> <s_m_Source_Path>
/Users/zhangxujun/Desktop

> <s_m_entry_id>
2438

> <s_m_entry_name>
wee1_decoys_glide_SP.2163

> <s_m_subgroup_title>
wee1_decoys_glide_SP

> <s_m_subgroupid>
wee1_decoys_glide_SP


$$$$
