ZINC06394712_1469
                    3D
 Schrodinger Suite 2024-2.
 40 43  0  0  1  0            999 V2000
    1.8846   50.3470   21.7364 C   0  0  0  0  0  0
    2.7490   51.5013   21.2822 C   0  0  0  0  0  0
    3.1186   52.4691   22.0071 N   0  0  0  0  0  0
    3.9757   53.3061   21.3489 N   0  0  0  0  0  0
    4.1631   52.8626   19.9454 C   0  0  1  0  0  0
    3.2995   51.5978   19.8985 C   0  0  0  0  0  0
    3.7655   53.8833   18.8364 C   0  0  0  0  0  0
    3.9334   53.3993   17.6032 F   0  0  0  0  0  0
    4.3798   55.0653   18.8931 F   0  0  0  0  0  0
    5.5046   52.4966   19.6809 O   0  0  0  0  0  0
    4.8175   54.1773   21.9992 C   0  0  0  0  0  0
    5.6489   54.8625   21.3946 O   0  0  0  0  0  0
    4.8209   54.2379   23.4607 C   0  0  0  0  0  0
    3.7275   54.0973   24.3427 C   0  0  0  0  0  0
    4.2124   54.1958   25.6381 C   0  0  0  0  0  0
    5.5332   54.4969   25.4393 N   0  0  0  0  0  0
    6.1965   54.6518   26.1829 H   0  0  0  0  0  0
    5.8968   54.5546   24.1564 N   0  0  0  0  0  0
    3.5669   54.0116   26.9694 C   0  0  0  0  0  0
    4.3163   54.0980   28.1624 C   0  0  0  0  0  0
    3.7203   53.8593   29.4071 C   0  0  0  0  0  0
    2.3666   53.5472   29.4229 C   0  0  0  0  0  0
    1.6292   53.4746   28.2781 C   0  0  0  0  0  0
    2.1973   53.6957   27.0295 C   0  0  0  0  0  0
    0.3527   53.1217   28.5823 O   0  0  0  0  0  0
    0.2749   53.1258   29.9840 C   0  0  0  0  0  0
    1.5824   53.2296   30.4828 O   0  0  0  0  0  0
    1.3529   49.8989   20.8971 H   0  0  0  0  0  0
    2.4936   49.5710   22.2017 H   0  0  0  0  0  0
    1.1436   50.6727   22.4670 H   0  0  0  0  0  0
    2.4798   51.6674   19.1823 H   0  0  0  0  0  0
    3.8720   50.6956   19.6817 H   0  0  0  0  0  0
    2.7044   54.0967   18.8819 H   0  0  0  0  0  0
    5.5044   51.8358   18.9628 H   0  0  0  0  0  0
    2.7031   53.8933   24.0698 H   0  0  0  0  0  0
    5.3710   54.3290   28.1344 H   0  0  0  0  0  0
    4.3042   53.9039   30.3130 H   0  0  0  0  0  0
    1.6021   53.6078   26.1332 H   0  0  0  0  0  0
   -0.1963   52.2088   30.3453 H   0  0  0  0  0  0
   -0.2979   53.9956   30.3088 H   0  0  0  0  0  0
  1  2  1  0  0  0
  1 28  1  0  0  0
  1 29  1  0  0  0
  1 30  1  0  0  0
  2  6  1  0  0  0
  2  3  2  0  0  0
  3  4  1  0  0  0
  4  5  1  0  0  0
  4 11  1  0  0  0
  5  6  1  0  0  0
  5  7  1  0  0  0
  5 10  1  0  0  0
  6 31  1  0  0  0
  6 32  1  0  0  0
  7  8  1  0  0  0
  7  9  1  0  0  0
  7 33  1  0  0  0
 10 34  1  0  0  0
 11 12  2  0  0  0
 11 13  1  0  0  0
 13 18  2  0  0  0
 13 14  1  0  0  0
 14 15  2  0  0  0
 14 35  1  0  0  0
 15 16  1  0  0  0
 15 19  1  0  0  0
 16 17  1  0  0  0
 16 18  1  0  0  0
 19 24  2  0  0  0
 19 20  1  0  0  0
 20 21  2  0  0  0
 20 36  1  0  0  0
 21 22  1  0  0  0
 21 37  1  0  0  0
 22 27  1  0  0  0
 22 23  2  0  0  0
 23 24  1  0  0  0
 23 25  1  0  0  0
 24 38  1  0  0  0
 25 26  1  0  0  0
 26 27  1  0  0  0
 26 39  1  0  0  0
 26 40  1  0  0  0
M  END
> <i_i_glide_confnum>
8

> <i_i_glide_lignum>
1470

> <i_i_glide_posenum>
16

> <i_i_glide_rotatable_bonds>
5

> <i_m_Source_File_Index>
606

> <b_m_subgroup_collapsed>
0

> <r_i_docking_score>
-5.93189

> <r_i_glide_ecoul>
-7.20143

> <r_i_glide_eff_state_penalty>
0

> <r_i_glide_einternal>
5.3303

> <r_i_glide_emodel>
-56.7126

> <r_i_glide_energy>
-42.8793

> <r_i_glide_erotb>
0.434532

> <r_i_glide_esite>
-0.0677578

> <r_i_glide_evdw>
-35.6779

> <r_i_glide_gscore>
-5.93189

> <r_i_glide_hbond>
-0.0643313

> <r_i_glide_ligand_efficiency>
-0.22815

> <r_i_glide_ligand_efficiency_ln>
-1.39309

> <r_i_glide_ligand_efficiency_sa>
-0.675892

> <r_i_glide_lipo>
-1.81769

> <r_i_glide_metal>
0

> <r_i_glide_rewards>
-1.55254

> <s_i_glide_gridfile>
wee1_glide-grid

> <s_m_Source_File>
wee1_decoys_glide_SP.sdf

> <s_m_Source_Path>
/Users/zhangxujun/Desktop

> <s_m_entry_id>
881

> <s_m_entry_name>
wee1_decoys_glide_SP.606

> <s_m_subgroup_title>
wee1_decoys_glide_SP

> <s_m_subgroupid>
wee1_decoys_glide_SP


$$$$
