ZINC14468865_4375
                    3D
 Schrodinger Suite 2024-2.
 66 70  0  0  1  0            999 V2000
    4.7803   53.5378   17.8645 C   0  0  0  0  0  0
    4.6078   53.6275   19.3729 C   0  0  0  0  0  0
    5.5058   54.4010   20.1120 C   0  0  0  0  0  0
    5.3768   54.5091   21.4964 C   0  0  0  0  0  0
    4.3245   53.8747   22.1554 C   0  0  0  0  0  0
    3.4326   53.0787   21.4215 C   0  0  0  0  0  0
    3.5690   52.9479   20.0350 C   0  0  0  0  0  0
    2.5815   52.0774   19.2707 C   0  0  0  0  0  0
    4.2585   54.0242   23.5483 N   0  0  0  0  0  0
    3.1642   53.9888   24.3396 C   0  0  0  0  0  0
    2.0074   53.9620   23.9090 O   0  0  0  0  0  0
    3.4548   53.9315   25.8321 C   0  0  0  0  0  0
    4.6110   54.5509   26.3363 C   0  0  0  0  0  0
    4.9307   54.4923   27.6867 C   0  0  0  0  0  0
    4.0941   53.8248   28.5693 C   0  0  0  0  0  0
    2.9328   53.1903   28.1153 C   0  0  0  0  0  0
    2.6160   53.2387   26.7389 C   0  0  0  0  0  0
    1.4405   52.5749   26.2822 N   0  0  0  0  0  0
    0.4390   51.9358   27.1678 C   0  0  1  0  0  0
    0.6999   50.8770   27.2267 H   0  0  0  0  0  0
    0.5932   52.5665   28.5813 C   0  0  2  0  0  0
    0.3752   53.6318   28.4732 H   0  0  0  0  0  0
    2.0353   52.3791   29.0362 C   0  0  2  0  0  0
    2.3539   51.3416   28.9223 H   0  0  0  0  0  0
    1.9432   52.6905   30.5115 C   0  0  0  0  0  0
    0.6804   52.4967   30.9377 C   0  0  0  0  0  0
   -0.2247   52.1004   29.7849 C   0  0  0  0  0  0
   -0.9999   51.9354   26.6081 C   0  0  0  0  0  0
   -2.0483   51.3448   27.3243 C   0  0  0  0  0  0
   -3.3622   51.4362   26.8767 C   0  0  0  0  0  0
   -3.6524   52.0552   25.6615 C   0  0  0  0  0  0
   -2.6009   52.4966   24.8450 C   0  0  0  0  0  0
   -1.2934   52.4790   25.3466 C   0  0  0  0  0  0
   -2.8782   52.9204   23.5614 O   0  0  0  0  0  0
   -2.0284   52.3877   22.5468 C   0  0  0  0  0  0
   -4.9727   52.1744   25.2907 O   0  0  0  0  0  0
   -5.5527   53.4040   25.2800 C   0  0  0  0  0  0
   -5.0256   54.4840   25.5742 O   0  0  0  0  0  0
   -7.0159   53.3365   24.8773 C   0  0  0  0  0  0
    4.8754   52.4969   17.5533 H   0  0  0  0  0  0
    3.9087   53.9502   17.3570 H   0  0  0  0  0  0
    5.6650   54.0680   17.5146 H   0  0  0  0  0  0
    6.3177   54.9130   19.6192 H   0  0  0  0  0  0
    6.0873   55.1067   22.0468 H   0  0  0  0  0  0
    2.6333   52.5543   21.9240 H   0  0  0  0  0  0
    2.0451   52.6755   18.5359 H   0  0  0  0  0  0
    3.1048   51.2870   18.7301 H   0  0  0  0  0  0
    1.8494   51.6074   19.9264 H   0  0  0  0  0  0
    5.1465   54.1450   24.0110 H   0  0  0  0  0  0
    5.2813   55.0961   25.6869 H   0  0  0  0  0  0
    5.8256   54.9712   28.0559 H   0  0  0  0  0  0
    4.3646   53.7848   29.6146 H   0  0  0  0  0  0
    1.2469   52.5224   25.2915 H   0  0  0  0  0  0
    2.8044   52.8968   31.1246 H   0  0  0  0  0  0
    0.3172   52.5587   31.9565 H   0  0  0  0  0  0
   -1.1884   52.6053   29.8221 H   0  0  0  0  0  0
   -0.4166   51.0275   29.7754 H   0  0  0  0  0  0
   -1.8754   50.8177   28.2473 H   0  0  0  0  0  0
   -4.1603   51.0283   27.4811 H   0  0  0  0  0  0
   -0.5068   52.8895   24.7360 H   0  0  0  0  0  0
   -2.4947   52.5021   21.5681 H   0  0  0  0  0  0
   -1.0630   52.8961   22.5255 H   0  0  0  0  0  0
   -1.8528   51.3193   22.6863 H   0  0  0  0  0  0
   -7.5700   52.7245   25.5877 H   0  0  0  0  0  0
   -7.1141   52.8948   23.8861 H   0  0  0  0  0  0
   -7.4558   54.3346   24.8552 H   0  0  0  0  0  0
  1  2  1  0  0  0
  1 40  1  0  0  0
  1 41  1  0  0  0
  1 42  1  0  0  0
  2  7  2  0  0  0
  2  3  1  0  0  0
  3  4  2  0  0  0
  3 43  1  0  0  0
  4  5  1  0  0  0
  4 44  1  0  0  0
  5  6  2  0  0  0
  5  9  1  0  0  0
  6  7  1  0  0  0
  6 45  1  0  0  0
  7  8  1  0  0  0
  8 46  1  0  0  0
  8 47  1  0  0  0
  8 48  1  0  0  0
  9 10  1  0  0  0
  9 49  1  0  0  0
 10 11  2  0  0  0
 10 12  1  0  0  0
 12 17  2  0  0  0
 12 13  1  0  0  0
 13 14  2  0  0  0
 13 50  1  0  0  0
 14 15  1  0  0  0
 14 51  1  0  0  0
 15 16  2  0  0  0
 15 52  1  0  0  0
 16 23  1  0  0  0
 16 17  1  0  0  0
 17 18  1  0  0  0
 18 19  1  0  0  0
 18 53  1  0  0  0
 19 20  1  0  0  0
 19 21  1  0  0  0
 19 28  1  0  0  0
 21 22  1  0  0  0
 21 27  1  0  0  0
 21 23  1  0  0  0
 23 24  1  0  0  0
 23 25  1  0  0  0
 25 26  2  0  0  0
 25 54  1  0  0  0
 26 27  1  0  0  0
 26 55  1  0  0  0
 27 56  1  0  0  0
 27 57  1  0  0  0
 28 33  2  0  0  0
 28 29  1  0  0  0
 29 30  2  0  0  0
 29 58  1  0  0  0
 30 31  1  0  0  0
 30 59  1  0  0  0
 31 32  2  0  0  0
 31 36  1  0  0  0
 32 33  1  0  0  0
 32 34  1  0  0  0
 33 60  1  0  0  0
 34 35  1  0  0  0
 35 61  1  0  0  0
 35 62  1  0  0  0
 35 63  1  0  0  0
 36 37  1  0  0  0
 37 38  2  0  0  0
 37 39  1  0  0  0
 39 64  1  0  0  0
 39 65  1  0  0  0
 39 66  1  0  0  0
M  END
> <i_i_glide_confnum>
44

> <i_i_glide_lignum>
4376

> <i_i_glide_posenum>
254

> <i_i_glide_rotatable_bonds>
7

> <i_m_Source_File_Index>
2044

> <b_m_subgroup_collapsed>
0

> <r_i_docking_score>
-5.54533

> <r_i_glide_ecoul>
-2.47189

> <r_i_glide_eff_state_penalty>
0

> <r_i_glide_einternal>
9.43898

> <r_i_glide_emodel>
-61.7391

> <r_i_glide_energy>
-50.3639

> <r_i_glide_erotb>
0.43574

> <r_i_glide_esite>
0

> <r_i_glide_evdw>
-47.892

> <r_i_glide_gscore>
-5.54533

> <r_i_glide_hbond>
-0.32

> <r_i_glide_ligand_efficiency>
-0.154037

> <r_i_glide_ligand_efficiency_ln>
-1.20984

> <r_i_glide_ligand_efficiency_sa>
-0.508619

> <r_i_glide_lipo>
-2.28284

> <r_i_glide_metal>
0

> <r_i_glide_rewards>
-0.612846

> <s_i_glide_gridfile>
wee1_glide-grid

> <s_m_Source_File>
wee1_decoys_glide_SP.sdf

> <s_m_Source_Path>
/Users/zhangxujun/Desktop

> <s_m_entry_id>
2319

> <s_m_entry_name>
wee1_decoys_glide_SP.2044

> <s_m_subgroup_title>
wee1_decoys_glide_SP

> <s_m_subgroupid>
wee1_decoys_glide_SP


$$$$
