ZINC23334555_116
                    3D
 Schrodinger Suite 2024-2.
 49 51  0  0  1  0            999 V2000
    5.9956   54.0138   22.9745 C   0  0  0  0  0  0
    5.2340   54.3486   21.6824 C   0  0  0  0  0  0
    4.0379   53.5837   21.5481 O   0  0  0  0  0  0
    4.0711   52.3061   21.1145 C   0  0  0  0  0  0
    5.1045   51.6944   20.8802 O   0  0  0  0  0  0
    2.7406   51.7362   20.9036 C   0  0  0  0  0  0
    1.4943   52.0584   21.4681 C   0  0  0  0  0  0
    0.4442   51.3345   20.8431 C   0  0  0  0  0  0
    0.9116   50.4134   19.9037 C   0  0  0  0  0  0
    2.6248   50.4555   19.7360 S   0  0  0  0  0  0
    0.2006   49.5366   19.1288 N   0  0  0  0  0  0
   -0.9712   51.5325   21.1404 C   0  0  0  0  0  0
   -2.0916   51.6958   21.3772 N   0  0  0  0  0  0
    1.2981   53.0800   22.5783 C   0  0  0  0  0  0
    1.4991   52.4302   23.9679 N   0  3  0  0  0  0
    1.9651   53.5221   24.9508 C   0  0  0  0  0  0
    2.0966   52.9166   26.3510 C   0  0  0  0  0  0
    0.8047   52.3945   26.8222 N   0  0  0  0  0  0
    0.3559   51.2913   25.9574 C   0  0  0  0  0  0
    0.2000   51.7503   24.4880 C   0  0  0  0  0  0
    0.8760   51.9505   28.2235 C   0  0  0  0  0  0
    0.7807   53.0813   29.2420 C   0  0  0  0  0  0
    0.2549   53.0318   30.5352 C   0  0  0  0  0  0
    0.3045   54.2439   31.2310 C   0  0  0  0  0  0
    0.8722   55.2578   30.4813 C   0  0  0  0  0  0
    1.3408   54.7094   28.9320 S   0  0  0  0  0  0
    1.1506   56.8966   30.8817 Cl  0  0  0  0  0  0
    6.8771   54.6468   23.0811 H   0  0  0  0  0  0
    6.3351   52.9780   22.9679 H   0  0  0  0  0  0
    5.3689   54.1612   23.8539 H   0  0  0  0  0  0
    4.9555   55.4000   21.6815 H   0  0  0  0  0  0
    5.8774   54.2094   20.8111 H   0  0  0  0  0  0
   -0.8077   49.4944   19.1557 H   0  0  0  0  0  0
    0.6593   48.9564   18.4393 H   0  0  0  0  0  0
    1.9362   53.9578   22.4989 H   0  0  0  0  0  0
    0.3045   53.4742   22.6418 H   0  0  0  0  0  0
    2.9428   53.8551   24.5967 H   0  0  0  0  0  0
    1.2515   54.3480   24.9113 H   0  0  0  0  0  0
    2.7984   52.0968   26.3512 H   0  0  0  0  0  0
    2.5367   53.6695   26.9934 H   0  0  0  0  0  0
   -0.5949   50.8832   26.3084 H   0  0  0  0  0  0
    1.1029   50.4990   26.0061 H   0  0  0  0  0  0
   -0.6206   52.4639   24.3907 H   0  0  0  0  0  0
    0.0300   50.8874   23.8426 H   0  0  0  0  0  0
    0.0638   51.2512   28.4356 H   0  0  0  0  0  0
    1.7900   51.3735   28.3752 H   0  0  0  0  0  0
   -0.1636   52.1332   30.9699 H   0  0  0  0  0  0
   -0.0609   54.3676   32.2402 H   0  0  0  0  0  0
    2.2360   51.7377   23.9317 H   0  0  0  0  0  0
  1  2  1  0  0  0
  1 28  1  0  0  0
  1 29  1  0  0  0
  1 30  1  0  0  0
  2  3  1  0  0  0
  2 31  1  0  0  0
  2 32  1  0  0  0
  3  4  1  0  0  0
  4  5  2  0  0  0
  4  6  1  0  0  0
  6 10  1  0  0  0
  6  7  2  0  0  0
  7  8  1  0  0  0
  7 14  1  0  0  0
  8  9  2  0  0  0
  8 12  1  0  0  0
  9 10  1  0  0  0
  9 11  1  0  0  0
 11 33  1  0  0  0
 11 34  1  0  0  0
 12 13  3  0  0  0
 14 15  1  0  0  0
 14 35  1  0  0  0
 14 36  1  0  0  0
 15 20  1  0  0  0
 15 16  1  0  0  0
 15 49  1  0  0  0
 16 17  1  0  0  0
 16 37  1  0  0  0
 16 38  1  0  0  0
 17 18  1  0  0  0
 17 39  1  0  0  0
 17 40  1  0  0  0
 18 19  1  0  0  0
 18 21  1  0  0  0
 19 20  1  0  0  0
 19 41  1  0  0  0
 19 42  1  0  0  0
 20 43  1  0  0  0
 20 44  1  0  0  0
 21 22  1  0  0  0
 21 45  1  0  0  0
 21 46  1  0  0  0
 22 26  1  0  0  0
 22 23  2  0  0  0
 23 24  1  0  0  0
 23 47  1  0  0  0
 24 25  2  0  0  0
 24 48  1  0  0  0
 25 26  1  0  0  0
 25 27  1  0  0  0
M  CHG  1  15   1
M  END
> <i_i_glide_confnum>
61

> <i_i_glide_lignum>
117

> <i_i_glide_posenum>
195

> <i_i_glide_rotatable_bonds>
8

> <i_m_Source_File_Index>
2185

> <b_m_subgroup_collapsed>
0

> <r_i_docking_score>
-4.60446

> <r_i_glide_ecoul>
-3.64827

> <r_i_glide_eff_state_penalty>
0

> <r_i_glide_einternal>
6.53638

> <r_i_glide_emodel>
-48.8039

> <r_i_glide_energy>
-39.7447

> <r_i_glide_erotb>
0.65609

> <r_i_glide_esite>
-0.0197875

> <r_i_glide_evdw>
-36.0965

> <r_i_glide_gscore>
-4.60446

> <r_i_glide_hbond>
-0.0235869

> <r_i_glide_ligand_efficiency>
-0.170535

> <r_i_glide_ligand_efficiency_ln>
-1.07184

> <r_i_glide_ligand_efficiency_sa>
-0.511606

> <r_i_glide_lipo>
-2.27051

> <r_i_glide_metal>
0

> <r_i_glide_rewards>
-0.594596

> <s_i_glide_gridfile>
wee1_glide-grid

> <s_m_Source_File>
wee1_decoys_glide_SP.sdf

> <s_m_Source_Path>
/Users/zhangxujun/Desktop

> <s_m_entry_id>
2460

> <s_m_entry_name>
wee1_decoys_glide_SP.2185

> <s_m_subgroup_title>
wee1_decoys_glide_SP

> <s_m_subgroupid>
wee1_decoys_glide_SP


$$$$
