@<TRIPOS>MOLECULE
ZINC66092410_2890
68   71    1
SMALL
USER_CHARGES


@<TRIPOS>ATOM
      1 C1          0.5036   51.9964   26.6545 C.3       1 UNK         0.0000 
      2 C2          1.4125   53.0569   27.2956 C.3       1 UNK         0.0000 
      3 H3          0.8608   53.9987   27.2973 H         1 UNK         0.0000 
      4 C4          1.6970   52.7218   28.7681 C.ar      1 UNK         0.0000 
      5 C5          2.9761   52.3683   29.2242 C.ar      1 UNK         0.0000 
      6 C6          3.1920   52.0965   30.5688 C.ar      1 UNK         0.0000 
      7 C7          2.1148   52.1156   31.4498 C.ar      1 UNK         0.0000 
      8 C8          0.8464   52.4965   31.0220 C.ar      1 UNK         0.0000 
      9 C9          0.6401   52.8020   29.6822 C.ar      1 UNK         0.0000 
     10 N10         2.5648   53.2967   26.4191 N.am      1 UNK         0.0000 
     11 C11         3.5261   54.2218   26.5954 C.2       1 UNK         0.0000 
     12 O12         3.6186   54.8957   27.6194 O.2       1 UNK         0.0000 
     13 C13         4.5257   54.3770   25.4734 C.ar      1 UNK         0.0000 
     14 C14         5.7784   54.9577   25.7177 C.ar      1 UNK         0.0000 
     15 C15         6.7043   55.1134   24.6854 C.ar      1 UNK         0.0000 
     16 C16         6.4014   54.6772   23.3966 C.ar      1 UNK         0.0000 
     17 C17         5.1551   54.0968   23.1369 C.ar      1 UNK         0.0000 
     18 C18         4.2253   53.9615   24.1674 C.ar      1 UNK         0.0000 
     19 N19         4.7802   53.5999   21.8888 N.am      1 UNK         0.0000 
     20 C20         4.9879   54.1522   20.6776 C.2       1 UNK         0.0000 
     21 O21         5.6596   55.1704   20.4951 O.2       1 UNK         0.0000 
     22 C22         4.2651   53.4927   19.4796 C.3       1 UNK         0.0000 
     23 N23         3.9096   52.0966   19.6609 N.pl3     1 UNK         0.0000 
     24 C24         2.8529   51.5577   20.4116 C.ar      1 UNK         0.0000 
     25 C25         2.0286   52.3341   21.2309 C.ar      1 UNK         0.0000 
     26 C26         1.0574   51.7279   22.0220 C.ar      1 UNK         0.0000 
     27 C27         0.8878   50.3374   21.9955 C.ar      1 UNK         0.0000 
     28 C28         1.7181   49.5661   21.1726 C.ar      1 UNK         0.0000 
     29 C29         2.6748   50.1782   20.3675 C.ar      1 UNK         0.0000 
     30 C30        -0.1117   49.6964   22.9369 C.2       1 UNK         0.0000 
     31 O31        -0.1303   50.1326   24.0891 O.2       1 UNK         0.0000 
     32 N32        -0.9477   48.6946   22.5017 N.am      1 UNK         0.0000 
     33 C33        -1.2324   48.5644   21.0563 C.3       1 UNK         0.0000 
     34 C34        -1.7536   47.9311   23.4134 C.ar      1 UNK         0.0000 
     35 C35        -1.2894   47.5811   24.6960 C.ar      1 UNK         0.0000 
     36 C36        -2.0955   46.8773   25.5851 C.ar      1 UNK         0.0000 
     37 C37        -3.3767   46.4970   25.2035 C.ar      1 UNK         0.0000 
     38 C38        -3.8530   46.8085   23.9350 C.ar      1 UNK         0.0000 
     39 C39        -3.0478   47.5173   23.0469 C.ar      1 UNK         0.0000 
     40 H40        -0.4308   51.8759   27.2030 H         1 UNK         0.0000 
     41 H41         0.2363   52.2663   25.6321 H         1 UNK         0.0000 
     42 H42         0.9882   51.0186   26.6227 H         1 UNK         0.0000 
     43 H43         3.8119   52.3007   28.5433 H         1 UNK         0.0000 
     44 H44         4.1801   51.8332   30.9187 H         1 UNK         0.0000 
     45 H45         2.2694   51.8550   32.4816 H         1 UNK         0.0000 
     46 H46         0.0182   52.5232   31.7178 H         1 UNK         0.0000 
     47 H47        -0.3510   53.0868   29.3558 H         1 UNK         0.0000 
     48 H48         2.5530   52.8000   25.5429 H         1 UNK         0.0000 
     49 H49         6.0435   55.2945   26.7111 H         1 UNK         0.0000 
     50 H50         7.6611   55.5710   24.8773 H         1 UNK         0.0000 
     51 H51         7.1350   54.7867   22.6114 H         1 UNK         0.0000 
     52 H52         3.2646   53.5228   23.9396 H         1 UNK         0.0000 
     53 H53         4.1587   52.8039   21.8897 H         1 UNK         0.0000 
     54 H54         3.3922   54.1075   19.2590 H         1 UNK         0.0000 
     55 H55         4.9022   53.6211   18.6049 H         1 UNK         0.0000 
     56 H56         4.3721   51.4425   19.0165 H         1 UNK         0.0000 
     57 H57         2.1461   53.4058   21.2822 H         1 UNK         0.0000 
     58 H58         0.4434   52.3460   22.6624 H         1 UNK         0.0000 
     59 H59         1.6488   48.4889   21.1627 H         1 UNK         0.0000 
     60 H60         3.2991   49.5696   19.7288 H         1 UNK         0.0000 
     61 H61        -1.7750   47.6459   20.8284 H         1 UNK         0.0000 
     62 H62        -1.8381   49.4055   20.7152 H         1 UNK         0.0000 
     63 H63        -0.3430   48.5201   20.4313 H         1 UNK         0.0000 
     64 H64        -0.2986   47.8517   25.0302 H         1 UNK         0.0000 
     65 H65        -1.7232   46.6457   26.5744 H         1 UNK         0.0000 
     66 H66        -4.0064   45.9703   25.9069 H         1 UNK         0.0000 
     67 H67        -4.8544   46.5222   23.6481 H         1 UNK         0.0000 
     68 H68        -3.4712   47.7739   22.0880 H         1 UNK         0.0000 
@<TRIPOS>BOND
     1    1    2 1    
     2    1   40 1    
     3    1   41 1    
     4    1   42 1    
     5    2    3 1    
     6    2    4 1    
     7    2   10 1    
     8    4    9 ar   
     9    4    5 ar   
    10    5    6 ar   
    11    5   43 1    
    12    6    7 ar   
    13    6   44 1    
    14    7    8 ar   
    15    7   45 1    
    16    8    9 ar   
    17    8   46 1    
    18    9   47 1    
    19   10   11 am   BACKBONE|DICT|INTERRES
    20   10   48 1    
    21   11   12 2    
    22   11   13 1    
    23   13   18 ar   
    24   13   14 ar   
    25   14   15 ar   
    26   14   49 1    
    27   15   16 ar   
    28   15   50 1    
    29   16   17 ar   
    30   16   51 1    
    31   17   18 ar   
    32   17   19 1    
    33   18   52 1    
    34   19   20 am   BACKBONE|DICT|INTERRES
    35   19   53 1    
    36   20   21 2    
    37   20   22 1    
    38   22   23 1    
    39   22   54 1    
    40   22   55 1    
    41   23   24 1    
    42   23   56 1    
    43   24   29 ar   
    44   24   25 ar   
    45   25   26 ar   
    46   25   57 1    
    47   26   27 ar   
    48   26   58 1    
    49   27   28 ar   
    50   27   30 1    
    51   28   29 ar   
    52   28   59 1    
    53   29   60 1    
    54   30   31 2    
    55   30   32 am   BACKBONE|DICT|INTERRES
    56   32   33 1    
    57   32   34 1    
    58   33   61 1    
    59   33   62 1    
    60   33   63 1    
    61   34   39 ar   
    62   34   35 ar   
    63   35   36 ar   
    64   35   64 1    
    65   36   37 ar   
    66   36   65 1    
    67   37   38 ar   
    68   37   66 1    
    69   38   39 ar   
    70   38   67 1    
    71   39   68 1    
@<TRIPOS>SUBSTRUCTURE
     1 UNK         1 GROUP             0       ****    0 ROOT    
