@<TRIPOS>MOLECULE
ZINC35351268_4191
58   62    1
SMALL
USER_CHARGES


@<TRIPOS>ATOM
      1 C1         -2.8505   51.2940   27.6906 C.ar      1 UNK         0.0000 
      2 C2         -2.3173   51.8690   26.5430 C.ar      1 UNK         0.0000 
      3 C3         -1.0583   52.4569   26.5937 C.ar      1 UNK         0.0000 
      4 C4         -0.3186   52.4742   27.7876 C.ar      1 UNK         0.0000 
      5 C5         -0.8688   51.8804   28.9312 C.ar      1 UNK         0.0000 
      6 C6         -2.1297   51.2966   28.8815 C.ar      1 UNK         0.0000 
      7 C7          1.0576   53.1567   27.8619 C.3       1 UNK         0.0000 
      8 H8          0.8325   54.1972   28.1055 H         1 UNK         0.0000 
      9 C9          1.8407   53.1244   26.5218 C.3       1 UNK         0.0000 
     10 C10         3.2531   53.6564   26.6942 C.ar      1 UNK         0.0000 
     11 C11         3.9835   54.0967   25.5901 C.ar      1 UNK         0.0000 
     12 C12         5.3221   54.4930   25.7064 C.ar      1 UNK         0.0000 
     13 C13         5.9059   54.4962   26.9807 C.ar      1 UNK         0.0000 
     14 C14         5.1784   54.0902   28.0972 C.ar      1 UNK         0.0000 
     15 C15         3.8525   53.6592   27.9648 C.ar      1 UNK         0.0000 
     16 C16         3.0787   53.1850   29.1513 C.2       1 UNK         0.0000 
     17 O17         3.5050   53.1437   30.3059 O.2       1 UNK         0.0000 
     18 O18         1.8593   52.6264   28.9331 O.3       1 UNK         0.0000 
     19 C19         6.1217   54.9295   24.5006 C.2       1 UNK         0.0000 
     20 O20         7.1022   55.6528   24.6697 O.2       1 UNK         0.0000 
     21 N21         5.6632   54.4967   23.2976 N.am      1 UNK         0.0000 
     22 C22         6.0731   54.8518   21.9932 C.ar      1 UNK         0.0000 
     23 C23         7.2665   55.5296   21.7018 C.ar      1 UNK         0.0000 
     24 C24         7.6307   55.8057   20.3854 C.ar      1 UNK         0.0000 
     25 C25         6.7834   55.4510   19.3418 C.ar      1 UNK         0.0000 
     26 C26         5.5718   54.8110   19.6109 C.ar      1 UNK         0.0000 
     27 C27         5.2270   54.4967   20.9326 C.ar      1 UNK         0.0000 
     28 S28         4.4764   54.4338   18.2411 S.o2      1 UNK         0.0000 
     29 O29         3.5044   53.4856   18.7948 O.2       1 UNK         0.0000 
     30 O30         5.3831   53.8779   17.2285 O.2       1 UNK         0.0000 
     31 N31         3.9045   56.0920   18.0101 N.2       1 UNK         0.0000 
     32 C32         4.1740   56.6948   16.9248 C.2       1 UNK         0.0000 
     33 N33         4.9030   56.2514   15.8358 N.pl3     1 UNK         0.0000 
     34 C34         4.6256   56.9773   14.6136 C.3       1 UNK         0.0000 
     35 C35         4.4254   58.3610   15.2035 C.3       1 UNK         0.0000 
     36 C36         3.7255   58.0977   16.5377 C.3       1 UNK         0.0000 
     37 H37        -3.8184   50.8178   27.6559 H         1 UNK         0.0000 
     38 H38        -2.8763   51.8528   25.6190 H         1 UNK         0.0000 
     39 H39        -0.6779   52.8965   25.6869 H         1 UNK         0.0000 
     40 H40        -0.3322   51.8676   29.8692 H         1 UNK         0.0000 
     41 H41        -2.5328   50.8171   29.7628 H         1 UNK         0.0000 
     42 H42         1.3308   53.6970   25.7481 H         1 UNK         0.0000 
     43 H43         1.9038   52.0968   26.1662 H         1 UNK         0.0000 
     44 H44         3.4884   54.0925   24.6302 H         1 UNK         0.0000 
     45 H45         6.9311   54.8080   27.1207 H         1 UNK         0.0000 
     46 H46         5.6645   54.1053   29.0629 H         1 UNK         0.0000 
     47 H47         4.8592   53.8919   23.3331 H         1 UNK         0.0000 
     48 H48         7.9311   55.8439   22.4818 H         1 UNK         0.0000 
     49 H49         8.5673   56.3022   20.1758 H         1 UNK         0.0000 
     50 H50         7.0612   55.6850   18.3243 H         1 UNK         0.0000 
     51 H51         4.2912   53.9908   21.1273 H         1 UNK         0.0000 
     52 H52         3.7085   56.5799   14.1726 H         1 UNK         0.0000 
     53 H53         5.4569   56.9095   13.9095 H         1 UNK         0.0000 
     54 H54         5.3889   58.8481   15.3742 H         1 UNK         0.0000 
     55 H55         3.8643   59.0155   14.5370 H         1 UNK         0.0000 
     56 H56         4.0166   58.8403   17.2817 H         1 UNK         0.0000 
     57 H57         2.6414   58.1280   16.4268 H         1 UNK         0.0000 
     58 H58         5.2512   55.3112   15.6855 H         1 UNK         0.0000 
@<TRIPOS>BOND
     1    1    6 ar   
     2    1    2 ar   
     3    1   37 1    
     4    2    3 ar   
     5    2   38 1    
     6    3    4 ar   
     7    3   39 1    
     8    4    5 ar   
     9    4    7 1    
    10    5    6 ar   
    11    5   40 1    
    12    6   41 1    
    13    7    8 1    
    14    7   18 1    
    15    7    9 1    
    16    9   10 1    
    17    9   42 1    
    18    9   43 1    
    19   10   15 ar   
    20   10   11 ar   
    21   11   12 ar   
    22   11   44 1    
    23   12   13 ar   
    24   12   19 1    
    25   13   14 ar   
    26   13   45 1    
    27   14   15 ar   
    28   14   46 1    
    29   15   16 1    
    30   16   17 2    
    31   16   18 1    
    32   19   20 2    
    33   19   21 am   BACKBONE|DICT|INTERRES
    34   21   22 1    
    35   21   47 1    
    36   22   27 ar   
    37   22   23 ar   
    38   23   24 ar   
    39   23   48 1    
    40   24   25 ar   
    41   24   49 1    
    42   25   26 ar   
    43   25   50 1    
    44   26   27 ar   
    45   26   28 1    
    46   27   51 1    
    47   28   29 2    
    48   28   30 2    
    49   28   31 1    
    50   31   32 2    
    51   32   36 1    
    52   32   33 1    
    53   33   34 1    
    54   33   58 1    
    55   34   35 1    
    56   34   52 1    
    57   34   53 1    
    58   35   36 1    
    59   35   54 1    
    60   35   55 1    
    61   36   56 1    
    62   36   57 1    
@<TRIPOS>SUBSTRUCTURE
     1 UNK         1 GROUP             0       ****    0 ROOT    
