@<TRIPOS>MOLECULE
ZINC09692226_5379
65   68    1
SMALL
USER_CHARGES


@<TRIPOS>ATOM
      1 C1          7.0602   53.8209   28.2057 C.3       1 UNK         0.0000 
      2 C2          5.7947   54.3924   27.5456 C.3       1 UNK         0.0000 
      3 C3          6.0223   54.7633   26.0657 C.2       1 UNK         0.0000 
      4 O4          7.1043   55.2665   25.7615 O.2       1 UNK         0.0000 
      5 N5          5.0428   54.5586   25.1490 N.am      1 UNK         0.0000 
      6 C6          3.7321   54.0018   25.5027 C.3       1 UNK         0.0000 
      7 C7          2.9432   53.9374   24.2038 C.3       1 UNK         0.0000 
      8 C8          4.0100   54.0958   23.1628 C.ar      1 UNK         0.0000 
      9 C9          5.2101   54.4967   23.7510 C.ar      1 UNK         0.0000 
     10 C10         6.2958   54.8709   22.9415 C.ar      1 UNK         0.0000 
     11 C11         6.1876   54.7653   21.5554 C.ar      1 UNK         0.0000 
     12 C12         5.0128   54.2769   20.9760 C.ar      1 UNK         0.0000 
     13 C13         3.9059   53.9977   21.7781 C.ar      1 UNK         0.0000 
     14 S14         4.9191   54.0102   19.2118 S.o2      1 UNK         0.0000 
     15 O15         6.2797   53.6987   18.7614 O.2       1 UNK         0.0000 
     16 O16         4.1930   55.1634   18.6701 O.2       1 UNK         0.0000 
     17 N17         3.9412   52.5509   19.0059 N.pl3     1 UNK         0.0000 
     18 C18         2.5464   52.6194   18.4891 C.3       1 UNK         0.0000 
     19 H19         2.2611   53.6687   18.4091 H         1 UNK         0.0000 
     20 C20         2.4569   51.9520   17.0883 C.3       1 UNK         0.0000 
     21 C21         3.3749   52.5626   16.0010 C.3       1 UNK         0.0000 
     22 C22         3.3864   51.6912   14.7268 C.3       1 UNK         0.0000 
     23 C23         3.0392   54.0393   15.6978 C.3       1 UNK         0.0000 
     24 C24         1.5760   51.9860   19.5248 C.2       1 UNK         0.0000 
     25 O25         2.0047   51.4900   20.5711 O.2       1 UNK         0.0000 
     26 N26         0.2735   52.0340   19.1693 N.am      1 UNK         0.0000 
     27 C27        -0.8183   51.5404   19.8638 C.2       1 UNK         0.0000 
     28 N28        -1.9722   51.4714   19.2651 N.2       1 UNK         0.0000 
     29 C29        -2.9118   50.8980   20.0626 C.ar      1 UNK         0.0000 
     30 C30        -4.2345   50.6414   19.6771 C.ar      1 UNK         0.0000 
     31 C31        -5.0949   50.0552   20.6071 C.ar      1 UNK         0.0000 
     32 C32        -4.6642   49.7274   21.8959 C.ar      1 UNK         0.0000 
     33 C33        -3.3487   49.9765   22.2990 C.ar      1 UNK         0.0000 
     34 C34        -2.4758   50.5587   21.3705 C.ar      1 UNK         0.0000 
     35 S35        -0.7789   50.9813   21.5348 S.3       1 UNK         0.0000 
     36 C36        -5.6465   49.1094   22.8745 C.3       1 UNK         0.0000 
     37 H37         6.9117   53.6968   29.2749 H         1 UNK         0.0000 
     38 H38         7.3246   52.8430   27.8015 H         1 UNK         0.0000 
     39 H39         7.9048   54.4967   28.0903 H         1 UNK         0.0000 
     40 H40         5.4897   55.2956   28.0736 H         1 UNK         0.0000 
     41 H41         4.9927   53.6678   27.6759 H         1 UNK         0.0000 
     42 H42         3.9259   52.9711   25.8053 H         1 UNK         0.0000 
     43 H43         3.2105   54.4624   26.3427 H         1 UNK         0.0000 
     44 H44         2.2502   54.7785   24.1549 H         1 UNK         0.0000 
     45 H45         2.3468   53.0265   24.1348 H         1 UNK         0.0000 
     46 H46         7.2258   55.2322   23.3538 H         1 UNK         0.0000 
     47 H47         7.0347   55.0195   20.9339 H         1 UNK         0.0000 
     48 H48         2.9732   53.7015   21.3242 H         1 UNK         0.0000 
     49 H49         4.4622   51.6820   18.7997 H         1 UNK         0.0000 
     50 H50         2.7074   50.8960   17.1983 H         1 UNK         0.0000 
     51 H51         1.4329   51.9801   16.7145 H         1 UNK         0.0000 
     52 H52         4.3948   52.5346   16.3891 H         1 UNK         0.0000 
     53 H53         2.8914   52.1680   13.8806 H         1 UNK         0.0000 
     54 H54         4.4101   51.4691   14.4236 H         1 UNK         0.0000 
     55 H55         2.8910   50.7317   14.8814 H         1 UNK         0.0000 
     56 H56         2.9177   54.2361   14.6331 H         1 UNK         0.0000 
     57 H57         2.1206   54.3632   16.1863 H         1 UNK         0.0000 
     58 H58         3.8391   54.6925   16.0471 H         1 UNK         0.0000 
     59 H59         0.0624   52.4177   18.2618 H         1 UNK         0.0000 
     60 H60        -4.5811   50.8888   18.6849 H         1 UNK         0.0000 
     61 H61        -6.1182   49.8546   20.3213 H         1 UNK         0.0000 
     62 H62        -3.0107   49.7233   23.2943 H         1 UNK         0.0000 
     63 H63        -5.2930   49.1759   23.9045 H         1 UNK         0.0000 
     64 H64        -6.6025   49.6328   22.8322 H         1 UNK         0.0000 
     65 H65        -5.8273   48.0634   22.6261 H         1 UNK         0.0000 
@<TRIPOS>BOND
     1    1    2 1    
     2    1   37 1    
     3    1   38 1    
     4    1   39 1    
     5    2    3 1    
     6    2   40 1    
     7    2   41 1    
     8    3    4 2    
     9    3    5 am   BACKBONE|DICT|INTERRES
    10    5    9 1    
    11    5    6 1    
    12    6    7 1    
    13    6   42 1    
    14    6   43 1    
    15    7    8 1    
    16    7   44 1    
    17    7   45 1    
    18    8   13 ar   
    19    8    9 ar   
    20    9   10 ar   
    21   10   11 ar   
    22   10   46 1    
    23   11   12 ar   
    24   11   47 1    
    25   12   13 ar   
    26   12   14 1    
    27   13   48 1    
    28   14   15 2    
    29   14   16 2    
    30   14   17 1    
    31   17   18 1    
    32   17   49 1    
    33   18   19 1    
    34   18   20 1    
    35   18   24 1    
    36   20   21 1    
    37   20   50 1    
    38   20   51 1    
    39   21   22 1    
    40   21   23 1    
    41   21   52 1    
    42   22   53 1    
    43   22   54 1    
    44   22   55 1    
    45   23   56 1    
    46   23   57 1    
    47   23   58 1    
    48   24   25 2    
    49   24   26 am   BACKBONE|DICT|INTERRES
    50   26   27 am   BACKBONE|DICT|INTERRES
    51   26   59 1    
    52   27   35 1    
    53   27   28 2    
    54   28   29 1    
    55   29   34 ar   
    56   29   30 ar   
    57   30   31 ar   
    58   30   60 1    
    59   31   32 ar   
    60   31   61 1    
    61   32   33 ar   
    62   32   36 1    
    63   33   34 ar   
    64   33   62 1    
    65   34   35 1    
    66   36   63 1    
    67   36   64 1    
    68   36   65 1    
@<TRIPOS>SUBSTRUCTURE
     1 UNK         1 GROUP             0       ****    0 ROOT    
