@<TRIPOS>MOLECULE
ZINC12659004_4224
77   82    1
SMALL
USER_CHARGES


@<TRIPOS>ATOM
      1 C1          0.2745   49.2027   25.6153 C.3       1 UNK         0.0000 
      2 C2         -0.1791   50.4907   24.8588 C.3       1 UNK         0.0000 
      3 C3         -0.1480   51.6814   25.8759 C.3       1 UNK         0.0000 
      4 C4         -1.2309   51.6172   26.9829 C.3       1 UNK         0.0000 
      5 C5         -2.6058   51.5483   26.3209 C.2       1 UNK         0.0000 
      6 N6         -3.4502   52.4969   26.4681 N.2       1 UNK         0.0000 
      7 N7         -4.6437   52.3389   25.8611 N.am      1 UNK         0.0000 
      8 C8         -5.5937   53.3001   25.8358 C.2       1 UNK         0.0000 
      9 O9         -5.4118   54.4650   26.2135 O.2       1 UNK         0.0000 
     10 C10        -6.9431   52.8756   25.2930 C.ar      1 UNK         0.0000 
     11 C11        -7.8631   53.8415   24.8534 C.ar      1 UNK         0.0000 
     12 C12        -9.0989   53.4305   24.3539 C.ar      1 UNK         0.0000 
     13 N13        -9.4703   52.1289   24.2799 N.ar      1 UNK         0.0000 
     14 C14        -8.5857   51.1974   24.7138 C.ar      1 UNK         0.0000 
     15 C15        -7.3267   51.5226   25.2219 C.ar      1 UNK         0.0000 
     16 C16        -2.7155   50.2755   25.4495 C.3       1 UNK         0.0000 
     17 C17        -1.6485   50.3449   24.3204 C.3       1 UNK         0.0000 
     18 H18        -1.8874   51.2442   23.7530 H         1 UNK         0.0000 
     19 C19        -1.7482   49.1714   23.3123 C.3       1 UNK         0.0000 
     20 C20        -0.7700   49.3389   22.1287 C.3       1 UNK         0.0000 
     21 C21         0.7096   49.5985   22.5689 C.3       1 UNK         0.0000 
     22 H22         1.0317   48.6989   23.0900 H         1 UNK         0.0000 
     23 C23         0.7509   50.7674   23.6085 C.3       1 UNK         0.0000 
     24 H24         1.7739   50.8154   23.9879 H         1 UNK         0.0000 
     25 C25         0.5050   52.0967   22.8347 C.3       1 UNK         0.0000 
     26 C26         1.5914   52.3534   21.7875 C.3       1 UNK         0.0000 
     27 C27         1.7747   51.2143   20.7412 C.3       1 UNK         0.0000 
     28 C28         1.7770   49.8108   21.4261 C.3       1 UNK         0.0000 
     29 H29         2.7550   49.6662   21.8901 H         1 UNK         0.0000 
     30 C30         1.6371   48.8484   20.2390 C.3       1 UNK         0.0000 
     31 C31         0.8628   49.5995   19.1478 C.3       1 UNK         0.0000 
     32 C32         0.6635   51.0323   19.6862 C.2       1 UNK         0.0000 
     33 N33        -0.2356   51.8909   19.3822 N.2       1 UNK         0.0000 
     34 N34        -1.1009   51.4774   18.4305 N.am      1 UNK         0.0000 
     35 C35        -2.1960   52.1707   18.0562 C.2       1 UNK         0.0000 
     36 O36        -2.4897   53.2914   18.4816 O.2       1 UNK         0.0000 
     37 C37        -3.0932   51.4871   17.0492 C.ar      1 UNK         0.0000 
     38 C38        -3.9486   52.2518   16.2390 C.ar      1 UNK         0.0000 
     39 C39        -4.7777   51.6047   15.3212 C.ar      1 UNK         0.0000 
     40 N40        -4.8043   50.2567   15.1730 N.ar      1 UNK         0.0000 
     41 C41        -3.9817   49.5210   15.9615 C.ar      1 UNK         0.0000 
     42 C42        -3.1211   50.0873   16.9036 C.ar      1 UNK         0.0000 
     43 C43         3.1395   51.5019   20.0508 C.3       1 UNK         0.0000 
     44 H44         0.2457   48.2957   25.0176 H         1 UNK         0.0000 
     45 H45         1.2935   49.2912   25.9838 H         1 UNK         0.0000 
     46 H46        -0.3467   48.9889   26.4817 H         1 UNK         0.0000 
     47 H47         0.8450   51.7687   26.3199 H         1 UNK         0.0000 
     48 H48        -0.3068   52.6305   25.3690 H         1 UNK         0.0000 
     49 H49        -1.1610   52.4967   27.6248 H         1 UNK         0.0000 
     50 H50        -1.0890   50.7572   27.6378 H         1 UNK         0.0000 
     51 H51        -4.7995   51.4356   25.4419 H         1 UNK         0.0000 
     52 H52        -7.6316   54.8959   24.8831 H         1 UNK         0.0000 
     53 H53        -9.8175   54.1552   23.9998 H         1 UNK         0.0000 
     54 H54        -8.9075   50.1683   24.6494 H         1 UNK         0.0000 
     55 H55        -6.6789   50.7250   25.5562 H         1 UNK         0.0000 
     56 H56        -2.5666   49.3946   26.0747 H         1 UNK         0.0000 
     57 H57        -3.7070   50.1621   25.0145 H         1 UNK         0.0000 
     58 H58        -1.5986   48.2156   23.8133 H         1 UNK         0.0000 
     59 H59        -2.7669   49.1135   22.9264 H         1 UNK         0.0000 
     60 H60        -1.1329   50.1596   21.5135 H         1 UNK         0.0000 
     61 H61        -0.8277   48.4664   21.4788 H         1 UNK         0.0000 
     62 H62        -0.4854   52.1447   22.3855 H         1 UNK         0.0000 
     63 H63         0.5306   52.9496   23.5086 H         1 UNK         0.0000 
     64 H64         2.5268   52.5144   22.3266 H         1 UNK         0.0000 
     65 H65         1.3880   53.2967   21.2820 H         1 UNK         0.0000 
     66 H66         2.6277   48.5865   19.8596 H         1 UNK         0.0000 
     67 H67         1.1779   47.8960   20.5004 H         1 UNK         0.0000 
     68 H68         1.4355   49.6211   18.2177 H         1 UNK         0.0000 
     69 H69        -0.0911   49.1071   18.9534 H         1 UNK         0.0000 
     70 H70        -0.9013   50.5712   18.0359 H         1 UNK         0.0000 
     71 H71        -3.9726   53.3302   16.3139 H         1 UNK         0.0000 
     72 H72        -5.4431   52.1714   14.6858 H         1 UNK         0.0000 
     73 H73        -4.0260   48.4506   15.8280 H         1 UNK         0.0000 
     74 H74        -2.5040   49.4360   17.5063 H         1 UNK         0.0000 
     75 H75         3.3948   50.7716   19.2824 H         1 UNK         0.0000 
     76 H76         3.1398   52.4771   19.5614 H         1 UNK         0.0000 
     77 H77         3.9640   51.4991   20.7652 H         1 UNK         0.0000 
@<TRIPOS>BOND
     1    1    2 1    
     2    1   44 1    
     3    1   45 1    
     4    1   46 1    
     5    2   17 1    
     6    2   23 1    
     7    2    3 1    
     8    3    4 1    
     9    3   47 1    
    10    3   48 1    
    11    4    5 1    
    12    4   49 1    
    13    4   50 1    
    14    5    6 2    
    15    5   16 1    
    16    6    7 1    
    17    7    8 am   BACKBONE|DICT|INTERRES
    18    7   51 1    
    19    8    9 2    
    20    8   10 1    
    21   10   15 ar   
    22   10   11 ar   
    23   11   12 ar   
    24   11   52 1    
    25   12   13 ar   
    26   12   53 1    
    27   13   14 ar   
    28   14   15 ar   
    29   14   54 1    
    30   15   55 1    
    31   16   17 1    
    32   16   56 1    
    33   16   57 1    
    34   17   18 1    
    35   17   19 1    
    36   19   20 1    
    37   19   58 1    
    38   19   59 1    
    39   20   21 1    
    40   20   60 1    
    41   20   61 1    
    42   21   22 1    
    43   21   28 1    
    44   21   23 1    
    45   23   24 1    
    46   23   25 1    
    47   25   26 1    
    48   25   62 1    
    49   25   63 1    
    50   26   27 1    
    51   26   64 1    
    52   26   65 1    
    53   27   32 1    
    54   27   28 1    
    55   27   43 1    
    56   28   29 1    
    57   28   30 1    
    58   30   31 1    
    59   30   66 1    
    60   30   67 1    
    61   31   32 1    
    62   31   68 1    
    63   31   69 1    
    64   32   33 2    
    65   33   34 1    
    66   34   35 am   BACKBONE|DICT|INTERRES
    67   34   70 1    
    68   35   36 2    
    69   35   37 1    
    70   37   42 ar   
    71   37   38 ar   
    72   38   39 ar   
    73   38   71 1    
    74   39   40 ar   
    75   39   72 1    
    76   40   41 ar   
    77   41   42 ar   
    78   41   73 1    
    79   42   74 1    
    80   43   75 1    
    81   43   76 1    
    82   43   77 1    
@<TRIPOS>SUBSTRUCTURE
     1 UNK         1 GROUP             0       ****    0 ROOT    
