@<TRIPOS>MOLECULE
ZINC08733677_2883
58   61    1
SMALL
USER_CHARGES


@<TRIPOS>ATOM
      1 C1         -4.2700   51.5789   27.4895 C.3       1 UNK         0.0000 
      2 C2         -4.1760   50.3156   26.6313 C.3       1 UNK         0.0000 
      3 O3         -3.1096   50.4627   25.7031 O.3       1 UNK         0.0000 
      4 C4         -2.6601   49.4089   24.9799 C.2       1 UNK         0.0000 
      5 O5         -3.2275   48.3128   25.0049 O.2       1 UNK         0.0000 
      6 C6         -1.4371   49.7060   24.1634 C.2       1 UNK         0.0000 
      7 C7         -0.8789   48.7542   23.3515 C.2       1 UNK         0.0000 
      8 N8          0.2642   48.9791   22.6072 N.pl3     1 UNK         0.0000 
      9 C9          0.8828   50.2011   22.6359 C.2       1 UNK         0.0000 
     10 C10         0.4098   51.2657   23.3957 C.2       1 UNK         0.0000 
     11 C11         1.2056   52.4136   23.1641 C.2       1 UNK         0.0000 
     12 C12         2.3063   52.1891   22.3279 C.2       1 UNK         0.0000 
     13 S13         2.2979   50.5601   21.7183 S.3       1 UNK         0.0000 
     14 C14         3.4008   53.0489   21.8704 C.2       1 UNK         0.0000 
     15 O15         3.6118   53.1148   20.6584 O.2       1 UNK         0.0000 
     16 C16         4.3375   53.7083   22.8508 C.ar      1 UNK         0.0000 
     17 C17         4.1062   53.7454   24.2360 C.ar      1 UNK         0.0000 
     18 C18         5.0276   54.3398   25.0967 C.ar      1 UNK         0.0000 
     19 C19         6.1982   54.8931   24.5874 C.ar      1 UNK         0.0000 
     20 C20         6.4450   54.8745   23.2189 C.ar      1 UNK         0.0000 
     21 C21         5.5160   54.2947   22.3550 C.ar      1 UNK         0.0000 
     22 F22         7.1036   55.4503   25.4252 F         1 UNK         0.0000 
     23 N23         0.9169   53.6335   23.7094 N.pl3     1 UNK         0.0000 
     24 C24        -0.7822   51.1123   24.3617 C.3       1 UNK         0.0000 
     25 H25        -1.5301   51.8586   24.0859 H         1 UNK         0.0000 
     26 C26        -0.3567   51.4339   25.8009 C.ar      1 UNK         0.0000 
     27 C27        -0.9417   52.4965   26.4867 C.ar      1 UNK         0.0000 
     28 C28        -0.4805   52.8572   27.7496 C.ar      1 UNK         0.0000 
     29 C29         0.5374   52.1278   28.3697 C.ar      1 UNK         0.0000 
     30 C30         1.1067   51.0578   27.6813 C.ar      1 UNK         0.0000 
     31 C31         0.6530   50.6977   26.4173 C.ar      1 UNK         0.0000 
     32 C32         1.0212   52.4624   29.7438 C.2       1 UNK         0.0000 
     33 O33         2.1186   52.1023   30.1858 O.2       1 UNK         0.0000 
     34 O34         0.0812   53.0981   30.4884 O.3       1 UNK         0.0000 
     35 C35         0.3069   53.3553   31.8655 C.3       1 UNK         0.0000 
     36 C36        -1.4073   47.3415   23.0991 C.3       1 UNK         0.0000 
     37 H37        -5.1093   51.5154   28.1824 H         1 UNK         0.0000 
     38 H38        -3.3615   51.7024   28.0819 H         1 UNK         0.0000 
     39 H39        -4.4060   52.4697   26.8742 H         1 UNK         0.0000 
     40 H40        -5.1109   50.1435   26.0951 H         1 UNK         0.0000 
     41 H41        -3.9977   49.4513   27.2762 H         1 UNK         0.0000 
     42 H42         0.6296   48.2478   22.0183 H         1 UNK         0.0000 
     43 H43         3.2415   53.2831   24.6840 H         1 UNK         0.0000 
     44 H44         4.8508   54.3484   26.1628 H         1 UNK         0.0000 
     45 H45         7.3569   55.3041   22.8333 H         1 UNK         0.0000 
     46 H46         5.7364   54.2926   21.2968 H         1 UNK         0.0000 
     47 H47         0.1744   53.7488   24.3829 H         1 UNK         0.0000 
     48 H48         1.4780   54.4459   23.4932 H         1 UNK         0.0000 
     49 H49        -1.7305   53.0725   26.0266 H         1 UNK         0.0000 
     50 H50        -0.8907   53.7304   28.2287 H         1 UNK         0.0000 
     51 H51         1.9119   50.4937   28.1262 H         1 UNK         0.0000 
     52 H52         1.1006   49.8574   25.9075 H         1 UNK         0.0000 
     53 H53        -0.6004   53.7300   32.3337 H         1 UNK         0.0000 
     54 H54         0.6006   52.4477   32.3982 H         1 UNK         0.0000 
     55 H55         1.0946   54.0959   31.9872 H         1 UNK         0.0000 
     56 H56        -2.4618   47.3735   22.8222 H         1 UNK         0.0000 
     57 H57        -0.8990   46.8193   22.2867 H         1 UNK         0.0000 
     58 H58        -1.2979   46.7382   24.0014 H         1 UNK         0.0000 
@<TRIPOS>BOND
     1    1    2 1    
     2    1   37 1    
     3    1   38 1    
     4    1   39 1    
     5    2    3 1    
     6    2   40 1    
     7    2   41 1    
     8    3    4 1    
     9    4    5 2    
    10    4    6 1    
    11    6   24 1    
    12    6    7 2    
    13    7    8 1    
    14    7   36 1    
    15    8    9 1    
    16    8   42 1    
    17    9   13 1    
    18    9   10 2    
    19   10   11 1    
    20   10   24 1    
    21   11   12 2    
    22   11   23 1    
    23   12   13 1    
    24   12   14 1    
    25   14   15 2    
    26   14   16 1    
    27   16   21 ar   
    28   16   17 ar   
    29   17   18 ar   
    30   17   43 1    
    31   18   19 ar   
    32   18   44 1    
    33   19   20 ar   
    34   19   22 1    
    35   20   21 ar   
    36   20   45 1    
    37   21   46 1    
    38   23   47 1    
    39   23   48 1    
    40   24   25 1    
    41   24   26 1    
    42   26   31 ar   
    43   26   27 ar   
    44   27   28 ar   
    45   27   49 1    
    46   28   29 ar   
    47   28   50 1    
    48   29   30 ar   
    49   29   32 1    
    50   30   31 ar   
    51   30   51 1    
    52   31   52 1    
    53   32   33 2    
    54   32   34 1    
    55   34   35 1    
    56   35   53 1    
    57   35   54 1    
    58   35   55 1    
    59   36   56 1    
    60   36   57 1    
    61   36   58 1    
@<TRIPOS>SUBSTRUCTURE
     1 UNK         1 GROUP             0       ****    0 ROOT    
