ZINC32970967_488
                    3D
 Schrodinger Suite 2024-2.
 53 56  0  0  1  0            999 V2000
    0.7874   51.8084   19.2279 C   0  0  0  0  0  0
   -0.1969   51.7383   20.4006 C   0  0  2  0  0  0
   -0.9652   52.4964   20.2451 H   0  0  0  0  0  0
    0.4182   52.1015   21.7826 C   0  0  0  0  0  0
   -0.1513   51.7410   22.8131 O   0  0  0  0  0  0
    1.5263   52.8812   21.7718 N   0  0  0  0  0  0
    2.2530   53.3192   22.8657 C   0  0  0  0  0  0
    1.9421   53.2023   24.1360 N   0  0  0  0  0  0
    2.8669   53.6969   24.9453 C   0  0  0  0  0  0
    3.9630   54.2495   24.2716 C   0  0  0  0  0  0
    3.7636   54.0965   22.5545 S   0  0  0  0  0  0
    2.6872   53.6158   26.4330 C   0  0  0  0  0  0
    3.7173   54.0507   27.3002 C   0  0  0  0  0  0
    3.5866   53.9677   28.6920 C   0  0  0  0  0  0
    2.3967   53.4581   29.1922 C   0  0  0  0  0  0
    1.3911   53.0333   28.3743 C   0  0  0  0  0  0
    1.5035   53.0880   26.9902 C   0  0  0  0  0  0
    0.3683   52.5525   29.1268 O   0  0  0  0  0  0
    0.6743   52.9119   30.4475 C   0  0  0  0  0  0
    2.0353   53.2527   30.4820 O   0  0  0  0  0  0
   -0.9492   50.4459   20.4251 N   0  0  0  0  0  0
   -0.1640   48.9175   20.8521 S   0  0  0  0  0  0
    1.2667   49.1573   21.0775 O   0  0  0  0  0  0
   -0.6023   47.9257   19.8641 O   0  0  0  0  0  0
   -0.8948   48.4223   22.4115 C   0  0  0  0  0  0
   -0.2690   48.7479   23.6157 C   0  0  0  0  0  0
   -0.8170   48.3174   24.8193 C   0  0  0  0  0  0
   -1.9789   47.5446   24.8236 C   0  0  0  0  0  0
   -2.6132   47.2233   23.6174 C   0  0  0  0  0  0
   -2.0713   47.6683   22.4132 C   0  0  0  0  0  0
   -2.4629   47.1748   26.0817 N   0  0  0  0  0  0
   -3.2753   46.1652   26.4395 C   0  0  0  0  0  0
   -3.7285   45.3072   25.6813 O   0  0  0  0  0  0
   -3.5940   46.0970   27.9251 C   0  0  0  0  0  0
    1.0918   52.8381   19.0395 H   0  0  0  0  0  0
    1.6743   51.2067   19.4264 H   0  0  0  0  0  0
    0.3145   51.4284   18.3223 H   0  0  0  0  0  0
    1.8888   53.1540   20.8692 H   0  0  0  0  0  0
    4.8515   54.7118   24.6762 H   0  0  0  0  0  0
    4.6395   54.4460   26.9020 H   0  0  0  0  0  0
    4.3885   54.2886   29.3398 H   0  0  0  0  0  0
    0.6968   52.7285   26.3686 H   0  0  0  0  0  0
    0.4525   52.0974   31.1403 H   0  0  0  0  0  0
    0.0774   53.7813   30.7301 H   0  0  0  0  0  0
   -1.8825   50.5330   20.8365 H   0  0  0  0  0  0
    0.6481   49.3211   23.6258 H   0  0  0  0  0  0
   -0.3219   48.5703   25.7477 H   0  0  0  0  0  0
   -3.5293   46.6514   23.6003 H   0  0  0  0  0  0
   -2.5594   47.4118   21.4844 H   0  0  0  0  0  0
   -2.0715   47.6967   26.8651 H   0  0  0  0  0  0
   -2.6733   46.0983   28.5157 H   0  0  0  0  0  0
   -4.1294   45.1760   28.1530 H   0  0  0  0  0  0
   -4.2098   46.9458   28.2309 H   0  0  0  0  0  0
  1  2  1  0  0  0
  1 35  1  0  0  0
  1 36  1  0  0  0
  1 37  1  0  0  0
  2  3  1  0  0  0
  2  4  1  0  0  0
  2 21  1  0  0  0
  4  5  2  0  0  0
  4  6  1  0  0  0
  6  7  1  0  0  0
  6 38  1  0  0  0
  7 11  1  0  0  0
  7  8  2  0  0  0
  8  9  1  0  0  0
  9 10  2  0  0  0
  9 12  1  0  0  0
 10 11  1  0  0  0
 10 39  1  0  0  0
 12 17  2  0  0  0
 12 13  1  0  0  0
 13 14  2  0  0  0
 13 40  1  0  0  0
 14 15  1  0  0  0
 14 41  1  0  0  0
 15 20  1  0  0  0
 15 16  2  0  0  0
 16 17  1  0  0  0
 16 18  1  0  0  0
 17 42  1  0  0  0
 18 19  1  0  0  0
 19 20  1  0  0  0
 19 43  1  0  0  0
 19 44  1  0  0  0
 21 22  1  0  0  0
 21 45  1  0  0  0
 22 23  2  0  0  0
 22 24  2  0  0  0
 22 25  1  0  0  0
 25 30  2  0  0  0
 25 26  1  0  0  0
 26 27  2  0  0  0
 26 46  1  0  0  0
 27 28  1  0  0  0
 27 47  1  0  0  0
 28 29  2  0  0  0
 28 31  1  0  0  0
 29 30  1  0  0  0
 29 48  1  0  0  0
 30 49  1  0  0  0
 31 32  1  0  0  0
 31 50  1  0  0  0
 32 33  2  0  0  0
 32 34  1  0  0  0
 34 51  1  0  0  0
 34 52  1  0  0  0
 34 53  1  0  0  0
M  END
> <i_i_glide_confnum>
53

> <i_i_glide_lignum>
489

> <i_i_glide_posenum>
175

> <i_i_glide_rotatable_bonds>
9

> <i_m_Source_File_Index>
4854

> <b_m_subgroup_collapsed>
0

> <r_i_docking_score>
-5.83538

> <r_i_glide_ecoul>
-12.0552

> <r_i_glide_eff_state_penalty>
0

> <r_i_glide_einternal>
10.5801

> <r_i_glide_emodel>
-67.8196

> <r_i_glide_energy>
-52.04

> <r_i_glide_erotb>
0.681682

> <r_i_glide_esite>
-0.2015

> <r_i_glide_evdw>
-39.9847

> <r_i_glide_gscore>
-5.83538

> <r_i_glide_hbond>
-0.584362

> <r_i_glide_ligand_efficiency>
-0.17683

> <r_i_glide_ligand_efficiency_ln>
-1.29776

> <r_i_glide_ligand_efficiency_sa>
-0.567188

> <r_i_glide_lipo>
-1.82393

> <r_i_glide_metal>
0

> <r_i_glide_rewards>
-0.0997528

> <s_i_glide_gridfile>
wee1_glide-grid

> <s_m_Source_File>
wee1_decoys_glide_SP.sdf

> <s_m_Source_Path>
/Users/zhangxujun/Desktop

> <s_m_entry_id>
5129

> <s_m_entry_name>
wee1_decoys_glide_SP.4854

> <s_m_subgroup_title>
wee1_decoys_glide_SP

> <s_m_subgroupid>
wee1_decoys_glide_SP


$$$$
