@<TRIPOS>MOLECULE
ZINC57003558_1811
44   47    1
SMALL
USER_CHARGES


@<TRIPOS>ATOM
      1 C1          1.0237   53.1771   23.0958 C.ar      1 UNK         0.0000 
      2 C2          1.7598   51.9966   23.1690 C.ar      1 UNK         0.0000 
      3 C3          1.3031   50.9421   23.9583 C.ar      1 UNK         0.0000 
      4 C4          0.1033   51.0672   24.6593 C.ar      1 UNK         0.0000 
      5 C5         -0.6702   52.2215   24.5405 C.ar      1 UNK         0.0000 
      6 C6         -0.1925   53.2875   23.7778 C.ar      1 UNK         0.0000 
      7 C7         -1.9284   52.1234   25.3866 C.3       1 UNK         0.0000 
      8 C8         -1.9141   50.6783   25.9155 C.3       1 UNK         0.0000 
      9 H9         -2.5480   50.0946   25.2440 H         1 UNK         0.0000 
     10 C10        -0.4818   50.1452   25.7029 C.3       1 UNK         0.0000 
     11 H11        -0.5560   49.1323   25.3050 H         1 UNK         0.0000 
     12 N12         0.3965   50.0967   26.8803 N.am      1 UNK         0.0000 
     13 C13         0.8706   51.0703   27.6805 C.2       1 UNK         0.0000 
     14 O14         1.9047   50.8967   28.3124 O.2       1 UNK         0.0000 
     15 N15         0.1617   52.2022   27.7674 N.am      1 UNK         0.0000 
     16 C16         0.6460   53.4618   28.3426 C.3       1 UNK         0.0000 
     17 H17         0.0206   54.1865   27.8347 H         1 UNK         0.0000 
     18 C18         0.3672   53.6101   29.8508 C.3       1 UNK         0.0000 
     19 C19         1.4998   52.9823   30.6771 C.3       1 UNK         0.0000 
     20 O20         2.7521   53.6195   30.3919 O.3       1 UNK         0.0000 
     21 C21         3.0629   53.8248   29.0624 C.ar      1 UNK         0.0000 
     22 C22         2.1042   53.8244   28.0317 C.ar      1 UNK         0.0000 
     23 C23         2.5536   54.0345   26.7217 C.ar      1 UNK         0.0000 
     24 C24         3.8979   54.2879   26.4481 C.ar      1 UNK         0.0000 
     25 C25         4.8246   54.3264   27.4879 C.ar      1 UNK         0.0000 
     26 C26         4.4043   54.0986   28.7962 C.ar      1 UNK         0.0000 
     27 O27        -2.4667   50.4979   27.2098 O.3       1 UNK         0.0000 
     28 H28         1.3961   54.0026   22.5039 H         1 UNK         0.0000 
     29 H29         2.6972   51.9112   22.6391 H         1 UNK         0.0000 
     30 H30         1.9087   50.0541   24.0800 H         1 UNK         0.0000 
     31 H31        -0.7559   54.2049   23.7155 H         1 UNK         0.0000 
     32 H32        -1.8992   52.8372   26.2086 H         1 UNK         0.0000 
     33 H33        -2.8358   52.3095   24.8113 H         1 UNK         0.0000 
     34 H34         0.7993   49.1859   27.0514 H         1 UNK         0.0000 
     35 H35        -0.8050   52.1626   27.4807 H         1 UNK         0.0000 
     36 H36         0.3064   54.6670   30.1136 H         1 UNK         0.0000 
     37 H37        -0.5850   53.1526   30.1216 H         1 UNK         0.0000 
     38 H38         1.2797   53.0988   31.7390 H         1 UNK         0.0000 
     39 H39         1.5658   51.9109   30.5006 H         1 UNK         0.0000 
     40 H40         1.8500   53.9885   25.9033 H         1 UNK         0.0000 
     41 H41         4.2196   54.4467   25.4293 H         1 UNK         0.0000 
     42 H42         5.8656   54.5271   27.2826 H         1 UNK         0.0000 
     43 H43         5.1181   54.1300   29.6036 H         1 UNK         0.0000 
     44 H44        -2.1701   49.6351   27.5692 H         1 UNK         0.0000 
@<TRIPOS>BOND
     1    1    6 ar   
     2    1    2 ar   
     3    1   28 1    
     4    2    3 ar   
     5    2   29 1    
     6    3    4 ar   
     7    3   30 1    
     8    4   10 1    
     9    4    5 ar   
    10    5    6 ar   
    11    5    7 1    
    12    6   31 1    
    13    7    8 1    
    14    7   32 1    
    15    7   33 1    
    16    8    9 1    
    17    8   10 1    
    18    8   27 1    
    19   10   11 1    
    20   10   12 1    
    21   12   13 am   BACKBONE|DICT|INTERRES
    22   12   34 1    
    23   13   14 2    
    24   13   15 am   BACKBONE|DICT|INTERRES
    25   15   16 1    
    26   15   35 1    
    27   16   17 1    
    28   16   22 1    
    29   16   18 1    
    30   18   19 1    
    31   18   36 1    
    32   18   37 1    
    33   19   20 1    
    34   19   38 1    
    35   19   39 1    
    36   20   21 1    
    37   21   26 ar   
    38   21   22 ar   
    39   22   23 ar   
    40   23   24 ar   
    41   23   40 1    
    42   24   25 ar   
    43   24   41 1    
    44   25   26 ar   
    45   25   42 1    
    46   26   43 1    
    47   27   44 1    
@<TRIPOS>SUBSTRUCTURE
     1 UNK         1 GROUP             0       ****    0 ROOT    
