@<TRIPOS>MOLECULE
ZINC30825978_2970
62   65    1
SMALL
USER_CHARGES


@<TRIPOS>ATOM
      1 C1          5.3788   54.5728   19.2324 C.3       1 UNK         0.0000 
      2 C2          5.5583   54.5315   20.7377 C.ar      1 UNK         0.0000 
      3 C3          6.5544   55.2952   21.3483 C.ar      1 UNK         0.0000 
      4 C4          6.7039   55.2624   22.7322 C.ar      1 UNK         0.0000 
      5 C5          5.8398   54.4957   23.5296 C.ar      1 UNK         0.0000 
      6 C6          4.8712   53.7009   22.8946 C.ar      1 UNK         0.0000 
      7 C7          4.7242   53.7261   21.5110 C.ar      1 UNK         0.0000 
      8 C8          5.9927   54.5355   25.0435 C.2       1 UNK         0.0000 
      9 O9          7.1042   54.7842   25.5166 O.2       1 UNK         0.0000 
     10 N10         4.9199   54.2986   25.8478 N.am      1 UNK         0.0000 
     11 C11         5.1358   54.1883   27.3008 C.3       1 UNK         0.0000 
     12 C12         4.0054   53.3458   27.9390 C.3       1 UNK         0.0000 
     13 N13         2.6283   53.6515   27.5207 N.pl3     1 UNK         0.0000 
     14 C14         2.5161   53.8740   26.0729 C.3       1 UNK         0.0000 
     15 C15         3.5923   54.8056   25.4799 C.3       1 UNK         0.0000 
     16 C16         1.5733   53.2208   28.3356 C.ar      1 UNK         0.0000 
     17 C17         0.6634   52.2028   27.9564 C.ar      1 UNK         0.0000 
     18 C18        -0.2572   51.6974   28.8833 C.ar      1 UNK         0.0000 
     19 C19        -0.3381   52.2325   30.1624 C.ar      1 UNK         0.0000 
     20 C20         0.4665   53.3113   30.5089 C.ar      1 UNK         0.0000 
     21 C21         1.4016   53.8152   29.6037 C.ar      1 UNK         0.0000 
     22 Cl22        2.3050   55.2159   30.0817 Cl        1 UNK         0.0000 
     23 N23         0.7024   51.6534   26.6631 N.pl3     1 UNK         0.0000 
     24 C24        -0.2464   51.6598   25.6753 C.2       1 UNK         0.0000 
     25 S25        -1.8605   52.0960   25.9093 S.2       1 UNK         0.0000 
     26 N26         0.3160   51.3148   24.4724 N.am      1 UNK         0.0000 
     27 C27         0.0146   51.6867   23.2003 C.2       1 UNK         0.0000 
     28 O28        -0.8620   52.4959   22.8845 O.2       1 UNK         0.0000 
     29 C29         0.9008   51.0990   22.1290 C.ar      1 UNK         0.0000 
     30 C30         1.4826   49.8276   22.2673 C.ar      1 UNK         0.0000 
     31 C31         2.2720   49.2986   21.2459 C.ar      1 UNK         0.0000 
     32 C32         2.4976   50.0292   20.0811 C.ar      1 UNK         0.0000 
     33 C33         1.9358   51.2965   19.9313 C.ar      1 UNK         0.0000 
     34 C34         1.1397   51.8252   20.9509 C.ar      1 UNK         0.0000 
     35 C35         2.1789   52.0946   18.6642 C.3       1 UNK         0.0000 
     36 H36         4.3238   54.7157   18.9836 H         1 UNK         0.0000 
     37 H37         5.9298   55.3973   18.7759 H         1 UNK         0.0000 
     38 H38         5.7024   53.6336   18.7778 H         1 UNK         0.0000 
     39 H39         7.2205   55.9017   20.7538 H         1 UNK         0.0000 
     40 H40         7.4853   55.8584   23.1837 H         1 UNK         0.0000 
     41 H41         4.2019   53.0755   23.4658 H         1 UNK         0.0000 
     42 H42         3.9595   53.1229   21.0418 H         1 UNK         0.0000 
     43 H43         5.0754   55.1836   27.7468 H         1 UNK         0.0000 
     44 H44         6.0960   53.7296   27.5505 H         1 UNK         0.0000 
     45 H45         4.1041   53.3542   29.0245 H         1 UNK         0.0000 
     46 H46         4.1648   52.3203   27.6117 H         1 UNK         0.0000 
     47 H47         2.6526   52.9089   25.5845 H         1 UNK         0.0000 
     48 H48         1.5141   54.2268   25.8244 H         1 UNK         0.0000 
     49 H49         3.4286   54.9422   24.4132 H         1 UNK         0.0000 
     50 H50         3.4923   55.7813   25.9482 H         1 UNK         0.0000 
     51 H51        -0.9221   50.8883   28.6134 H         1 UNK         0.0000 
     52 H52        -1.0410   51.8254   30.8791 H         1 UNK         0.0000 
     53 H53         0.3598   53.7533   31.4898 H         1 UNK         0.0000 
     54 H54         1.6420   51.4518   26.3616 H         1 UNK         0.0000 
     55 H55         1.0873   50.6674   24.5328 H         1 UNK         0.0000 
     56 H56         1.3194   49.2256   23.1511 H         1 UNK         0.0000 
     57 H57         2.7036   48.3150   21.3533 H         1 UNK         0.0000 
     58 H58         3.1080   49.6101   19.2927 H         1 UNK         0.0000 
     59 H59         0.7129   52.8112   20.8178 H         1 UNK         0.0000 
     60 H60         1.2313   52.3107   18.1674 H         1 UNK         0.0000 
     61 H61         2.6464   53.0513   18.9013 H         1 UNK         0.0000 
     62 H62         2.8232   51.5609   17.9586 H         1 UNK         0.0000 
@<TRIPOS>BOND
     1    1    2 1    
     2    1   36 1    
     3    1   37 1    
     4    1   38 1    
     5    2    7 ar   
     6    2    3 ar   
     7    3    4 ar   
     8    3   39 1    
     9    4    5 ar   
    10    4   40 1    
    11    5    6 ar   
    12    5    8 1    
    13    6    7 ar   
    14    6   41 1    
    15    7   42 1    
    16    8    9 2    
    17    8   10 am   BACKBONE|DICT|INTERRES
    18   10   15 1    
    19   10   11 1    
    20   11   12 1    
    21   11   43 1    
    22   11   44 1    
    23   12   13 1    
    24   12   45 1    
    25   12   46 1    
    26   13   14 1    
    27   13   16 1    
    28   14   15 1    
    29   14   47 1    
    30   14   48 1    
    31   15   49 1    
    32   15   50 1    
    33   16   21 ar   
    34   16   17 ar   
    35   17   18 ar   
    36   17   23 1    
    37   18   19 ar   
    38   18   51 1    
    39   19   20 ar   
    40   19   52 1    
    41   20   21 ar   
    42   20   53 1    
    43   21   22 1    
    44   23   24 1    
    45   23   54 1    
    46   24   25 2    
    47   24   26 am   BACKBONE|DICT|INTERRES
    48   26   27 am   BACKBONE|DICT|INTERRES
    49   26   55 1    
    50   27   28 2    
    51   27   29 1    
    52   29   34 ar   
    53   29   30 ar   
    54   30   31 ar   
    55   30   56 1    
    56   31   32 ar   
    57   31   57 1    
    58   32   33 ar   
    59   32   58 1    
    60   33   34 ar   
    61   33   35 1    
    62   34   59 1    
    63   35   60 1    
    64   35   61 1    
    65   35   62 1    
@<TRIPOS>SUBSTRUCTURE
     1 UNK         1 GROUP             0       ****    0 ROOT    
