@<TRIPOS>MOLECULE
ZINC58826712_5972
55   59    1
SMALL
USER_CHARGES


@<TRIPOS>ATOM
      1 C1         -0.0847   46.7047   18.4374 C.ar      1 UNK         0.0000 
      2 C2         -0.2427   47.8777   19.1727 C.ar      1 UNK         0.0000 
      3 C3         -0.8437   47.8423   20.4333 C.ar      1 UNK         0.0000 
      4 C4         -1.2962   46.6205   20.9438 C.ar      1 UNK         0.0000 
      5 C5         -1.0856   45.4196   20.2439 C.ar      1 UNK         0.0000 
      6 C6         -0.4933   45.4837   18.9725 C.ar      1 UNK         0.0000 
      7 C7         -1.3993   44.0968   20.8802 C.2       1 UNK         0.0000 
      8 O8         -2.0971   44.0902   21.9234 O.co2     1 UNK         0.0000 
      9 O9         -0.8955   43.0635   20.3737 O.co2     1 UNK         0.0000 
     10 C10        -0.9152   49.0693   21.2711 C.2       1 UNK         0.0000 
     11 C11        -1.8686   49.6093   22.1219 C.2       1 UNK         0.0000 
     12 C12        -1.2881   50.7308   22.7215 C.2       1 UNK         0.0000 
     13 C13         0.0065   50.8360   22.2261 C.2       1 UNK         0.0000 
     14 O14         0.2053   49.8392   21.3218 O.3       1 UNK         0.0000 
     15 C15         1.1507   51.6857   22.5230 C.2       1 UNK         0.0000 
     16 N16         1.1228   52.5297   23.4795 N.2       1 UNK         0.0000 
     17 C17         2.2698   53.1778   23.8637 C.2       1 UNK         0.0000 
     18 C18         2.6485   53.5482   25.1760 C.2       1 UNK         0.0000 
     19 C19         3.9726   54.0793   25.2277 C.2       1 UNK         0.0000 
     20 C20         4.5399   54.2168   23.9545 C.2       1 UNK         0.0000 
     21 S21         3.4773   53.6977   22.7016 S.3       1 UNK         0.0000 
     22 C22         5.9599   54.6804   23.6683 C.3       1 UNK         0.0000 
     23 C23         6.4865   55.4438   24.8973 C.3       1 UNK         0.0000 
     24 C24         6.2782   54.6258   26.1824 C.3       1 UNK         0.0000 
     25 C25         4.7815   54.4030   26.4969 C.3       1 UNK         0.0000 
     26 C26         1.8316   53.2624   26.3473 C.2       1 UNK         0.0000 
     27 O27         1.1054   52.2708   26.4214 O.2       1 UNK         0.0000 
     28 N28         1.9046   54.1808   27.3217 N.am      1 UNK         0.0000 
     29 C29         1.1328   54.1716   28.5642 C.3       1 UNK         0.0000 
     30 C30         1.7850   53.3550   29.6614 C.2       1 UNK         0.0000 
     31 C31         1.2864   52.6318   30.7362 C.2       1 UNK         0.0000 
     32 C32         2.3842   52.0967   31.4073 C.2       1 UNK         0.0000 
     33 C33         3.5044   52.4720   30.6891 C.2       1 UNK         0.0000 
     34 O34         3.1433   53.2570   29.6457 O.3       1 UNK         0.0000 
     35 H35         0.3870   46.7383   17.4657 H         1 UNK         0.0000 
     36 H36         0.1201   48.8115   18.7673 H         1 UNK         0.0000 
     37 H37        -1.7282   46.5959   21.9353 H         1 UNK         0.0000 
     38 H38        -0.3179   44.5812   18.4033 H         1 UNK         0.0000 
     39 H39        -2.8560   49.2153   22.3106 H         1 UNK         0.0000 
     40 H40        -1.7372   51.3690   23.4689 H         1 UNK         0.0000 
     41 H41         2.0183   51.4742   21.9024 H         1 UNK         0.0000 
     42 H42         6.5966   53.8150   23.4786 H         1 UNK         0.0000 
     43 H43         6.0130   55.2970   22.7716 H         1 UNK         0.0000 
     44 H44         7.5404   55.6733   24.7579 H         1 UNK         0.0000 
     45 H45         5.9803   56.4064   24.9839 H         1 UNK         0.0000 
     46 H46         6.7763   53.6596   26.0806 H         1 UNK         0.0000 
     47 H47         6.7571   55.1213   27.0286 H         1 UNK         0.0000 
     48 H48         4.3841   55.2969   26.9723 H         1 UNK         0.0000 
     49 H49         4.6850   53.6043   27.2348 H         1 UNK         0.0000 
     50 H50         2.5669   54.9316   27.2094 H         1 UNK         0.0000 
     51 H51         0.1041   53.8519   28.3838 H         1 UNK         0.0000 
     52 H52         1.0540   55.2083   28.8928 H         1 UNK         0.0000 
     53 H53         0.2474   52.5144   31.0148 H         1 UNK         0.0000 
     54 H54         2.3572   51.4969   32.3072 H         1 UNK         0.0000 
     55 H55         4.5611   52.2816   30.8021 H         1 UNK         0.0000 
@<TRIPOS>BOND
     1    1    6 ar   
     2    1    2 ar   
     3    1   35 1    
     4    2    3 ar   
     5    2   36 1    
     6    3    4 ar   
     7    3   10 1    
     8    4    5 ar   
     9    4   37 1    
    10    5    6 ar   
    11    5    7 1    
    12    6   38 1    
    13    7    8 2    
    14    7    9 1    
    15   10   14 1    
    16   10   11 2    
    17   11   12 1    
    18   11   39 1    
    19   12   13 2    
    20   12   40 1    
    21   13   14 1    
    22   13   15 1    
    23   15   16 2    
    24   15   41 1    
    25   16   17 1    
    26   17   21 1    
    27   17   18 2    
    28   18   19 1    
    29   18   26 1    
    30   19   25 1    
    31   19   20 2    
    32   20   21 1    
    33   20   22 1    
    34   22   23 1    
    35   22   42 1    
    36   22   43 1    
    37   23   24 1    
    38   23   44 1    
    39   23   45 1    
    40   24   25 1    
    41   24   46 1    
    42   24   47 1    
    43   25   48 1    
    44   25   49 1    
    45   26   27 2    
    46   26   28 am   BACKBONE|DICT|INTERRES
    47   28   29 1    
    48   28   50 1    
    49   29   30 1    
    50   29   51 1    
    51   29   52 1    
    52   30   34 1    
    53   30   31 2    
    54   31   32 1    
    55   31   53 1    
    56   32   33 2    
    57   32   54 1    
    58   33   34 1    
    59   33   55 1    
@<TRIPOS>SUBSTRUCTURE
     1 UNK         1 GROUP             0       ****    0 ROOT    
