@<TRIPOS>MOLECULE
ZINC39759978_3138
63   66    1
SMALL
USER_CHARGES


@<TRIPOS>ATOM
      1 C1          2.1182   48.4056   20.6537 C.3       1 UNK         0.0000 
      2 C2          1.9407   49.6549   21.5341 C.3       1 UNK         0.0000 
      3 N3          0.8574   50.4947   21.0251 N.pl3     1 UNK         0.0000 
      4 C4          0.9220   51.6747   20.3014 C.ar      1 UNK         0.0000 
      5 N5         -0.2854   52.0967   20.0177 N.2       1 UNK         0.0000 
      6 N6         -1.1889   51.1898   20.5511 N.2       1 UNK         0.0000 
      7 C7         -0.4950   50.2454   21.1355 C.ar      1 UNK         0.0000 
      8 S8         -1.2164   48.8606   21.9529 S.3       1 UNK         0.0000 
      9 C9         -1.5745   49.6978   23.5331 C.3       1 UNK         0.0000 
     10 C10        -2.9020   50.4683   23.5685 C.2       1 UNK         0.0000 
     11 O11        -3.7059   50.3796   22.6384 O.2       1 UNK         0.0000 
     12 N12        -3.0899   51.2416   24.6580 N.am      1 UNK         0.0000 
     13 C13        -4.2066   52.0401   24.9532 C.ar      1 UNK         0.0000 
     14 C14        -3.9850   53.1820   25.7306 C.ar      1 UNK         0.0000 
     15 C15        -5.0465   54.0167   26.0818 C.ar      1 UNK         0.0000 
     16 C16        -6.3413   53.6969   25.6803 C.ar      1 UNK         0.0000 
     17 C17        -6.5716   52.5557   24.8972 C.ar      1 UNK         0.0000 
     18 C18        -5.5132   51.7222   24.5452 C.ar      1 UNK         0.0000 
     19 O19        -7.8400   52.1829   24.5023 O.3       1 UNK         0.0000 
     20 C20        -8.7857   53.2558   24.5264 C.3       1 UNK         0.0000 
     21 C21        -8.6723   54.0326   25.8606 C.3       1 UNK         0.0000 
     22 O22        -7.3538   54.5657   26.0324 O.3       1 UNK         0.0000 
     23 C23         2.1888   52.4020   19.8456 C.3       1 UNK         0.0000 
     24 H24         1.8935   53.2964   19.2838 H         1 UNK         0.0000 
     25 C25         3.0360   51.5181   18.8892 C.3       1 UNK         0.0000 
     26 O26         2.3045   50.9123   17.8352 O.3       1 UNK         0.0000 
     27 N27         2.9274   52.8592   21.0381 N.am      1 UNK         0.0000 
     28 C28         4.0413   53.6183   21.0426 C.2       1 UNK         0.0000 
     29 O29         4.5939   53.9931   20.0078 O.2       1 UNK         0.0000 
     30 C30         4.6291   53.9731   22.3932 C.ar      1 UNK         0.0000 
     31 C31         5.9274   54.4962   22.4553 C.ar      1 UNK         0.0000 
     32 C32         6.5058   54.8145   23.6784 C.ar      1 UNK         0.0000 
     33 C33         5.8175   54.6107   24.8691 C.ar      1 UNK         0.0000 
     34 C34         4.5078   54.1080   24.8172 C.ar      1 UNK         0.0000 
     35 C35         3.9182   53.7984   23.5914 C.ar      1 UNK         0.0000 
     36 O36         6.4993   54.9283   26.0282 O.3       1 UNK         0.0000 
     37 C37         5.8842   54.6641   27.2826 C.3       1 UNK         0.0000 
     38 H38         2.7896   47.6973   21.1324 H         1 UNK         0.0000 
     39 H39         1.1751   47.8837   20.4819 H         1 UNK         0.0000 
     40 H40         2.5362   48.6493   19.6758 H         1 UNK         0.0000 
     41 H41         2.8615   50.2324   21.5987 H         1 UNK         0.0000 
     42 H42         1.6920   49.3691   22.5570 H         1 UNK         0.0000 
     43 H43        -0.7441   50.3546   23.7955 H         1 UNK         0.0000 
     44 H44        -1.6235   48.9268   24.3034 H         1 UNK         0.0000 
     45 H45        -2.3273   51.3055   25.3147 H         1 UNK         0.0000 
     46 H46        -2.9884   53.4299   26.0681 H         1 UNK         0.0000 
     47 H47        -4.8697   54.8994   26.6774 H         1 UNK         0.0000 
     48 H48        -5.7239   50.8310   23.9728 H         1 UNK         0.0000 
     49 H49        -8.5834   53.9336   23.6949 H         1 UNK         0.0000 
     50 H50        -9.7911   52.8572   24.3948 H         1 UNK         0.0000 
     51 H51        -9.3977   54.8441   25.8956 H         1 UNK         0.0000 
     52 H52        -8.8925   53.3539   26.6849 H         1 UNK         0.0000 
     53 H53         3.8524   52.0966   18.4527 H         1 UNK         0.0000 
     54 H54         3.5048   50.7177   19.4527 H         1 UNK         0.0000 
     55 H55         2.9192   50.3263   17.3579 H         1 UNK         0.0000 
     56 H56         2.4153   52.8056   21.9028 H         1 UNK         0.0000 
     57 H57         6.5027   54.6612   21.5538 H         1 UNK         0.0000 
     58 H58         7.5043   55.2190   23.7048 H         1 UNK         0.0000 
     59 H59         3.9364   53.9438   25.7168 H         1 UNK         0.0000 
     60 H60         2.9103   53.4092   23.5969 H         1 UNK         0.0000 
     61 H61         6.5891   54.8974   28.0800 H         1 UNK         0.0000 
     62 H62         4.9994   55.2847   27.4295 H         1 UNK         0.0000 
     63 H63         5.6106   53.6127   27.3841 H         1 UNK         0.0000 
@<TRIPOS>BOND
     1    1    2 1    
     2    1   38 1    
     3    1   39 1    
     4    1   40 1    
     5    2    3 1    
     6    2   41 1    
     7    2   42 1    
     8    3    7 ar   
     9    3    4 ar   
    10    4    5 ar   
    11    4   23 1    
    12    5    6 ar   
    13    6    7 ar   
    14    7    8 1    
    15    8    9 1    
    16    9   10 1    
    17    9   43 1    
    18    9   44 1    
    19   10   11 2    
    20   10   12 am   BACKBONE|DICT|INTERRES
    21   12   13 1    
    22   12   45 1    
    23   13   18 ar   
    24   13   14 ar   
    25   14   15 ar   
    26   14   46 1    
    27   15   16 ar   
    28   15   47 1    
    29   16   22 1    
    30   16   17 ar   
    31   17   18 ar   
    32   17   19 1    
    33   18   48 1    
    34   19   20 1    
    35   20   21 1    
    36   20   49 1    
    37   20   50 1    
    38   21   22 1    
    39   21   51 1    
    40   21   52 1    
    41   23   24 1    
    42   23   25 1    
    43   23   27 1    
    44   25   26 1    
    45   25   53 1    
    46   25   54 1    
    47   26   55 1    
    48   27   28 am   BACKBONE|DICT|INTERRES
    49   27   56 1    
    50   28   29 2    
    51   28   30 1    
    52   30   35 ar   
    53   30   31 ar   
    54   31   32 ar   
    55   31   57 1    
    56   32   33 ar   
    57   32   58 1    
    58   33   34 ar   
    59   33   36 1    
    60   34   35 ar   
    61   34   59 1    
    62   35   60 1    
    63   36   37 1    
    64   37   61 1    
    65   37   62 1    
    66   37   63 1    
@<TRIPOS>SUBSTRUCTURE
     1 UNK         1 GROUP             0       ****    0 ROOT    
