@<TRIPOS>MOLECULE
ZINC47042155_1551
55   58    1
SMALL
USER_CHARGES


@<TRIPOS>ATOM
      1 C1          3.6333   52.6895   20.6196 C.ar      1 UNK         0.0000 
      2 C2          3.5794   52.8957   21.9945 C.ar      1 UNK         0.0000 
      3 C3          4.4922   53.7471   22.6216 C.ar      1 UNK         0.0000 
      4 C4          5.4339   54.4340   21.8420 C.ar      1 UNK         0.0000 
      5 C5          5.4833   54.2535   20.4457 C.ar      1 UNK         0.0000 
      6 C6          4.5881   53.3510   19.8530 C.ar      1 UNK         0.0000 
      7 N7          6.4590   54.8960   19.6427 N.am      1 UNK         0.0000 
      8 C8          6.8775   54.3989   18.3350 C.3       1 UNK         0.0000 
      9 C9          8.0040   55.3146   17.9626 C.3       1 UNK         0.0000 
     10 N10         7.7119   56.4419   18.8075 N.am      1 UNK         0.0000 
     11 C11         6.9628   56.1403   19.8808 C.2       1 UNK         0.0000 
     12 O12         6.7044   56.9071   20.8067 O.2       1 UNK         0.0000 
     13 N13         4.4093   53.7996   24.0225 N.am      1 UNK         0.0000 
     14 C14         5.2124   54.3751   24.9450 C.2       1 UNK         0.0000 
     15 O15         6.1805   55.0935   24.6937 O.2       1 UNK         0.0000 
     16 C16         4.8598   54.0144   26.4079 C.3       1 UNK         0.0000 
     17 H17         4.9490   52.9265   26.4397 H         1 UNK         0.0000 
     18 C18         5.8447   54.5971   27.4539 C.3       1 UNK         0.0000 
     19 C19         5.3308   54.3116   28.8815 C.3       1 UNK         0.0000 
     20 C20         3.8383   54.6473   29.0840 C.3       1 UNK         0.0000 
     21 N21         3.0612   53.8972   28.0844 N.am      1 UNK         0.0000 
     22 C22         3.3782   54.3599   26.7164 C.3       1 UNK         0.0000 
     23 C23         2.5001   52.7045   28.4595 C.2       1 UNK         0.0000 
     24 O24         2.8441   52.1548   29.5149 O.2       1 UNK         0.0000 
     25 N25         1.4571   52.1779   27.7575 N.am      1 UNK         0.0000 
     26 C26         1.0779   52.4069   26.3559 C.3       1 UNK         0.0000 
     27 C27        -0.1972   51.5910   26.1834 C.3       1 UNK         0.0000 
     28 C28        -0.8382   51.6971   27.5477 C.3       1 UNK         0.0000 
     29 C29         0.3439   51.5620   28.5014 C.3       1 UNK         0.0000 
     30 H30         2.9414   52.0096   20.1445 H         1 UNK         0.0000 
     31 H31         2.8388   52.3581   22.5690 H         1 UNK         0.0000 
     32 H32         6.1545   55.0780   22.3180 H         1 UNK         0.0000 
     33 H33         4.6093   53.1544   18.7909 H         1 UNK         0.0000 
     34 H34         6.0560   54.4627   17.6199 H         1 UNK         0.0000 
     35 H35         7.2024   53.3598   18.4049 H         1 UNK         0.0000 
     36 H36         8.9766   54.8869   18.2167 H         1 UNK         0.0000 
     37 H37         8.0089   55.6024   16.9103 H         1 UNK         0.0000 
     38 H38         8.4123   57.1648   18.8798 H         1 UNK         0.0000 
     39 H39         3.6558   53.2496   24.4016 H         1 UNK         0.0000 
     40 H40         6.8365   54.1497   27.3656 H         1 UNK         0.0000 
     41 H41         5.9045   55.6850   27.3734 H         1 UNK         0.0000 
     42 H42         5.5035   53.2641   29.1355 H         1 UNK         0.0000 
     43 H43         5.9045   54.8967   29.5996 H         1 UNK         0.0000 
     44 H44         3.4679   54.5052   30.0986 H         1 UNK         0.0000 
     45 H45         3.6544   55.6999   28.8916 H         1 UNK         0.0000 
     46 H46         3.2584   55.4419   26.7177 H         1 UNK         0.0000 
     47 H47         2.6771   54.0697   25.9473 H         1 UNK         0.0000 
     48 H48         0.8271   53.4568   26.2191 H         1 UNK         0.0000 
     49 H49         1.8590   52.1032   25.6582 H         1 UNK         0.0000 
     50 H50        -0.8284   51.9600   25.3739 H         1 UNK         0.0000 
     51 H51         0.0439   50.5491   25.9597 H         1 UNK         0.0000 
     52 H52        -1.6088   50.9458   27.7305 H         1 UNK         0.0000 
     53 H53        -1.2957   52.6790   27.6674 H         1 UNK         0.0000 
     54 H54         0.5225   50.4970   28.6297 H         1 UNK         0.0000 
     55 H55         0.1028   52.0710   29.4366 H         1 UNK         0.0000 
@<TRIPOS>BOND
     1    1    6 ar   
     2    1    2 ar   
     3    1   30 1    
     4    2    3 ar   
     5    2   31 1    
     6    3    4 ar   
     7    3   13 1    
     8    4    5 ar   
     9    4   32 1    
    10    5    6 ar   
    11    5    7 1    
    12    6   33 1    
    13    7   11 am   BACKBONE|DICT|INTERRES
    14    7    8 1    
    15    8    9 1    
    16    8   34 1    
    17    8   35 1    
    18    9   10 1    
    19    9   36 1    
    20    9   37 1    
    21   10   11 am   BACKBONE|DICT|INTERRES
    22   10   38 1    
    23   11   12 2    
    24   13   14 am   BACKBONE|DICT|INTERRES
    25   13   39 1    
    26   14   15 2    
    27   14   16 1    
    28   16   17 1    
    29   16   22 1    
    30   16   18 1    
    31   18   19 1    
    32   18   40 1    
    33   18   41 1    
    34   19   20 1    
    35   19   42 1    
    36   19   43 1    
    37   20   21 1    
    38   20   44 1    
    39   20   45 1    
    40   21   22 1    
    41   21   23 am   BACKBONE|DICT|INTERRES
    42   22   46 1    
    43   22   47 1    
    44   23   24 2    
    45   23   25 am   BACKBONE|DICT|INTERRES
    46   25   29 1    
    47   25   26 1    
    48   26   27 1    
    49   26   48 1    
    50   26   49 1    
    51   27   28 1    
    52   27   50 1    
    53   27   51 1    
    54   28   29 1    
    55   28   52 1    
    56   28   53 1    
    57   29   54 1    
    58   29   55 1    
@<TRIPOS>SUBSTRUCTURE
     1 UNK         1 GROUP             0       ****    0 ROOT    
