@<TRIPOS>MOLECULE
ZINC53736021_1758
37   39    1
SMALL
USER_CHARGES


@<TRIPOS>ATOM
      1 C1          2.4662   54.3761   24.4163 C.3       1 UNK         0.0000 
      2 C2          3.5070   54.0970   25.4906 C.ar      1 UNK         0.0000 
      3 C3          4.8273   54.4661   25.2006 C.ar      1 UNK         0.0000 
      4 C4          5.8445   54.2833   26.1327 C.ar      1 UNK         0.0000 
      5 C5          5.5627   53.6992   27.3612 C.ar      1 UNK         0.0000 
      6 C6          4.2584   53.3118   27.6602 C.ar      1 UNK         0.0000 
      7 C7          3.2054   53.5422   26.7568 C.ar      1 UNK         0.0000 
      8 N8          1.8873   53.1681   27.1541 N.pl3     1 UNK         0.0000 
      9 C9          0.9579   52.4030   26.4498 C.ar      1 UNK         0.0000 
     10 C10         0.9586   51.7533   25.2040 C.ar      1 UNK         0.0000 
     11 C11        -0.1895   51.0400   24.8561 C.ar      1 UNK         0.0000 
     12 C12        -1.2924   50.9565   25.7021 C.ar      1 UNK         0.0000 
     13 C13        -1.2996   51.5935   26.9395 C.ar      1 UNK         0.0000 
     14 C14        -0.1644   52.3219   27.3144 C.ar      1 UNK         0.0000 
     15 N15         0.0487   53.0077   28.4704 N.2       1 UNK         0.0000 
     16 C16         1.2600   53.4980   28.3568 C.ar      1 UNK         0.0000 
     17 C17         1.9148   54.2739   29.5007 C.3       1 UNK         0.0000 
     18 H18         2.7989   54.8196   29.1727 H         1 UNK         0.0000 
     19 C19         0.9954   55.3138   30.1650 C.3       1 UNK         0.0000 
     20 O20         2.3115   53.3361   30.4811 O.3       1 UNK         0.0000 
     21 N21        -2.3986   50.2108   25.3175 N.pl3     1 UNK         0.0000 
     22 F22         7.1043   54.6748   25.8411 F         1 UNK         0.0000 
     23 H23         1.4588   54.4967   24.8108 H         1 UNK         0.0000 
     24 H24         2.7013   55.2970   23.8984 H         1 UNK         0.0000 
     25 H25         2.4763   53.5989   23.6534 H         1 UNK         0.0000 
     26 H26         5.0739   54.8969   24.2424 H         1 UNK         0.0000 
     27 H27         6.3562   53.5360   28.0761 H         1 UNK         0.0000 
     28 H28         4.0735   52.8349   28.6119 H         1 UNK         0.0000 
     29 H29         1.8081   51.7647   24.5380 H         1 UNK         0.0000 
     30 H30        -0.2128   50.5232   23.9056 H         1 UNK         0.0000 
     31 H31        -2.1450   51.5090   27.6059 H         1 UNK         0.0000 
     32 H32         0.7086   56.0865   29.4527 H         1 UNK         0.0000 
     33 H33         0.0837   54.8676   30.5619 H         1 UNK         0.0000 
     34 H34         1.4967   55.8259   30.9861 H         1 UNK         0.0000 
     35 H35         1.5152   52.8994   30.7984 H         1 UNK         0.0000 
     36 H36        -2.9995   49.9175   26.0782 H         1 UNK         0.0000 
     37 H37        -2.2588   49.5600   24.5593 H         1 UNK         0.0000 
@<TRIPOS>BOND
     1    1    2 1    
     2    1   23 1    
     3    1   24 1    
     4    1   25 1    
     5    2    7 ar   
     6    2    3 ar   
     7    3    4 ar   
     8    3   26 1    
     9    4    5 ar   
    10    4   22 1    
    11    5    6 ar   
    12    5   27 1    
    13    6    7 ar   
    14    6   28 1    
    15    7    8 1    
    16    8   16 ar   
    17    8    9 ar   
    18    9   14 ar   
    19    9   10 ar   
    20   10   11 ar   
    21   10   29 1    
    22   11   12 ar   
    23   11   30 1    
    24   12   13 ar   
    25   12   21 1    
    26   13   14 ar   
    27   13   31 1    
    28   14   15 ar   
    29   15   16 ar   
    30   16   17 1    
    31   17   18 1    
    32   17   19 1    
    33   17   20 1    
    34   19   32 1    
    35   19   33 1    
    36   19   34 1    
    37   20   35 1    
    38   21   36 1    
    39   21   37 1    
@<TRIPOS>SUBSTRUCTURE
     1 UNK         1 GROUP             0       ****    0 ROOT    
