@<TRIPOS>MOLECULE
ZINC67426703_1362
54   56    1
SMALL
USER_CHARGES


@<TRIPOS>ATOM
      1 C1          7.0612   53.9148   27.1419 C.3       1 UNK         0.0000 
      2 C2          5.7522   54.5173   26.6090 C.3       1 UNK         0.0000 
      3 H3          5.7429   55.5780   26.8748 H         1 UNK         0.0000 
      4 C4          5.6243   54.5031   25.0733 C.ar      1 UNK         0.0000 
      5 C5          6.7041   54.9094   24.2896 C.ar      1 UNK         0.0000 
      6 C6          6.6291   54.8966   22.9009 C.ar      1 UNK         0.0000 
      7 C7          5.4549   54.4962   22.2522 C.ar      1 UNK         0.0000 
      8 C8          4.3650   54.0982   23.0391 C.ar      1 UNK         0.0000 
      9 C9          4.4470   54.1014   24.4273 C.ar      1 UNK         0.0000 
     10 N10         5.3811   54.4749   20.8606 N.pl3     1 UNK         0.0000 
     11 C11         4.4231   53.6398   20.1159 C.3       1 UNK         0.0000 
     12 C12         5.0683   52.8967   18.9401 C.3       1 UNK         0.0000 
     13 N13         5.7273   53.9110   17.9894 N.4       1 UNK         0.0000 
     14 C14         6.7696   54.7512   18.7546 C.3       1 UNK         0.0000 
     15 C15         6.0999   55.4157   19.9788 C.3       1 UNK         0.0000 
     16 C16         6.3787   53.1605   16.8075 C.3       1 UNK         0.0000 
     17 N17         4.6269   53.8886   27.2803 N.am      1 UNK         0.0000 
     18 C18         4.2124   54.1450   28.5383 C.2       1 UNK         0.0000 
     19 O19         4.8077   54.8967   29.3068 O.2       1 UNK         0.0000 
     20 C20         2.9748   53.4437   28.9420 C.2       1 UNK         0.0000 
     21 O21         2.7952   53.1095   30.1148 O.2       1 UNK         0.0000 
     22 N22         2.1073   53.2575   27.9155 N.am      1 UNK         0.0000 
     23 C23         0.8734   52.6116   27.9008 C.ar      1 UNK         0.0000 
     24 C24         0.3471   52.2840   26.6468 C.ar      1 UNK         0.0000 
     25 C25        -0.8791   51.6260   26.5497 C.ar      1 UNK         0.0000 
     26 C26        -1.5811   51.2969   27.7078 C.ar      1 UNK         0.0000 
     27 C27        -1.0541   51.6334   28.9534 C.ar      1 UNK         0.0000 
     28 C28         0.1567   52.2945   29.0573 C.ar      1 UNK         0.0000 
     29 F29        -1.6957   51.2966   30.0818 F         1 UNK         0.0000 
     30 H30         7.9045   54.4970   26.8178 H         1 UNK         0.0000 
     31 H31         7.0999   53.9031   28.2332 H         1 UNK         0.0000 
     32 H32         7.2024   52.8964   26.7934 H         1 UNK         0.0000 
     33 H33         7.6188   55.2398   24.7503 H         1 UNK         0.0000 
     34 H34         7.5058   55.1914   22.3438 H         1 UNK         0.0000 
     35 H35         3.4283   53.8059   22.5881 H         1 UNK         0.0000 
     36 H36         3.5737   53.7963   24.9823 H         1 UNK         0.0000 
     37 H37         3.9348   52.9047   20.7531 H         1 UNK         0.0000 
     38 H38         3.6386   54.3106   19.7607 H         1 UNK         0.0000 
     39 H39         4.3041   52.3794   18.3563 H         1 UNK         0.0000 
     40 H40         5.8288   52.1889   19.2802 H         1 UNK         0.0000 
     41 H41         7.1116   55.5105   18.0487 H         1 UNK         0.0000 
     42 H42         7.5986   54.0969   19.0313 H         1 UNK         0.0000 
     43 H43         5.3323   56.1095   19.6323 H         1 UNK         0.0000 
     44 H44         6.8190   56.0312   20.5169 H         1 UNK         0.0000 
     45 H45         7.1353   52.4788   17.2034 H         1 UNK         0.0000 
     46 H46         5.5891   52.6025   16.2985 H         1 UNK         0.0000 
     47 H47         6.8197   53.9032   16.1408 H         1 UNK         0.0000 
     48 H48         4.1581   53.1707   26.7505 H         1 UNK         0.0000 
     49 H49         2.3898   53.6237   27.0221 H         1 UNK         0.0000 
     50 H50         0.8849   52.5228   25.7404 H         1 UNK         0.0000 
     51 H51        -1.2781   51.3536   25.5845 H         1 UNK         0.0000 
     52 H52        -2.5113   50.7504   27.6517 H         1 UNK         0.0000 
     53 H53         0.5079   52.5352   30.0475 H         1 UNK         0.0000 
     54 H54         5.0027   54.5274   17.6462 H         1 UNK         0.0000 
@<TRIPOS>BOND
     1    1    2 1    
     2    1   30 1    
     3    1   31 1    
     4    1   32 1    
     5    2    3 1    
     6    2    4 1    
     7    2   17 1    
     8    4    9 ar   
     9    4    5 ar   
    10    5    6 ar   
    11    5   33 1    
    12    6    7 ar   
    13    6   34 1    
    14    7    8 ar   
    15    7   10 1    
    16    8    9 ar   
    17    8   35 1    
    18    9   36 1    
    19   10   15 1    
    20   10   11 1    
    21   11   12 1    
    22   11   37 1    
    23   11   38 1    
    24   12   13 1    
    25   12   39 1    
    26   12   40 1    
    27   13   14 1    
    28   13   16 1    
    29   13   54 1    
    30   14   15 1    
    31   14   41 1    
    32   14   42 1    
    33   15   43 1    
    34   15   44 1    
    35   16   45 1    
    36   16   46 1    
    37   16   47 1    
    38   17   18 am   BACKBONE|DICT|INTERRES
    39   17   48 1    
    40   18   19 2    
    41   18   20 1    
    42   20   21 2    
    43   20   22 am   BACKBONE|DICT|INTERRES
    44   22   23 1    
    45   22   49 1    
    46   23   28 ar   
    47   23   24 ar   
    48   24   25 ar   
    49   24   50 1    
    50   25   26 ar   
    51   25   51 1    
    52   26   27 ar   
    53   26   52 1    
    54   27   28 ar   
    55   27   29 1    
    56   28   53 1    
@<TRIPOS>SUBSTRUCTURE
     1 UNK         1 GROUP             0       ****    0 ROOT    
