@<TRIPOS>MOLECULE
ZINC46815489_2425
56   59    1
SMALL
USER_CHARGES


@<TRIPOS>ATOM
      1 C1          0.6328   49.3960   20.6060 C.ar      1 UNK         0.0000 
      2 C2         -0.2564   48.3318   20.5154 C.ar      1 UNK         0.0000 
      3 C3         -0.0660   47.3141   19.5715 C.ar      1 UNK         0.0000 
      4 C4          1.0207   47.4070   18.6964 C.ar      1 UNK         0.0000 
      5 C5          1.9040   48.4770   18.7758 C.ar      1 UNK         0.0000 
      6 C6          1.7268   49.4752   19.7331 C.ar      1 UNK         0.0000 
      7 N7          2.7045   50.4888   19.7611 N.am      1 UNK         0.0000 
      8 C8          2.7465   51.6208   20.5005 C.2       1 UNK         0.0000 
      9 O9          1.8424   51.9988   21.2487 O.2       1 UNK         0.0000 
     10 C10         4.0418   52.4561   20.3780 C.3       1 UNK         0.0000 
     11 H11         4.8516   51.7290   20.4660 H         1 UNK         0.0000 
     12 C12         4.1073   53.0990   18.9824 C.3       1 UNK         0.0000 
     13 C13         5.4558   53.8172   18.9027 C.3       1 UNK         0.0000 
     14 C14         5.5671   54.9343   19.9559 C.3       1 UNK         0.0000 
     15 N15         5.3058   54.3975   21.3243 N.am      1 UNK         0.0000 
     16 C16         4.1391   53.5004   21.5261 C.3       1 UNK         0.0000 
     17 C17         6.1151   54.8210   22.3455 C.2       1 UNK         0.0000 
     18 O18         7.1047   55.5243   22.1281 O.2       1 UNK         0.0000 
     19 C19         5.8160   54.4969   23.8065 C.ar      1 UNK         0.0000 
     20 C20         6.8816   54.3033   24.6979 C.ar      1 UNK         0.0000 
     21 C21         6.6637   54.1022   26.0600 C.ar      1 UNK         0.0000 
     22 C22         5.3667   54.0511   26.5609 C.ar      1 UNK         0.0000 
     23 C23         4.2854   54.2267   25.6918 C.ar      1 UNK         0.0000 
     24 C24         4.5129   54.4897   24.3378 C.ar      1 UNK         0.0000 
     25 Cl25        2.6569   54.0966   26.2576 Cl        1 UNK         0.0000 
     26 Cl26        5.1368   53.7518   28.2495 Cl        1 UNK         0.0000 
     27 N27        -0.9171   46.2147   19.5026 N.pl3     1 UNK         0.0000 
     28 C28        -1.4927   45.7967   18.2169 C.3       1 UNK         0.0000 
     29 C29        -1.9111   44.3090   18.1486 C.3       1 UNK         0.0000 
     30 N30        -2.2652   43.7289   19.4498 N.am      1 UNK         0.0000 
     31 C31        -2.1243   44.3339   20.6419 C.2       1 UNK         0.0000 
     32 O32        -2.2668   43.6959   21.6816 O.2       1 UNK         0.0000 
     33 C33        -1.8035   45.8429   20.6205 C.3       1 UNK         0.0000 
     34 H34         0.4475   50.1310   21.3724 H         1 UNK         0.0000 
     35 H35        -1.0889   48.3040   21.2014 H         1 UNK         0.0000 
     36 H36         1.2043   46.6383   17.9614 H         1 UNK         0.0000 
     37 H37         2.7278   48.5085   18.0819 H         1 UNK         0.0000 
     38 H38         3.4704   50.3559   19.1068 H         1 UNK         0.0000 
     39 H39         4.1025   52.3619   18.1769 H         1 UNK         0.0000 
     40 H40         3.3307   53.8542   18.8403 H         1 UNK         0.0000 
     41 H41         6.2798   53.1096   19.0125 H         1 UNK         0.0000 
     42 H42         5.5796   54.2515   17.9093 H         1 UNK         0.0000 
     43 H43         6.5727   55.3420   19.8441 H         1 UNK         0.0000 
     44 H44         4.8256   55.6965   19.7201 H         1 UNK         0.0000 
     45 H45         3.2395   54.1174   21.5544 H         1 UNK         0.0000 
     46 H46         4.2637   52.8965   22.4259 H         1 UNK         0.0000 
     47 H47         7.9043   54.3050   24.3426 H         1 UNK         0.0000 
     48 H48         7.5001   53.9585   26.7282 H         1 UNK         0.0000 
     49 H49         3.6553   54.6904   23.7148 H         1 UNK         0.0000 
     50 H50        -0.8560   46.0554   17.3709 H         1 UNK         0.0000 
     51 H51        -2.4009   46.3955   18.1228 H         1 UNK         0.0000 
     52 H52        -1.0252   43.7492   17.8411 H         1 UNK         0.0000 
     53 H53        -2.6900   44.1506   17.4007 H         1 UNK         0.0000 
     54 H54        -2.4952   42.7484   19.4851 H         1 UNK         0.0000 
     55 H55        -2.7236   46.4288   20.6129 H         1 UNK         0.0000 
     56 H56        -1.3007   46.0376   21.5700 H         1 UNK         0.0000 
@<TRIPOS>BOND
     1    1    6 ar   
     2    1    2 ar   
     3    1   34 1    
     4    2    3 ar   
     5    2   35 1    
     6    3    4 ar   
     7    3   27 1    
     8    4    5 ar   
     9    4   36 1    
    10    5    6 ar   
    11    5   37 1    
    12    6    7 1    
    13    7    8 am   BACKBONE|DICT|INTERRES
    14    7   38 1    
    15    8    9 2    
    16    8   10 1    
    17   10   11 1    
    18   10   16 1    
    19   10   12 1    
    20   12   13 1    
    21   12   39 1    
    22   12   40 1    
    23   13   14 1    
    24   13   41 1    
    25   13   42 1    
    26   14   15 1    
    27   14   43 1    
    28   14   44 1    
    29   15   16 1    
    30   15   17 am   BACKBONE|DICT|INTERRES
    31   16   45 1    
    32   16   46 1    
    33   17   18 2    
    34   17   19 1    
    35   19   24 ar   
    36   19   20 ar   
    37   20   21 ar   
    38   20   47 1    
    39   21   22 ar   
    40   21   48 1    
    41   22   23 ar   
    42   22   26 1    
    43   23   24 ar   
    44   23   25 1    
    45   24   49 1    
    46   27   33 1    
    47   27   28 1    
    48   28   29 1    
    49   28   50 1    
    50   28   51 1    
    51   29   30 1    
    52   29   52 1    
    53   29   53 1    
    54   30   31 am   BACKBONE|DICT|INTERRES
    55   30   54 1    
    56   31   32 2    
    57   31   33 1    
    58   33   55 1    
    59   33   56 1    
@<TRIPOS>SUBSTRUCTURE
     1 UNK         1 GROUP             0       ****    0 ROOT    
