@<TRIPOS>MOLECULE
ZINC67042639_4715
37   38    1
SMALL
USER_CHARGES


@<TRIPOS>ATOM
      1 C1          6.8978   52.9252   17.0726 C.3       1 UNK         0.0000 
      2 C2          7.7832   53.9942   17.6820 C.2       1 UNK         0.0000 
      3 C3          9.0798   54.2558   17.2110 C.2       1 UNK         0.0000 
      4 C4          9.7090   55.3156   17.8374 C.2       1 UNK         0.0000 
      5 S5          8.7047   56.0486   19.0283 S.3       1 UNK         0.0000 
      6 C6          7.4433   54.8830   18.7269 C.2       1 UNK         0.0000 
      7 C7          6.2130   55.0101   19.4789 C.2       1 UNK         0.0000 
      8 O8          5.9089   56.0695   20.0370 O.2       1 UNK         0.0000 
      9 N9          5.5040   53.8663   19.5711 N.am      1 UNK         0.0000 
     10 N10         4.2526   53.9283   20.1716 N.am      1 UNK         0.0000 
     11 C11         4.0141   53.1042   21.2089 C.2       1 UNK         0.0000 
     12 O12         4.8137   52.2906   21.6817 O.2       1 UNK         0.0000 
     13 N13         2.7691   53.2964   21.6814 N.am      1 UNK         0.0000 
     14 C14         2.1794   52.6829   22.8712 C.3       1 UNK         0.0000 
     15 C15         2.6771   53.2500   24.1393 C.1       1 UNK         0.0000 
     16 C16         3.1115   53.6312   25.2152 C.1       1 UNK         0.0000 
     17 C17         3.6541   53.9682   26.5217 C.ar      1 UNK         0.0000 
     18 C18         2.7925   54.1165   27.6111 C.ar      1 UNK         0.0000 
     19 C19         3.3146   54.3898   28.8714 C.ar      1 UNK         0.0000 
     20 C20         4.6938   54.4995   29.0361 C.ar      1 UNK         0.0000 
     21 C21         5.5576   54.3581   27.9510 C.ar      1 UNK         0.0000 
     22 C22         5.0358   54.0946   26.6870 C.ar      1 UNK         0.0000 
     23 H23         7.2973   52.5162   16.1416 H         1 UNK         0.0000 
     24 H24         6.7395   52.0969   17.7607 H         1 UNK         0.0000 
     25 H25         5.9070   53.3133   16.8360 H         1 UNK         0.0000 
     26 H26         9.5419   53.6838   16.4185 H         1 UNK         0.0000 
     27 H27        10.7007   55.7017   17.6556 H         1 UNK         0.0000 
     28 H28         5.5747   53.1273   18.8852 H         1 UNK         0.0000 
     29 H29         3.5286   54.1005   19.4884 H         1 UNK         0.0000 
     30 H30         2.1969   53.9865   21.2084 H         1 UNK         0.0000 
     31 H31         2.3629   51.6059   22.8800 H         1 UNK         0.0000 
     32 H32         1.0978   52.8210   22.8450 H         1 UNK         0.0000 
     33 H33         1.7241   54.0140   27.4882 H         1 UNK         0.0000 
     34 H34         2.6482   54.5151   29.7120 H         1 UNK         0.0000 
     35 H35         5.1015   54.7209   30.0112 H         1 UNK         0.0000 
     36 H36         6.6244   54.4543   28.0928 H         1 UNK         0.0000 
     37 H37         5.7059   53.9719   25.8475 H         1 UNK         0.0000 
@<TRIPOS>BOND
     1    1    2 1    
     2    1   23 1    
     3    1   24 1    
     4    1   25 1    
     5    2    6 2    
     6    2    3 1    
     7    3    4 2    
     8    3   26 1    
     9    4    5 1    
    10    4   27 1    
    11    5    6 1    
    12    6    7 1    
    13    7    8 2    
    14    7    9 am   BACKBONE|DICT|INTERRES
    15    9   10 1    
    16    9   28 1    
    17   10   11 am   BACKBONE|DICT|INTERRES
    18   10   29 1    
    19   11   12 2    
    20   11   13 am   BACKBONE|DICT|INTERRES
    21   13   14 1    
    22   13   30 1    
    23   14   15 1    
    24   14   31 1    
    25   14   32 1    
    26   15   16 3    
    27   16   17 1    
    28   17   22 ar   
    29   17   18 ar   
    30   18   19 ar   
    31   18   33 1    
    32   19   20 ar   
    33   19   34 1    
    34   20   21 ar   
    35   20   35 1    
    36   21   22 ar   
    37   21   36 1    
    38   22   37 1    
@<TRIPOS>SUBSTRUCTURE
     1 UNK         1 GROUP             0       ****    0 ROOT    
