ZINC45549139_2779
                    3D
 Schrodinger Suite 2024-2.
 46 49  0  0  1  0            999 V2000
    5.8317   58.0997   17.6769 C   0  0  0  0  0  0
    7.0376   57.3923   17.0947 C   0  0  0  0  0  0
    7.7740   57.8322   15.9460 C   0  0  0  0  0  0
    7.6748   58.9004   15.0384 C   0  0  0  0  0  0
    8.6237   59.0053   14.0162 C   0  0  0  0  0  0
    9.6611   58.0790   13.8874 C   0  0  0  0  0  0
    9.7935   57.0117   14.7774 C   0  0  0  0  0  0
    8.8366   56.9147   15.7941 C   0  0  0  0  0  0
    8.7973   55.9609   16.7637 O   0  0  0  0  0  0
    7.6881   56.2213   17.5191 C   0  0  0  0  0  0
    7.4790   55.3878   18.6738 C   0  0  0  0  0  0
    8.4296   54.8967   19.2822 O   0  0  0  0  0  0
    6.1730   55.2158   18.9860 N   0  0  0  0  0  0
    5.7484   54.5631   20.1618 N   0  0  0  0  0  0
    5.9959   55.1045   21.3792 C   0  0  0  0  0  0
    6.7050   56.0967   21.5602 O   0  0  0  0  0  0
    5.2914   54.4967   22.4893 C   0  0  0  0  0  0
    4.0228   53.9038   22.4580 C   0  0  0  0  0  0
    3.5354   53.6930   23.6534 N   0  0  0  0  0  0
    4.4797   54.0969   24.5243 N   0  0  0  0  0  0
    5.5729   54.6343   23.8586 C   0  0  0  0  0  0
    6.7312   55.2979   24.5789 C   0  0  0  0  0  0
    4.2500   53.9337   25.9252 C   0  0  0  0  0  0
    5.3181   53.6968   26.8045 C   0  0  0  0  0  0
    5.0874   53.4814   28.1578 C   0  0  0  0  0  0
    3.7852   53.4697   28.6437 C   0  0  0  0  0  0
    2.7106   53.7064   27.7906 C   0  0  0  0  0  0
    2.9418   53.9376   26.4366 C   0  0  0  0  0  0
    3.4769   53.0809   30.4793 Br  0  0  0  0  0  0
    6.0415   59.1555   17.8479 H   0  0  0  0  0  0
    4.9780   58.0605   17.0002 H   0  0  0  0  0  0
    5.5038   57.6989   18.6337 H   0  0  0  0  0  0
    6.8814   59.6295   15.1356 H   0  0  0  0  0  0
    8.5553   59.8228   13.3122 H   0  0  0  0  0  0
   10.3760   58.1946   13.0848 H   0  0  0  0  0  0
   10.5953   56.2932   14.6905 H   0  0  0  0  0  0
    5.4345   55.7448   18.5454 H   0  0  0  0  0  0
    5.3758   53.6382   20.0026 H   0  0  0  0  0  0
    3.4307   53.6997   21.5758 H   0  0  0  0  0  0
    7.2445   56.0351   23.9645 H   0  0  0  0  0  0
    6.4144   55.8378   25.4712 H   0  0  0  0  0  0
    7.4927   54.5745   24.8660 H   0  0  0  0  0  0
    6.3356   53.6253   26.4595 H   0  0  0  0  0  0
    5.9177   53.2949   28.8210 H   0  0  0  0  0  0
    1.7004   53.6906   28.1727 H   0  0  0  0  0  0
    2.0940   54.0959   25.7857 H   0  0  0  0  0  0
  1  2  1  0  0  0
  1 30  1  0  0  0
  1 31  1  0  0  0
  1 32  1  0  0  0
  2 10  2  0  0  0
  2  3  1  0  0  0
  3  8  2  0  0  0
  3  4  1  0  0  0
  4  5  2  0  0  0
  4 33  1  0  0  0
  5  6  1  0  0  0
  5 34  1  0  0  0
  6  7  2  0  0  0
  6 35  1  0  0  0
  7  8  1  0  0  0
  7 36  1  0  0  0
  8  9  1  0  0  0
  9 10  1  0  0  0
 10 11  1  0  0  0
 11 12  2  0  0  0
 11 13  1  0  0  0
 13 14  1  0  0  0
 13 37  1  0  0  0
 14 15  1  0  0  0
 14 38  1  0  0  0
 15 16  2  0  0  0
 15 17  1  0  0  0
 17 21  2  0  0  0
 17 18  1  0  0  0
 18 19  2  0  0  0
 18 39  1  0  0  0
 19 20  1  0  0  0
 20 21  1  0  0  0
 20 23  1  0  0  0
 21 22  1  0  0  0
 22 40  1  0  0  0
 22 41  1  0  0  0
 22 42  1  0  0  0
 23 28  2  0  0  0
 23 24  1  0  0  0
 24 25  2  0  0  0
 24 43  1  0  0  0
 25 26  1  0  0  0
 25 44  1  0  0  0
 26 27  2  0  0  0
 26 29  1  0  0  0
 27 28  1  0  0  0
 27 45  1  0  0  0
 28 46  1  0  0  0
M  END
> <i_i_glide_confnum>
64

> <i_i_glide_lignum>
2780

> <i_i_glide_posenum>
275

> <i_i_glide_rotatable_bonds>
6

> <i_m_Source_File_Index>
3053

> <b_m_subgroup_collapsed>
0

> <r_i_docking_score>
-4.87448

> <r_i_glide_ecoul>
-2.6963

> <r_i_glide_eff_state_penalty>
0

> <r_i_glide_einternal>
8.57059

> <r_i_glide_emodel>
-50.1131

> <r_i_glide_energy>
-39.391

> <r_i_glide_erotb>
0.586126

> <r_i_glide_esite>
0

> <r_i_glide_evdw>
-36.6947

> <r_i_glide_gscore>
-4.87448

> <r_i_glide_hbond>
0

> <r_i_glide_ligand_efficiency>
-0.168086

> <r_i_glide_ligand_efficiency_ln>
-1.11613

> <r_i_glide_ligand_efficiency_sa>
-0.516412

> <r_i_glide_lipo>
-2.24726

> <r_i_glide_metal>
0

> <r_i_glide_rewards>
-0.974167

> <s_i_glide_gridfile>
wee1_glide-grid

> <s_m_Source_File>
wee1_decoys_glide_SP.sdf

> <s_m_Source_Path>
/Users/zhangxujun/Desktop

> <s_m_entry_id>
3328

> <s_m_entry_name>
wee1_decoys_glide_SP.3053

> <s_m_subgroup_title>
wee1_decoys_glide_SP

> <s_m_subgroupid>
wee1_decoys_glide_SP


$$$$
