ZINC44855680_746
                    3D
 Schrodinger Suite 2024-2.
 63 66  0  0  1  0            999 V2000
    0.2964   49.8656   24.7013 C   0  0  0  0  0  0
   -0.3202   51.2639   24.4642 C   0  0  0  0  0  0
    0.2113   51.9308   23.1684 C   0  0  0  0  0  0
    1.7241   52.1886   23.2372 C   0  0  2  0  0  0
    2.2168   51.2192   23.3520 H   0  0  0  0  0  0
    2.0462   52.9170   24.5412 C   0  0  0  0  0  0
    3.1992   53.6967   24.7139 C   0  0  0  0  0  0
    3.5040   54.2667   25.9471 C   0  0  0  0  0  0
    2.6577   54.0958   27.0421 C   0  0  0  0  0  0
    1.5004   53.3177   26.8850 C   0  0  0  0  0  0
    1.1981   52.7457   25.6516 C   0  0  0  0  0  0
   -0.0333   52.1077   25.5925 O   0  0  0  0  0  0
    3.0159   54.7347   28.2112 O   0  0  0  0  0  0
    2.1096   54.7230   29.3082 C   0  0  0  0  0  0
    2.2763   52.7816   22.0158 N   0  0  0  0  0  0
    3.1338   52.1868   21.1674 C   0  0  0  0  0  0
    3.5717   51.0489   21.3369 O   0  0  0  0  0  0
    3.5531   52.9935   19.9257 C   0  0  2  0  0  0
    3.0218   52.2530   18.6804 C   0  0  0  0  0  0
    3.3560   53.0846   17.4341 C   0  0  0  0  0  0
    4.8909   53.2980   17.3705 N   0  3  2  0  0  0
    5.4737   53.9543   18.6478 C   0  0  0  0  0  0
    5.0914   53.0923   19.8679 C   0  0  0  0  0  0
    5.2868   54.0990   16.1022 C   0  0  0  0  0  0
    4.5774   55.4419   15.9127 C   0  0  0  0  0  0
    3.4012   55.4982   15.1600 C   0  0  0  0  0  0
    2.7343   56.7068   14.9931 C   0  0  0  0  0  0
    3.2533   57.8668   15.5606 C   0  0  0  0  0  0
    4.4404   57.8289   16.2903 C   0  0  0  0  0  0
    5.1079   56.6161   16.4591 C   0  0  0  0  0  0
    2.3258   59.5133   15.3305 Br  0  0  0  0  0  0
   -1.8571   51.2195   24.4030 C   0  0  0  0  0  0
    0.1217   49.2057   23.8494 H   0  0  0  0  0  0
    1.3665   49.8932   24.8819 H   0  0  0  0  0  0
   -0.1465   49.3913   25.5767 H   0  0  0  0  0  0
   -0.0330   51.3323   22.2901 H   0  0  0  0  0  0
   -0.2815   52.8948   23.0338 H   0  0  0  0  0  0
    3.8799   53.8423   23.8875 H   0  0  0  0  0  0
    4.3998   54.8589   26.0565 H   0  0  0  0  0  0
    0.8102   53.1736   27.7013 H   0  0  0  0  0  0
    2.5098   55.3461   30.1029 H   0  0  0  0  0  0
    1.9722   53.7140   29.7058 H   0  0  0  0  0  0
    1.1348   55.1342   29.0316 H   0  0  0  0  0  0
    1.9708   53.7202   21.8035 H   0  0  0  0  0  0
    3.1047   53.9802   20.0291 H   0  0  0  0  0  0
    3.5044   51.2834   18.5418 H   0  0  0  0  0  0
    1.9349   52.1573   18.6957 H   0  0  0  0  0  0
    2.8706   54.0635   17.4540 H   0  0  0  0  0  0
    3.0807   52.5357   16.5304 H   0  0  0  0  0  0
    5.0869   54.9737   18.7145 H   0  0  0  0  0  0
    6.5569   53.9682   18.5270 H   0  0  0  0  0  0
    5.4944   53.6025   20.7444 H   0  0  0  0  0  0
    5.5604   52.1162   19.7177 H   0  0  0  0  0  0
    6.3700   54.2167   16.1472 H   0  0  0  0  0  0
    5.0563   53.4192   15.2794 H   0  0  0  0  0  0
    2.9905   54.6010   14.7149 H   0  0  0  0  0  0
    1.8189   56.7482   14.4202 H   0  0  0  0  0  0
    4.8402   58.7416   16.7127 H   0  0  0  0  0  0
    6.0306   56.5924   17.0238 H   0  0  0  0  0  0
   -2.2074   50.6186   23.5634 H   0  0  0  0  0  0
   -2.2687   50.7855   25.3142 H   0  0  0  0  0  0
   -2.2816   52.2184   24.3034 H   0  0  0  0  0  0
    5.2960   52.3634   17.3186 H   0  0  0  0  0  0
  1  2  1  0  0  0
  1 33  1  0  0  0
  1 34  1  0  0  0
  1 35  1  0  0  0
  2 12  1  0  0  0
  2  3  1  0  0  0
  2 32  1  0  0  0
  3  4  1  0  0  0
  3 36  1  0  0  0
  3 37  1  0  0  0
  4  5  1  0  0  0
  4  6  1  0  0  0
  4 15  1  0  0  0
  6 11  2  0  0  0
  6  7  1  0  0  0
  7  8  2  0  0  0
  7 38  1  0  0  0
  8  9  1  0  0  0
  8 39  1  0  0  0
  9 10  2  0  0  0
  9 13  1  0  0  0
 10 11  1  0  0  0
 10 40  1  0  0  0
 11 12  1  0  0  0
 13 14  1  0  0  0
 14 41  1  0  0  0
 14 42  1  0  0  0
 14 43  1  0  0  0
 15 16  1  0  0  0
 15 44  1  0  0  0
 16 17  2  0  0  0
 16 18  1  0  0  0
 18 23  1  0  0  0
 18 19  1  0  0  0
 18 45  1  0  0  0
 19 20  1  0  0  0
 19 46  1  0  0  0
 19 47  1  0  0  0
 20 21  1  0  0  0
 20 48  1  0  0  0
 20 49  1  0  0  0
 21 22  1  0  0  0
 21 24  1  0  0  0
 21 63  1  0  0  0
 22 23  1  0  0  0
 22 50  1  0  0  0
 22 51  1  0  0  0
 23 52  1  0  0  0
 23 53  1  0  0  0
 24 25  1  0  0  0
 24 54  1  0  0  0
 24 55  1  0  0  0
 25 30  2  0  0  0
 25 26  1  0  0  0
 26 27  2  0  0  0
 26 56  1  0  0  0
 27 28  1  0  0  0
 27 57  1  0  0  0
 28 29  2  0  0  0
 28 31  1  0  0  0
 29 30  1  0  0  0
 29 58  1  0  0  0
 30 59  1  0  0  0
 32 60  1  0  0  0
 32 61  1  0  0  0
 32 62  1  0  0  0
M  CHG  1  21   1
M  END
> <i_i_glide_confnum>
12

> <i_i_glide_lignum>
747

> <i_i_glide_posenum>
333

> <i_i_glide_rotatable_bonds>
6

> <i_m_Source_File_Index>
1041

> <b_m_subgroup_collapsed>
0

> <r_i_docking_score>
-3.44948

> <r_i_glide_ecoul>
-3.54597

> <r_i_glide_eff_state_penalty>
0

> <r_i_glide_einternal>
6.33507

> <r_i_glide_emodel>
-37.6043

> <r_i_glide_energy>
-32.4781

> <r_i_glide_erotb>
0.426214

> <r_i_glide_esite>
-0.070946

> <r_i_glide_evdw>
-28.9321

> <r_i_glide_gscore>
-3.44948

> <r_i_glide_hbond>
-0.216422

> <r_i_glide_ligand_efficiency>
-0.111273

> <r_i_glide_ligand_efficiency_ln>
-0.777962

> <r_i_glide_ligand_efficiency_sa>
-0.349552

> <r_i_glide_lipo>
-1.5314

> <r_i_glide_metal>
0

> <r_i_glide_rewards>
-0.0784197

> <s_i_glide_gridfile>
wee1_glide-grid

> <s_m_Source_File>
wee1_decoys_glide_SP.sdf

> <s_m_Source_Path>
/Users/zhangxujun/Desktop

> <s_m_entry_id>
1316

> <s_m_entry_name>
wee1_decoys_glide_SP.1041

> <s_m_subgroup_title>
wee1_decoys_glide_SP

> <s_m_subgroupid>
wee1_decoys_glide_SP


$$$$
