@<TRIPOS>MOLECULE
ZINC39665566_5545
70   73    1
SMALL
USER_CHARGES


@<TRIPOS>ATOM
      1 C1          4.5828   53.9259   19.1756 C.3       1 UNK         0.0000 
      2 C2          4.5010   53.4730   20.6403 C.3       1 UNK         0.0000 
      3 H3          3.4755   53.6748   20.9504 H         1 UNK         0.0000 
      4 C4          4.8487   51.9704   20.8132 C.3       1 UNK         0.0000 
      5 N5          3.7327   51.0431   20.6289 N.am      1 UNK         0.0000 
      6 C6          2.7032   50.9047   21.4811 C.2       1 UNK         0.0000 
      7 O7          2.5909   51.6189   22.4800 O.2       1 UNK         0.0000 
      8 C8          1.6488   49.8016   21.1882 C.3       1 UNK         0.0000 
      9 H9          2.0005   48.9097   21.7121 H         1 UNK         0.0000 
     10 C10         0.3530   50.2105   21.9200 C.3       1 UNK         0.0000 
     11 N11        -0.6883   49.4637   21.2199 N.am      1 UNK         0.0000 
     12 C12        -0.2022   48.9073   19.9539 C.3       1 UNK         0.0000 
     13 C13         1.2120   49.5067   19.7218 C.3       1 UNK         0.0000 
     14 C14         1.1367   50.7767   18.8115 C.3       1 UNK         0.0000 
     15 C15         0.6185   50.4629   17.3888 C.3       1 UNK         0.0000 
     16 N16         1.5044   49.3584   16.7630 N.4       1 UNK         0.0000 
     17 C17         1.6326   48.0927   17.6346 C.3       1 UNK         0.0000 
     18 C18         2.1817   48.5357   19.0013 C.3       1 UNK         0.0000 
     19 C19        -1.8687   49.0908   21.7829 C.2       1 UNK         0.0000 
     20 O20        -2.6528   48.3238   21.2219 O.2       1 UNK         0.0000 
     21 C21        -2.2151   49.6414   23.1543 C.ar      1 UNK         0.0000 
     22 C22        -2.2937   51.0360   23.3157 C.ar      1 UNK         0.0000 
     23 C23        -2.5768   51.6015   24.5566 C.ar      1 UNK         0.0000 
     24 C24        -2.7894   50.7819   25.6592 C.ar      1 UNK         0.0000 
     25 C25        -2.7366   49.3972   25.5181 C.ar      1 UNK         0.0000 
     26 C26        -2.4684   48.8031   24.2739 C.ar      1 UNK         0.0000 
     27 C27        -2.3804   47.2671   24.2128 C.3       1 UNK         0.0000 
     28 F28        -3.4485   46.7597   23.5961 F         1 UNK         0.0000 
     29 F29        -1.2956   46.8973   23.5366 F         1 UNK         0.0000 
     30 F30        -2.2587   46.6998   25.4165 F         1 UNK         0.0000 
     31 O31         5.4255   54.2755   21.3806 O.3       1 UNK         0.0000 
     32 C32         5.3750   54.2738   22.7617 C.ar      1 UNK         0.0000 
     33 C33         6.5723   54.4943   23.4382 C.ar      1 UNK         0.0000 
     34 C34         6.6061   54.5022   24.8304 C.ar      1 UNK         0.0000 
     35 C35         5.4307   54.3090   25.5700 C.ar      1 UNK         0.0000 
     36 C36         4.2297   54.1169   24.8924 C.ar      1 UNK         0.0000 
     37 C37         4.1963   54.0968   23.5009 C.ar      1 UNK         0.0000 
     38 O38         5.3703   54.2891   26.9497 O.3       1 UNK         0.0000 
     39 C39         6.5790   54.3601   27.6961 C.3       1 UNK         0.0000 
     40 H40         3.9129   53.3424   18.5438 H         1 UNK         0.0000 
     41 H41         4.2972   54.9729   19.0751 H         1 UNK         0.0000 
     42 H42         5.5934   53.8155   18.7798 H         1 UNK         0.0000 
     43 H43         5.6306   51.6973   20.1043 H         1 UNK         0.0000 
     44 H44         5.2896   51.7865   21.7948 H         1 UNK         0.0000 
     45 H45         3.7550   50.4965   19.7794 H         1 UNK         0.0000 
     46 H46         0.4393   49.9771   22.9840 H         1 UNK         0.0000 
     47 H47         0.1598   51.2685   21.7280 H         1 UNK         0.0000 
     48 H48        -0.8918   48.9582   19.1132 H         1 UNK         0.0000 
     49 H49        -0.0696   47.8419   20.1473 H         1 UNK         0.0000 
     50 H50         0.4722   51.5126   19.2657 H         1 UNK         0.0000 
     51 H51         2.0960   51.2840   18.7217 H         1 UNK         0.0000 
     52 H52        -0.4089   50.0969   17.3632 H         1 UNK         0.0000 
     53 H53         0.6934   51.3246   16.7255 H         1 UNK         0.0000 
     54 H54         1.1698   49.1135   15.8408 H         1 UNK         0.0000 
     55 H55         0.6516   47.6159   17.6762 H         1 UNK         0.0000 
     56 H56         2.3325   47.4406   17.1069 H         1 UNK         0.0000 
     57 H57         3.1850   48.9525   18.8945 H         1 UNK         0.0000 
     58 H58         2.3051   47.6408   19.6102 H         1 UNK         0.0000 
     59 H59        -2.1249   51.6950   22.4752 H         1 UNK         0.0000 
     60 H60        -2.6216   52.6755   24.6650 H         1 UNK         0.0000 
     61 H61        -2.9907   51.2131   26.6294 H         1 UNK         0.0000 
     62 H62        -2.8899   48.7894   26.4027 H         1 UNK         0.0000 
     63 H63         7.4857   54.6453   22.8804 H         1 UNK         0.0000 
     64 H64         7.5537   54.6561   25.3147 H         1 UNK         0.0000 
     65 H65         3.3179   53.9760   25.4534 H         1 UNK         0.0000 
     66 H66         3.2408   53.9645   23.0211 H         1 UNK         0.0000 
     67 H67         6.3445   54.3180   28.7599 H         1 UNK         0.0000 
     68 H68         7.1057   55.2973   27.5128 H         1 UNK         0.0000 
     69 H69         7.2417   53.5216   27.4689 H         1 UNK         0.0000 
     70 H70         2.4627   49.6953   16.6339 H         1 UNK         0.0000 
@<TRIPOS>BOND
     1    1    2 1    
     2    1   40 1    
     3    1   41 1    
     4    1   42 1    
     5    2    3 1    
     6    2    4 1    
     7    2   31 1    
     8    4    5 1    
     9    4   43 1    
    10    4   44 1    
    11    5    6 am   BACKBONE|DICT|INTERRES
    12    5   45 1    
    13    6    7 2    
    14    6    8 1    
    15    8    9 1    
    16    8   13 1    
    17    8   10 1    
    18   10   11 1    
    19   10   46 1    
    20   10   47 1    
    21   11   12 1    
    22   11   19 am   BACKBONE|DICT|INTERRES
    23   12   13 1    
    24   12   48 1    
    25   12   49 1    
    26   13   18 1    
    27   13   14 1    
    28   14   15 1    
    29   14   50 1    
    30   14   51 1    
    31   15   16 1    
    32   15   52 1    
    33   15   53 1    
    34   16   17 1    
    35   16   54 1    
    36   16   70 1    
    37   17   18 1    
    38   17   55 1    
    39   17   56 1    
    40   18   57 1    
    41   18   58 1    
    42   19   20 2    
    43   19   21 1    
    44   21   26 ar   
    45   21   22 ar   
    46   22   23 ar   
    47   22   59 1    
    48   23   24 ar   
    49   23   60 1    
    50   24   25 ar   
    51   24   61 1    
    52   25   26 ar   
    53   25   62 1    
    54   26   27 1    
    55   27   28 1    
    56   27   29 1    
    57   27   30 1    
    58   31   32 1    
    59   32   37 ar   
    60   32   33 ar   
    61   33   34 ar   
    62   33   63 1    
    63   34   35 ar   
    64   34   64 1    
    65   35   36 ar   
    66   35   38 1    
    67   36   37 ar   
    68   36   65 1    
    69   37   66 1    
    70   38   39 1    
    71   39   67 1    
    72   39   68 1    
    73   39   69 1    
@<TRIPOS>SUBSTRUCTURE
     1 UNK         1 GROUP             0       ****    0 ROOT    
