ZINC11486634_1427
                    3D
 Schrodinger Suite 2024-2.
 53 57  0  0  1  0            999 V2000
   -0.9441   51.3219   22.3570 C   0  0  0  0  0  0
    0.3100   51.7211   21.5871 C   0  0  0  0  0  0
    1.3245   52.3737   22.2984 C   0  0  0  0  0  0
    2.5516   52.6823   21.6938 C   0  0  0  0  0  0
    2.7629   52.3190   20.3634 C   0  0  0  0  0  0
    1.7561   51.6855   19.6392 C   0  0  0  0  0  0
    0.5179   51.3918   20.2267 C   0  0  0  0  0  0
   -0.4322   50.7208   19.4235 N   0  0  0  0  0  0
   -0.1140   49.4727   18.7181 C   0  0  0  0  0  0
   -1.2637   49.2504   17.7618 C   0  0  0  0  0  0
   -2.3905   50.0658   18.3507 C   0  0  0  0  0  0
   -1.7290   51.1055   19.2515 C   0  0  0  0  0  0
   -2.3105   52.0975   19.6997 O   0  0  0  0  0  0
    3.6295   53.2731   22.3710 N   0  0  0  0  0  0
    3.6007   54.0174   23.4976 C   0  0  0  0  0  0
    2.5837   54.4981   23.9965 O   0  0  0  0  0  0
    4.9065   54.2228   24.0817 C   0  0  0  0  0  0
    6.0697   54.4951   23.3652 C   0  0  0  0  0  0
    7.0405   54.6996   24.2955 N   0  0  0  0  0  0
    8.0098   54.9280   24.0793 H   0  0  0  0  0  0
    6.5874   54.5975   25.5426 N   0  0  0  0  0  0
    5.2998   54.2981   25.4569 C   0  0  0  0  0  0
    4.5163   54.0862   26.7418 C   0  0  0  0  0  0
    5.0491   54.4973   27.9790 C   0  0  0  0  0  0
    4.3395   54.3405   29.1712 C   0  0  0  0  0  0
    3.0891   53.7340   29.1546 C   0  0  0  0  0  0
    2.5431   53.2965   27.9418 C   0  0  0  0  0  0
    3.2615   53.4528   26.7583 C   0  0  0  0  0  0
    1.3306   52.6386   27.8784 O   0  0  0  0  0  0
    0.4917   52.8482   29.0215 C   0  0  0  0  0  0
    1.3128   52.7102   30.3263 C   0  0  0  0  0  0
    2.3983   53.6447   30.3455 O   0  0  0  0  0  0
   -0.7267   51.1657   23.4144 H   0  0  0  0  0  0
   -1.7133   52.0907   22.2725 H   0  0  0  0  0  0
   -1.3477   50.3756   21.9960 H   0  0  0  0  0  0
    1.1614   52.6002   23.3418 H   0  0  0  0  0  0
    3.7062   52.5240   19.8721 H   0  0  0  0  0  0
    1.9501   51.4270   18.6067 H   0  0  0  0  0  0
    0.8350   49.5392   18.1786 H   0  0  0  0  0  0
   -0.0350   48.6588   19.4404 H   0  0  0  0  0  0
   -1.5015   48.1970   17.6323 H   0  0  0  0  0  0
   -1.0018   49.6505   16.7801 H   0  0  0  0  0  0
   -3.0321   49.4460   18.9785 H   0  0  0  0  0  0
   -3.0164   50.5324   17.5861 H   0  0  0  0  0  0
    4.5380   53.0444   22.0038 H   0  0  0  0  0  0
    6.2794   54.5763   22.3071 H   0  0  0  0  0  0
    6.0144   54.9760   28.0309 H   0  0  0  0  0  0
    4.7598   54.6959   30.0965 H   0  0  0  0  0  0
    2.8284   53.0409   25.8628 H   0  0  0  0  0  0
   -0.3272   52.1304   29.0008 H   0  0  0  0  0  0
    0.0599   53.8482   28.9759 H   0  0  0  0  0  0
    1.7115   51.6971   30.3869 H   0  0  0  0  0  0
    0.6766   52.8667   31.1984 H   0  0  0  0  0  0
  1  2  1  0  0  0
  1 33  1  0  0  0
  1 34  1  0  0  0
  1 35  1  0  0  0
  2  7  2  0  0  0
  2  3  1  0  0  0
  3  4  2  0  0  0
  3 36  1  0  0  0
  4  5  1  0  0  0
  4 14  1  0  0  0
  5  6  2  0  0  0
  5 37  1  0  0  0
  6  7  1  0  0  0
  6 38  1  0  0  0
  7  8  1  0  0  0
  8 12  1  0  0  0
  8  9  1  0  0  0
  9 10  1  0  0  0
  9 39  1  0  0  0
  9 40  1  0  0  0
 10 11  1  0  0  0
 10 41  1  0  0  0
 10 42  1  0  0  0
 11 12  1  0  0  0
 11 43  1  0  0  0
 11 44  1  0  0  0
 12 13  2  0  0  0
 14 15  1  0  0  0
 14 45  1  0  0  0
 15 16  2  0  0  0
 15 17  1  0  0  0
 17 22  1  0  0  0
 17 18  2  0  0  0
 18 19  1  0  0  0
 18 46  1  0  0  0
 19 20  1  0  0  0
 19 21  1  0  0  0
 21 22  2  0  0  0
 22 23  1  0  0  0
 23 28  2  0  0  0
 23 24  1  0  0  0
 24 25  2  0  0  0
 24 47  1  0  0  0
 25 26  1  0  0  0
 25 48  1  0  0  0
 26 32  1  0  0  0
 26 27  2  0  0  0
 27 28  1  0  0  0
 27 29  1  0  0  0
 28 49  1  0  0  0
 29 30  1  0  0  0
 30 31  1  0  0  0
 30 50  1  0  0  0
 30 51  1  0  0  0
 31 32  1  0  0  0
 31 52  1  0  0  0
 31 53  1  0  0  0
M  END
> <i_i_glide_confnum>
89

> <i_i_glide_lignum>
1428

> <i_i_glide_posenum>
225

> <i_i_glide_rotatable_bonds>
5

> <i_m_Source_File_Index>
1158

> <b_m_subgroup_collapsed>
0

> <r_i_docking_score>
-7.08301

> <r_i_glide_ecoul>
-10.2015

> <r_i_glide_eff_state_penalty>
0

> <r_i_glide_einternal>
4.43423

> <r_i_glide_emodel>
-69.8095

> <r_i_glide_energy>
-49.6925

> <r_i_glide_erotb>
0.56467

> <r_i_glide_esite>
-0.00844134

> <r_i_glide_evdw>
-39.4909

> <r_i_glide_gscore>
-7.08301

> <r_i_glide_hbond>
-0.864

> <r_i_glide_ligand_efficiency>
-0.228484

> <r_i_glide_ligand_efficiency_ln>
-1.59744

> <r_i_glide_ligand_efficiency_sa>
-0.717756

> <r_i_glide_lipo>
-2.34579

> <r_i_glide_metal>
0

> <r_i_glide_rewards>
-0.924671

> <s_i_glide_gridfile>
wee1_glide-grid

> <s_m_Source_File>
wee1_decoys_glide_SP.sdf

> <s_m_Source_Path>
/Users/zhangxujun/Desktop

> <s_m_entry_id>
1433

> <s_m_entry_name>
wee1_decoys_glide_SP.1158

> <s_m_subgroup_title>
wee1_decoys_glide_SP

> <s_m_subgroupid>
wee1_decoys_glide_SP


$$$$
