@<TRIPOS>MOLECULE
ZINC14457568_3868
52   55    1
SMALL
USER_CHARGES


@<TRIPOS>ATOM
      1 C1         -3.9463   50.7082   27.5641 C.3       1 UNK         0.0000 
      2 C2         -2.8084   51.3480   26.7840 C.ar      1 UNK         0.0000 
      3 C3         -1.5189   51.3487   27.2997 C.ar      1 UNK         0.0000 
      4 C4         -0.4514   51.9121   26.5994 C.ar      1 UNK         0.0000 
      5 C5         -0.6625   52.4910   25.3109 C.ar      1 UNK         0.0000 
      6 C6         -1.9911   52.4910   24.8029 C.ar      1 UNK         0.0000 
      7 C7         -3.0345   51.9202   25.5380 C.ar      1 UNK         0.0000 
      8 C8         -2.3860   53.1250   23.4723 C.3       1 UNK         0.0000 
      9 C9          0.4839   53.1076   24.4438 C.3       1 UNK         0.0000 
     10 H10         0.0722   54.0355   24.0506 H         1 UNK         0.0000 
     11 C11         0.8789   52.2197   23.2210 C.3       1 UNK         0.0000 
     12 H12         0.0267   52.2404   22.5449 H         1 UNK         0.0000 
     13 C13         1.1253   50.7317   23.4914 C.3       1 UNK         0.0000 
     14 C14         2.0988   50.3438   22.4001 C.2       1 UNK         0.0000 
     15 C15         2.5946   51.4278   21.7742 C.2       1 UNK         0.0000 
     16 C16         2.0654   52.7206   22.3765 C.3       1 UNK         0.0000 
     17 H17         1.7076   53.3945   21.6007 H         1 UNK         0.0000 
     18 C18         3.1203   53.4770   23.1847 C.ar      1 UNK         0.0000 
     19 C19         4.3544   53.8291   22.6126 C.ar      1 UNK         0.0000 
     20 C20         5.3617   54.4616   23.3618 C.ar      1 UNK         0.0000 
     21 C21         5.1382   54.7320   24.7122 C.ar      1 UNK         0.0000 
     22 C22         3.9000   54.4421   25.2802 C.ar      1 UNK         0.0000 
     23 C23         2.8987   53.8214   24.5286 C.ar      1 UNK         0.0000 
     24 N24         1.6710   53.5781   25.1606 N.pl3     1 UNK         0.0000 
     25 N25         6.6002   54.8504   22.8189 N.am      1 UNK         0.0000 
     26 C26         6.8206   55.3302   21.5783 C.2       1 UNK         0.0000 
     27 O27         5.9555   55.4818   20.7189 O.2       1 UNK         0.0000 
     28 C28         8.2539   55.7476   21.2771 C.3       1 UNK         0.0000 
     29 C29         0.8876   51.8470   27.3298 C.3       1 UNK         0.0000 
     30 H30        -4.7183   50.3211   26.8955 H         1 UNK         0.0000 
     31 H31        -3.5824   49.8567   28.1449 H         1 UNK         0.0000 
     32 H32        -4.3978   51.4299   28.2471 H         1 UNK         0.0000 
     33 H33        -1.3535   50.8966   28.2695 H         1 UNK         0.0000 
     34 H34        -4.0401   51.9162   25.1394 H         1 UNK         0.0000 
     35 H35        -3.4632   53.3036   23.4163 H         1 UNK         0.0000 
     36 H36        -1.9231   54.0965   23.3508 H         1 UNK         0.0000 
     37 H37        -2.1102   52.4853   22.6338 H         1 UNK         0.0000 
     38 H38         1.5303   50.5449   24.4828 H         1 UNK         0.0000 
     39 H39         0.1959   50.1613   23.4160 H         1 UNK         0.0000 
     40 H40         2.3465   49.3119   22.1883 H         1 UNK         0.0000 
     41 H41         3.3183   51.4247   20.9715 H         1 UNK         0.0000 
     42 H42         4.5273   53.5940   21.5700 H         1 UNK         0.0000 
     43 H43         5.8933   55.2167   25.3156 H         1 UNK         0.0000 
     44 H44         3.7227   54.6950   26.3129 H         1 UNK         0.0000 
     45 H45         1.4948   53.9071   26.0991 H         1 UNK         0.0000 
     46 H46         7.3783   54.8877   23.4615 H         1 UNK         0.0000 
     47 H47         8.9285   54.8993   21.3171 H         1 UNK         0.0000 
     48 H48         8.5892   56.4923   21.9996 H         1 UNK         0.0000 
     49 H49         8.3255   56.1823   20.2816 H         1 UNK         0.0000 
     50 H50         0.9212   51.0071   28.0272 H         1 UNK         0.0000 
     51 H51         1.7259   51.6954   26.6605 H         1 UNK         0.0000 
     52 H52         1.0543   52.7676   27.8912 H         1 UNK         0.0000 
@<TRIPOS>BOND
     1    1    2 1    
     2    1   30 1    
     3    1   31 1    
     4    1   32 1    
     5    2    7 ar   
     6    2    3 ar   
     7    3    4 ar   
     8    3   33 1    
     9    4    5 ar   
    10    4   29 1    
    11    5    6 ar   
    12    5    9 1    
    13    6    7 ar   
    14    6    8 1    
    15    7   34 1    
    16    8   35 1    
    17    8   36 1    
    18    8   37 1    
    19    9   10 1    
    20    9   24 1    
    21    9   11 1    
    22   11   12 1    
    23   11   16 1    
    24   11   13 1    
    25   13   14 1    
    26   13   38 1    
    27   13   39 1    
    28   14   15 2    
    29   14   40 1    
    30   15   16 1    
    31   15   41 1    
    32   16   17 1    
    33   16   18 1    
    34   18   23 ar   
    35   18   19 ar   
    36   19   20 ar   
    37   19   42 1    
    38   20   21 ar   
    39   20   25 1    
    40   21   22 ar   
    41   21   43 1    
    42   22   23 ar   
    43   22   44 1    
    44   23   24 1    
    45   24   45 1    
    46   25   26 am   BACKBONE|DICT|INTERRES
    47   25   46 1    
    48   26   27 2    
    49   26   28 1    
    50   28   47 1    
    51   28   48 1    
    52   28   49 1    
    53   29   50 1    
    54   29   51 1    
    55   29   52 1    
@<TRIPOS>SUBSTRUCTURE
     1 UNK         1 GROUP             0       ****    0 ROOT    
