ZINC09155051_716
                    3D
 Schrodinger Suite 2024-2.
 60 64  0  0  1  0            999 V2000
    0.2119   50.1540   25.5674 C   0  0  0  0  0  0
    0.7615   51.5007   25.2688 N   0  0  0  0  0  0
    0.9525   52.3538   26.4083 C   0  0  0  0  0  0
    2.2242   52.8968   26.6841 C   0  0  0  0  0  0
    2.4888   53.5975   27.8569 C   0  0  0  0  0  0
    1.4851   53.7727   28.7984 C   0  0  0  0  0  0
    0.2232   53.2432   28.5654 C   0  0  0  0  0  0
   -0.0656   52.5399   27.3831 C   0  0  0  0  0  0
   -1.4885   52.0963   27.1682 C   0  0  0  0  0  0
   -2.1163   52.4925   26.1857 O   0  0  0  0  0  0
   -1.9870   51.2967   28.1270 N   0  0  0  0  0  0
   -3.3434   50.7561   28.2300 C   0  0  0  0  0  0
   -3.8615   50.1074   26.9596 C   0  0  0  0  0  0
   -3.8075   48.8175   26.4536 C   0  0  0  0  0  0
   -4.5139   48.8175   25.2488 C   0  0  0  0  0  0
   -4.9834   50.1083   25.0786 C   0  0  0  0  0  0
   -4.6012   50.8865   26.1231 O   0  0  0  0  0  0
    1.4116   51.6408   24.0660 C   0  0  0  0  0  0
    1.6446   50.6627   23.3507 O   0  0  0  0  0  0
    1.8274   53.0349   23.5106 C   0  0  0  0  0  0
    2.5668   52.4935   21.1217 C   0  0  0  0  0  0
    3.7794   52.1365   20.2503 C   0  0  0  0  0  0
    4.6649   53.3554   20.1935 C   0  0  0  0  0  0
    4.7608   54.2980   21.2189 C   0  0  0  0  0  0
    5.7066   55.2900   20.8960 C   0  0  0  0  0  0
    6.3117   55.1096   19.6629 C   0  0  0  0  0  0
    5.7316   53.6936   18.8663 S   0  0  0  0  0  0
    3.9211   54.2503   22.5144 C   0  0  2  0  0  0
    3.1673   55.0349   22.4467 H   0  0  0  0  0  0
    4.7388   54.4085   23.8106 C   0  0  0  0  0  0
    4.3480   54.8871   25.0652 C   0  0  0  0  0  0
    5.3473   54.8989   26.0432 C   0  0  0  0  0  0
    6.5624   54.4743   25.5574 C   0  0  0  0  0  0
    6.4646   54.0962   23.8751 S   0  0  0  0  0  0
    0.2477   49.9305   26.6345 H   0  0  0  0  0  0
   -0.8299   50.0967   25.2529 H   0  0  0  0  0  0
    0.7516   49.3411   25.0777 H   0  0  0  0  0  0
    3.0533   52.7141   26.0196 H   0  0  0  0  0  0
    3.4783   53.9780   28.0527 H   0  0  0  0  0  0
    1.6855   54.3092   29.7136 H   0  0  0  0  0  0
   -0.5376   53.4028   29.3177 H   0  0  0  0  0  0
   -1.3470   50.9676   28.8341 H   0  0  0  0  0  0
   -3.3092   50.0093   29.0246 H   0  0  0  0  0  0
   -4.0145   51.5421   28.5796 H   0  0  0  0  0  0
   -3.2965   47.9833   26.9141 H   0  0  0  0  0  0
   -4.6626   47.9796   24.5842 H   0  0  0  0  0  0
   -5.5764   50.5960   24.3173 H   0  0  0  0  0  0
    2.0539   53.7524   24.2867 H   0  0  0  0  0  0
    1.0156   53.4622   22.9222 H   0  0  0  0  0  0
    1.9403   51.6094   21.2085 H   0  0  0  0  0  0
    1.9651   53.2966   20.7037 H   0  0  0  0  0  0
    4.3316   51.2963   20.6695 H   0  0  0  0  0  0
    3.4702   51.8201   19.2533 H   0  0  0  0  0  0
    5.9440   56.1154   21.5509 H   0  0  0  0  0  0
    7.0653   55.7261   19.1957 H   0  0  0  0  0  0
    3.3447   55.2211   25.2785 H   0  0  0  0  0  0
    5.1919   55.2165   27.0627 H   0  0  0  0  0  0
    7.4931   54.3698   26.0915 H   0  0  0  0  0  0
    3.0558   52.9350   22.5349 N   0  3  1  0  0  0
    3.6509   52.1948   22.8834 H   0  0  0  0  0  0
  1  2  1  0  0  0
  1 35  1  0  0  0
  1 36  1  0  0  0
  1 37  1  0  0  0
  2  3  1  0  0  0
  2 18  1  0  0  0
  3  8  2  0  0  0
  3  4  1  0  0  0
  4  5  2  0  0  0
  4 38  1  0  0  0
  5  6  1  0  0  0
  5 39  1  0  0  0
  6  7  2  0  0  0
  6 40  1  0  0  0
  7  8  1  0  0  0
  7 41  1  0  0  0
  8  9  1  0  0  0
  9 10  2  0  0  0
  9 11  1  0  0  0
 11 12  1  0  0  0
 11 42  1  0  0  0
 12 13  1  0  0  0
 12 43  1  0  0  0
 12 44  1  0  0  0
 13 17  1  0  0  0
 13 14  2  0  0  0
 14 15  1  0  0  0
 14 45  1  0  0  0
 15 16  2  0  0  0
 15 46  1  0  0  0
 16 17  1  0  0  0
 16 47  1  0  0  0
 18 19  2  0  0  0
 18 20  1  0  0  0
 20 48  1  0  0  0
 20 49  1  0  0  0
 20 59  1  0  0  0
 21 22  1  0  0  0
 21 50  1  0  0  0
 21 51  1  0  0  0
 21 59  1  0  0  0
 22 23  1  0  0  0
 22 52  1  0  0  0
 22 53  1  0  0  0
 23 27  1  0  0  0
 23 24  2  0  0  0
 24 25  1  0  0  0
 24 28  1  0  0  0
 25 26  2  0  0  0
 25 54  1  0  0  0
 26 27  1  0  0  0
 26 55  1  0  0  0
 28 29  1  0  0  0
 28 30  1  0  0  0
 28 59  1  0  0  0
 30 34  1  0  0  0
 30 31  2  0  0  0
 31 32  1  0  0  0
 31 56  1  0  0  0
 32 33  2  0  0  0
 32 57  1  0  0  0
 33 34  1  0  0  0
 33 58  1  0  0  0
 59 60  1  0  0  0
M  CHG  1  59   1
M  END
> <i_i_glide_confnum>
120

> <i_i_glide_lignum>
717

> <i_i_glide_posenum>
247

> <i_i_glide_rotatable_bonds>
9

> <i_m_Source_File_Index>
4838

> <b_m_subgroup_collapsed>
0

> <r_i_docking_score>
-4.38731

> <r_i_glide_ecoul>
0.252308

> <r_i_glide_eff_state_penalty>
0

> <r_i_glide_einternal>
8.91103

> <r_i_glide_emodel>
-49.3776

> <r_i_glide_energy>
-40.2505

> <r_i_glide_erotb>
0.671342

> <r_i_glide_esite>
-0.135024

> <r_i_glide_evdw>
-40.5028

> <r_i_glide_gscore>
-4.38731

> <r_i_glide_hbond>
0

> <r_i_glide_ligand_efficiency>
-0.129038

> <r_i_glide_ligand_efficiency_ln>
-0.96928

> <r_i_glide_ligand_efficiency_sa>
-0.418035

> <r_i_glide_lipo>
-2.77799

> <r_i_glide_metal>
0

> <r_i_glide_rewards>
-0.15834

> <s_i_glide_gridfile>
wee1_glide-grid

> <s_m_Source_File>
wee1_decoys_glide_SP.sdf

> <s_m_Source_Path>
/Users/zhangxujun/Desktop

> <s_m_entry_id>
5113

> <s_m_entry_name>
wee1_decoys_glide_SP.4838

> <s_m_subgroup_title>
wee1_decoys_glide_SP

> <s_m_subgroupid>
wee1_decoys_glide_SP


$$$$
