@<TRIPOS>MOLECULE
ZINC12198175_1118
66   70    1
SMALL
USER_CHARGES


@<TRIPOS>ATOM
      1 C1          3.4900   57.0097   16.5413 C.3       1 UNK         0.0000 
      2 C2          4.1467   56.1517   17.5959 C.2       1 UNK         0.0000 
      3 C3          5.1642   56.4710   18.4818 C.2       1 UNK         0.0000 
      4 C4          5.5046   55.4344   19.3586 C.2       1 UNK         0.0000 
      5 C5          4.7679   54.2698   19.1790 C.2       1 UNK         0.0000 
      6 S6          3.6687   54.4998   17.8466 S.3       1 UNK         0.0000 
      7 C7          4.8440   52.9573   19.9323 C.3       1 UNK         0.0000 
      8 C8          3.4795   51.1230   21.0234 C.3       1 UNK         0.0000 
      9 C9          2.1003   50.7774   21.6192 C.3       1 UNK         0.0000 
     10 C10         1.6704   51.7272   22.7821 C.3       1 UNK         0.0000 
     11 C11         1.7088   53.1729   22.2176 C.3       1 UNK         0.0000 
     12 C12         3.1072   53.5590   21.7088 C.3       1 UNK         0.0000 
     13 C13         0.3180   51.3217   23.5056 C.3       1 UNK         0.0000 
     14 C14        -0.8202   51.1797   22.4985 C.2       1 UNK         0.0000 
     15 O15        -1.3090   52.0945   21.8254 O.2       1 UNK         0.0000 
     16 N16        -1.1037   49.8608   22.4420 N.am      1 UNK         0.0000 
     17 C17        -0.4701   49.1234   23.3943 C.2       1 UNK         0.0000 
     18 O18        -0.7696   48.0017   23.8003 O.2       1 UNK         0.0000 
     19 N19         0.3719   49.9678   23.9944 N.am      1 UNK         0.0000 
     20 C20        -2.0638   49.3289   21.4470 C.3       1 UNK         0.0000 
     21 C21        -1.5689   48.1102   20.6384 C.3       1 UNK         0.0000 
     22 C22        -2.8202   47.2959   20.2680 C.3       1 UNK         0.0000 
     23 C23        -4.0104   47.9651   20.9729 C.3       1 UNK         0.0000 
     24 C24        -3.3979   48.8633   22.0523 C.3       1 UNK         0.0000 
     25 C25        -0.1488   52.3207   24.6171 C.3       1 UNK         0.0000 
     26 C26         0.7087   52.3588   25.8802 C.ar      1 UNK         0.0000 
     27 C27         1.7769   53.2592   25.9916 C.ar      1 UNK         0.0000 
     28 C28         2.5194   53.3176   27.1707 C.ar      1 UNK         0.0000 
     29 C29         2.1932   52.4805   28.2383 C.ar      1 UNK         0.0000 
     30 C30         1.1296   51.5869   28.1330 C.ar      1 UNK         0.0000 
     31 C31         0.3889   51.5216   26.9559 C.ar      1 UNK         0.0000 
     32 F32         2.9146   52.5350   29.3816 F         1 UNK         0.0000 
     33 H33         3.9004   58.0197   16.5183 H         1 UNK         0.0000 
     34 H34         3.6158   56.5888   15.5436 H         1 UNK         0.0000 
     35 H35         2.4190   57.1086   16.7175 H         1 UNK         0.0000 
     36 H36         5.6389   57.4414   18.5013 H         1 UNK         0.0000 
     37 H37         6.2685   55.5367   20.1144 H         1 UNK         0.0000 
     38 H38         5.5417   52.9737   20.7689 H         1 UNK         0.0000 
     39 H39         5.1174   52.1291   19.2809 H         1 UNK         0.0000 
     40 H40         4.2959   51.0056   21.7352 H         1 UNK         0.0000 
     41 H41         3.6728   50.5107   20.1397 H         1 UNK         0.0000 
     42 H42         2.1425   49.7505   21.9810 H         1 UNK         0.0000 
     43 H43         1.3467   50.7561   20.8298 H         1 UNK         0.0000 
     44 H44         2.4524   51.6684   23.5400 H         1 UNK         0.0000 
     45 H45         0.9566   53.2968   21.4359 H         1 UNK         0.0000 
     46 H46         1.4310   53.8969   22.9803 H         1 UNK         0.0000 
     47 H47         3.8795   53.4836   22.4752 H         1 UNK         0.0000 
     48 H48         3.1050   54.5667   21.2977 H         1 UNK         0.0000 
     49 H49         1.1625   49.6412   24.5341 H         1 UNK         0.0000 
     50 H50        -2.3278   50.0918   20.7091 H         1 UNK         0.0000 
     51 H51        -0.9051   47.4759   21.2281 H         1 UNK         0.0000 
     52 H52        -0.9841   48.4185   19.7710 H         1 UNK         0.0000 
     53 H53        -2.7108   46.2612   20.6024 H         1 UNK         0.0000 
     54 H54        -2.9732   47.2673   19.1870 H         1 UNK         0.0000 
     55 H55        -4.7064   47.2362   21.3931 H         1 UNK         0.0000 
     56 H56        -4.5687   48.5748   20.2593 H         1 UNK         0.0000 
     57 H57        -4.0380   49.7017   22.3318 H         1 UNK         0.0000 
     58 H58        -3.2372   48.2893   22.9680 H         1 UNK         0.0000 
     59 H59        -0.2576   53.3330   24.2283 H         1 UNK         0.0000 
     60 H60        -1.1599   52.0711   24.9473 H         1 UNK         0.0000 
     61 H61         2.0283   53.9201   25.1758 H         1 UNK         0.0000 
     62 H62         3.3444   54.0076   27.2623 H         1 UNK         0.0000 
     63 H63         0.8798   50.9399   28.9635 H         1 UNK         0.0000 
     64 H64        -0.4326   50.8214   26.8886 H         1 UNK         0.0000 
     65 N65         3.4749   52.5976   20.5578 N.4       1 UNK         0.0000 
     66 H66         2.7733   52.6983   19.8299 H         1 UNK         0.0000 
@<TRIPOS>BOND
     1    1    2 1    
     2    1   33 1    
     3    1   34 1    
     4    1   35 1    
     5    2    6 1    
     6    2    3 2    
     7    3    4 1    
     8    3   36 1    
     9    4    5 2    
    10    4   37 1    
    11    5    6 1    
    12    5    7 1    
    13    7   38 1    
    14    7   39 1    
    15    7   65 1    
    16    8    9 1    
    17    8   40 1    
    18    8   41 1    
    19    8   65 1    
    20    9   10 1    
    21    9   42 1    
    22    9   43 1    
    23   10   11 1    
    24   10   13 1    
    25   10   44 1    
    26   11   12 1    
    27   11   45 1    
    28   11   46 1    
    29   12   47 1    
    30   12   48 1    
    31   12   65 1    
    32   13   19 1    
    33   13   14 1    
    34   13   25 1    
    35   14   15 2    
    36   14   16 am   BACKBONE|DICT|INTERRES
    37   16   17 am   BACKBONE|DICT|INTERRES
    38   16   20 1    
    39   17   18 2    
    40   17   19 am   BACKBONE|DICT|INTERRES
    41   19   49 1    
    42   20   24 1    
    43   20   21 1    
    44   20   50 1    
    45   21   22 1    
    46   21   51 1    
    47   21   52 1    
    48   22   23 1    
    49   22   53 1    
    50   22   54 1    
    51   23   24 1    
    52   23   55 1    
    53   23   56 1    
    54   24   57 1    
    55   24   58 1    
    56   25   26 1    
    57   25   59 1    
    58   25   60 1    
    59   26   31 ar   
    60   26   27 ar   
    61   27   28 ar   
    62   27   61 1    
    63   28   29 ar   
    64   28   62 1    
    65   29   30 ar   
    66   29   32 1    
    67   30   31 ar   
    68   30   63 1    
    69   31   64 1    
    70   65   66 1    
@<TRIPOS>SUBSTRUCTURE
     1 UNK         1 GROUP             0       ****    0 ROOT    
