@<TRIPOS>MOLECULE
ZINC21323641_3533
64   69    1
SMALL
USER_CHARGES


@<TRIPOS>ATOM
      1 C1         -0.1064   52.4586   29.8667 C.3       1 UNK         0.0000 
      2 C2          0.4133   52.5629   28.4211 C.2       1 UNK         0.0000 
      3 N3         -0.2711   52.2445   27.3879 N.2       1 UNK         0.0000 
      4 N4         -1.5481   51.6861   27.4948 N.pl3     1 UNK         0.0000 
      5 C5         -2.3774   51.5452   26.4082 C.ar      1 UNK         0.0000 
      6 N6         -3.2570   52.4300   26.0196 N.2       1 UNK         0.0000 
      7 N7         -3.8380   51.9260   24.8583 N.2       1 UNK         0.0000 
      8 C8         -3.2552   50.7846   24.5779 C.ar      1 UNK         0.0000 
      9 N9         -2.3406   50.4544   25.5644 N.pl3     1 UNK         0.0000 
     10 N10        -1.5518   49.3132   25.6818 N.3       1 UNK         0.0000 
     11 S11        -3.6979   49.8161   23.1639 S.3       1 UNK         0.0000 
     12 C12        -2.0332   49.5407   22.4540 C.3       1 UNK         0.0000 
     13 C13        -1.3522   50.8485   22.0013 C.2       1 UNK         0.0000 
     14 O14        -2.0007   51.8841   21.8271 O.2       1 UNK         0.0000 
     15 C15         0.1965   50.9036   22.1112 C.3       1 UNK         0.0000 
     16 C16         0.8145   52.0289   21.2094 C.3       1 UNK         0.0000 
     17 C17         0.6488   51.7158   19.6939 C.3       1 UNK         0.0000 
     18 C18         1.3660   50.3840   19.3550 C.3       1 UNK         0.0000 
     19 C19         2.8725   50.5190   19.6910 C.3       1 UNK         0.0000 
     20 C20         3.0494   50.8248   21.2029 C.3       1 UNK         0.0000 
     21 C21         2.3268   52.1570   21.5378 C.3       1 UNK         0.0000 
     22 C22         2.4216   49.6809   22.0409 C.3       1 UNK         0.0000 
     23 C23         0.9096   49.5586   21.7166 C.3       1 UNK         0.0000 
     24 C24         0.7521   49.2379   20.2007 C.3       1 UNK         0.0000 
     25 C25         1.7969   53.0835   28.2473 C.ar      1 UNK         0.0000 
     26 C26         2.7152   53.1128   29.3050 C.ar      1 UNK         0.0000 
     27 C27         4.0165   53.5752   29.1356 C.ar      1 UNK         0.0000 
     28 C28         4.4633   54.0230   27.8734 C.ar      1 UNK         0.0000 
     29 C29         5.7915   54.4653   27.6594 C.ar      1 UNK         0.0000 
     30 C30         6.1931   54.8777   26.3909 C.ar      1 UNK         0.0000 
     31 C31         5.3010   54.8781   25.3253 C.ar      1 UNK         0.0000 
     32 C32         3.9845   54.4600   25.5074 C.ar      1 UNK         0.0000 
     33 C33         3.5473   54.0165   26.7814 C.ar      1 UNK         0.0000 
     34 C34         2.2284   53.5554   26.9944 C.ar      1 UNK         0.0000 
     35 H35         0.4366   51.6969   30.4221 H         1 UNK         0.0000 
     36 H36        -0.0137   53.4101   30.3882 H         1 UNK         0.0000 
     37 H37        -1.1534   52.1719   29.9357 H         1 UNK         0.0000 
     38 H38        -1.8000   51.3708   28.4208 H         1 UNK         0.0000 
     39 H39        -0.5750   49.5647   25.6197 H         1 UNK         0.0000 
     40 H40        -1.6961   48.8970   26.6023 H         1 UNK         0.0000 
     41 H41        -1.4058   49.0142   23.1686 H         1 UNK         0.0000 
     42 H42        -2.1465   48.8961   21.5820 H         1 UNK         0.0000 
     43 H43         0.4106   51.1427   23.1526 H         1 UNK         0.0000 
     44 H44         0.3381   52.9828   21.4276 H         1 UNK         0.0000 
     45 H45        -0.4057   51.6576   19.4217 H         1 UNK         0.0000 
     46 H46         1.0633   52.5288   19.0941 H         1 UNK         0.0000 
     47 H47         1.2546   50.1623   18.2919 H         1 UNK         0.0000 
     48 H48         3.4025   49.6052   19.4179 H         1 UNK         0.0000 
     49 H49         3.3239   51.3122   19.0912 H         1 UNK         0.0000 
     50 H50         4.1122   50.9044   21.4344 H         1 UNK         0.0000 
     51 H51         2.7666   52.9812   20.9716 H         1 UNK         0.0000 
     52 H52         2.4648   52.4103   22.5904 H         1 UNK         0.0000 
     53 H53         2.5683   49.8638   23.1068 H         1 UNK         0.0000 
     54 H54         2.9252   48.7368   21.8296 H         1 UNK         0.0000 
     55 H55         0.5186   48.7272   22.3026 H         1 UNK         0.0000 
     56 H56         1.2485   48.2970   19.9616 H         1 UNK         0.0000 
     57 H57        -0.2958   49.0937   19.9380 H         1 UNK         0.0000 
     58 H58         2.4377   52.7626   30.2892 H         1 UNK         0.0000 
     59 H59         4.7005   53.5764   29.9699 H         1 UNK         0.0000 
     60 H60         6.4922   54.4780   28.4823 H         1 UNK         0.0000 
     61 H61         7.2048   55.2016   26.2319 H         1 UNK         0.0000 
     62 H62         5.6297   55.2015   24.3485 H         1 UNK         0.0000 
     63 H63         3.2951   54.4593   24.6762 H         1 UNK         0.0000 
     64 H64         1.5542   53.5575   26.1469 H         1 UNK         0.0000 
@<TRIPOS>BOND
     1    1    2 1    
     2    1   35 1    
     3    1   36 1    
     4    1   37 1    
     5    2    3 2    
     6    2   25 1    
     7    3    4 1    
     8    4    5 1    
     9    4   38 1    
    10    5    9 ar   
    11    5    6 ar   
    12    6    7 ar   
    13    7    8 ar   
    14    8    9 ar   
    15    8   11 1    
    16    9   10 1    
    17   10   39 1    
    18   10   40 1    
    19   11   12 1    
    20   12   13 1    
    21   12   41 1    
    22   12   42 1    
    23   13   14 2    
    24   13   15 1    
    25   15   23 1    
    26   15   16 1    
    27   15   43 1    
    28   16   21 1    
    29   16   17 1    
    30   16   44 1    
    31   17   18 1    
    32   17   45 1    
    33   17   46 1    
    34   18   24 1    
    35   18   19 1    
    36   18   47 1    
    37   19   20 1    
    38   19   48 1    
    39   19   49 1    
    40   20   21 1    
    41   20   22 1    
    42   20   50 1    
    43   21   51 1    
    44   21   52 1    
    45   22   23 1    
    46   22   53 1    
    47   22   54 1    
    48   23   24 1    
    49   23   55 1    
    50   24   56 1    
    51   24   57 1    
    52   25   34 ar   
    53   25   26 ar   
    54   26   27 ar   
    55   26   58 1    
    56   27   28 ar   
    57   27   59 1    
    58   28   33 ar   
    59   28   29 ar   
    60   29   30 ar   
    61   29   60 1    
    62   30   31 ar   
    63   30   61 1    
    64   31   32 ar   
    65   31   62 1    
    66   32   33 ar   
    67   32   63 1    
    68   33   34 ar   
    69   34   64 1    
@<TRIPOS>SUBSTRUCTURE
     1 UNK         1 GROUP             0       ****    0 ROOT    
