ZINC18222551_2433
                    3D
 Schrodinger Suite 2024-2.
 35 37  0  0  1  0            999 V2000
    2.6985   50.5395   21.2824 C   0  0  0  0  0  0
    1.9819   49.3694   21.0521 C   0  0  0  0  0  0
    1.0220   49.3309   20.0431 C   0  0  0  0  0  0
    0.7652   50.4625   19.2695 C   0  0  0  0  0  0
    1.4778   51.6378   19.5007 C   0  0  0  0  0  0
    2.4588   51.6769   20.4955 C   0  0  0  0  0  0
    3.1367   52.8967   20.6623 N   0  0  0  0  0  0
    4.3628   53.1013   21.1865 C   0  0  0  0  0  0
    5.1039   52.2103   21.6032 O   0  0  0  0  0  0
    4.8080   54.5681   21.2476 C   0  0  0  0  0  0
    6.3757   54.8968   22.1363 S   0  0  0  0  0  0
    5.8816   54.6471   23.8106 C   0  0  0  0  0  0
    4.5918   54.3821   24.2096 N   0  0  0  0  0  0
    3.8233   54.2720   23.5662 H   0  0  0  0  0  0
    4.5800   54.3116   25.5786 C   0  0  0  0  0  0
    3.5747   54.0947   26.5196 C   0  0  0  0  0  0
    3.9483   54.1070   27.8748 C   0  0  0  0  0  0
    5.2927   54.3043   28.2358 C   0  0  0  0  0  0
    6.2944   54.5099   27.2868 C   0  0  0  0  0  0
    5.9307   54.5265   25.9358 C   0  0  0  0  0  0
    6.7054   54.7391   24.8269 N   0  0  0  0  0  0
    2.9153   53.9181   28.9212 N   0  3  0  0  0  0
    1.7310   53.9327   28.5931 O   0  0  0  0  0  0
    3.2856   53.7669   30.0828 O   0  5  0  0  0  0
   -0.0343   47.5622   19.6843 I   0  0  0  0  0  0
    3.4266   50.5416   22.0777 H   0  0  0  0  0  0
    2.1805   48.4968   21.6569 H   0  0  0  0  0  0
    0.0193   50.4271   18.4888 H   0  0  0  0  0  0
    1.2798   52.5065   18.8905 H   0  0  0  0  0  0
    2.6571   53.7042   20.2838 H   0  0  0  0  0  0
    4.9368   54.9164   20.2225 H   0  0  0  0  0  0
    4.0159   55.1754   21.6828 H   0  0  0  0  0  0
    2.5508   53.9318   26.2144 H   0  0  0  0  0  0
    5.5743   54.3179   29.2793 H   0  0  0  0  0  0
    7.3161   54.6749   27.5957 H   0  0  0  0  0  0
  1  6  2  0  0  0
  1  2  1  0  0  0
  1 26  1  0  0  0
  2  3  2  0  0  0
  2 27  1  0  0  0
  3  4  1  0  0  0
  3 25  1  0  0  0
  4  5  2  0  0  0
  4 28  1  0  0  0
  5  6  1  0  0  0
  5 29  1  0  0  0
  6  7  1  0  0  0
  7  8  1  0  0  0
  7 30  1  0  0  0
  8  9  2  0  0  0
  8 10  1  0  0  0
 10 11  1  0  0  0
 10 31  1  0  0  0
 10 32  1  0  0  0
 11 12  1  0  0  0
 12 21  2  0  0  0
 12 13  1  0  0  0
 13 14  1  0  0  0
 13 15  1  0  0  0
 15 20  2  0  0  0
 15 16  1  0  0  0
 16 17  2  0  0  0
 16 33  1  0  0  0
 17 18  1  0  0  0
 17 22  1  0  0  0
 18 19  2  0  0  0
 18 34  1  0  0  0
 19 20  1  0  0  0
 19 35  1  0  0  0
 20 21  1  0  0  0
 22 23  2  0  0  0
 22 24  1  0  0  0
M  CHG  2  22   1  24  -1
M  END
> <i_i_glide_confnum>
1

> <i_i_glide_lignum>
2434

> <i_i_glide_posenum>
381

> <i_i_glide_rotatable_bonds>
6

> <i_m_Source_File_Index>
3455

> <b_m_subgroup_collapsed>
0

> <r_i_docking_score>
-6.29014

> <r_i_glide_ecoul>
-6.60671

> <r_i_glide_eff_state_penalty>
0

> <r_i_glide_einternal>
0.520442

> <r_i_glide_emodel>
-65.7685

> <r_i_glide_energy>
-47.1959

> <r_i_glide_erotb>
0.389258

> <r_i_glide_esite>
-0.0489619

> <r_i_glide_evdw>
-40.5891

> <r_i_glide_gscore>
-6.29014

> <r_i_glide_hbond>
-0.32

> <r_i_glide_ligand_efficiency>
-0.262089

> <r_i_glide_ligand_efficiency_ln>
-1.50552

> <r_i_glide_ligand_efficiency_sa>
-0.755997

> <r_i_glide_lipo>
-2.16347

> <r_i_glide_metal>
0

> <r_i_glide_rewards>
-1.12651

> <s_i_glide_gridfile>
wee1_glide-grid

> <s_m_Source_File>
wee1_decoys_glide_SP.sdf

> <s_m_Source_Path>
/Users/zhangxujun/Desktop

> <s_m_entry_id>
3730

> <s_m_entry_name>
wee1_decoys_glide_SP.3455

> <s_m_subgroup_title>
wee1_decoys_glide_SP

> <s_m_subgroupid>
wee1_decoys_glide_SP


$$$$
