@<TRIPOS>MOLECULE
ZINC46938544_1819
45   47    1
SMALL
USER_CHARGES


@<TRIPOS>ATOM
      1 C1          0.3043   54.2934   31.4780 C.ar      1 UNK         0.0000 
      2 C2          0.9411   55.3664   30.8677 C.ar      1 UNK         0.0000 
      3 C3          1.5028   55.2027   29.6075 C.ar      1 UNK         0.0000 
      4 C4          1.4294   53.9784   28.9263 C.ar      1 UNK         0.0000 
      5 C5          0.7161   52.9119   29.5276 C.ar      1 UNK         0.0000 
      6 C6          0.1777   53.0859   30.8040 C.ar      1 UNK         0.0000 
      7 C7          0.5323   51.5768   28.8155 C.3       1 UNK         0.0000 
      8 C8          0.5770   51.7540   27.2937 C.3       1 UNK         0.0000 
      9 C9          1.9029   52.4253   26.9238 C.3       1 UNK         0.0000 
     10 C10         2.0750   53.8344   27.5377 C.3       1 UNK         0.0000 
     11 H11         1.5058   54.4969   26.8910 H         1 UNK         0.0000 
     12 C12         3.5609   54.2850   27.5453 C.3       1 UNK         0.0000 
     13 N13         4.1333   54.3433   26.2068 N.am      1 UNK         0.0000 
     14 C14         5.4240   54.5894   25.9167 C.2       1 UNK         0.0000 
     15 O15         6.2526   54.8955   26.7776 O.2       1 UNK         0.0000 
     16 N16         5.7308   54.4962   24.6012 N.am      1 UNK         0.0000 
     17 C17         7.0927   54.7415   24.1124 C.3       1 UNK         0.0000 
     18 C18         6.9172   54.7884   22.5992 C.3       1 UNK         0.0000 
     19 C19         5.7197   53.8728   22.3418 C.3       1 UNK         0.0000 
     20 H20         6.0125   52.8226   22.3097 H         1 UNK         0.0000 
     21 C21         4.7910   54.1009   23.5345 C.3       1 UNK         0.0000 
     22 C22         5.0095   54.0950   20.9910 C.2       1 UNK         0.0000 
     23 O23         5.4158   54.9244   20.1815 O.2       1 UNK         0.0000 
     24 N24         3.9441   53.3407   20.7221 N.am      1 UNK         0.0000 
     25 H25        -0.0965   54.3948   32.4751 H         1 UNK         0.0000 
     26 H26         1.0419   56.3121   31.3794 H         1 UNK         0.0000 
     27 H27         1.9990   56.0499   29.1589 H         1 UNK         0.0000 
     28 H28        -0.3470   52.2690   31.2820 H         1 UNK         0.0000 
     29 H29        -0.4069   51.1062   29.1099 H         1 UNK         0.0000 
     30 H30         1.3267   50.8994   29.1286 H         1 UNK         0.0000 
     31 H31        -0.2675   52.3525   26.9485 H         1 UNK         0.0000 
     32 H32         0.4937   50.7811   26.8055 H         1 UNK         0.0000 
     33 H33         2.0101   52.4730   25.8397 H         1 UNK         0.0000 
     34 H34         2.7043   51.7866   27.2844 H         1 UNK         0.0000 
     35 H35         4.1508   53.5851   28.1426 H         1 UNK         0.0000 
     36 H36         3.6813   55.2720   27.9935 H         1 UNK         0.0000 
     37 H37         3.5080   54.1356   25.4437 H         1 UNK         0.0000 
     38 H38         7.7357   53.9047   24.3875 H         1 UNK         0.0000 
     39 H39         7.5035   55.6813   24.4833 H         1 UNK         0.0000 
     40 H40         7.8302   54.4968   22.0816 H         1 UNK         0.0000 
     41 H41         6.6985   55.8149   22.2990 H         1 UNK         0.0000 
     42 H42         4.1320   54.9478   23.3478 H         1 UNK         0.0000 
     43 H43         4.2276   53.1997   23.7701 H         1 UNK         0.0000 
     44 H44         3.6166   52.6421   21.3697 H         1 UNK         0.0000 
     45 H45         3.4611   53.4802   19.8463 H         1 UNK         0.0000 
@<TRIPOS>BOND
     1    1    6 ar   
     2    1    2 ar   
     3    1   25 1    
     4    2    3 ar   
     5    2   26 1    
     6    3    4 ar   
     7    3   27 1    
     8    4   10 1    
     9    4    5 ar   
    10    5    6 ar   
    11    5    7 1    
    12    6   28 1    
    13    7    8 1    
    14    7   29 1    
    15    7   30 1    
    16    8    9 1    
    17    8   31 1    
    18    8   32 1    
    19    9   10 1    
    20    9   33 1    
    21    9   34 1    
    22   10   11 1    
    23   10   12 1    
    24   12   13 1    
    25   12   35 1    
    26   12   36 1    
    27   13   14 am   BACKBONE|DICT|INTERRES
    28   13   37 1    
    29   14   15 2    
    30   14   16 am   BACKBONE|DICT|INTERRES
    31   16   21 1    
    32   16   17 1    
    33   17   18 1    
    34   17   38 1    
    35   17   39 1    
    36   18   19 1    
    37   18   40 1    
    38   18   41 1    
    39   19   20 1    
    40   19   21 1    
    41   19   22 1    
    42   21   42 1    
    43   21   43 1    
    44   22   23 2    
    45   22   24 am   BACKBONE|DICT|INTERRES
    46   24   44 1    
    47   24   45 1    
@<TRIPOS>SUBSTRUCTURE
     1 UNK         1 GROUP             0       ****    0 ROOT    
