@<TRIPOS>MOLECULE
ZINC39758266_2933
71   74    1
SMALL
USER_CHARGES


@<TRIPOS>ATOM
      1 C1          6.8281   55.2734   11.7011 C.3       1 UNK         0.0000 
      2 C2          5.6048   54.7120   12.4022 C.ar      1 UNK         0.0000 
      3 C3          4.3316   55.1977   12.0942 C.ar      1 UNK         0.0000 
      4 C4          3.2070   54.6643   12.7233 C.ar      1 UNK         0.0000 
      5 C5          3.3505   53.6468   13.6662 C.ar      1 UNK         0.0000 
      6 C6          4.6208   53.1633   13.9923 C.ar      1 UNK         0.0000 
      7 C7          5.7435   53.6884   13.3436 C.ar      1 UNK         0.0000 
      8 C8          4.7808   52.0434   15.0128 C.3       1 UNK         0.0000 
      9 N9          4.9790   52.4970   16.4803 N.4       1 UNK         0.0000 
     10 C10         6.2698   53.3264   16.6672 C.3       1 UNK         0.0000 
     11 C11         6.4730   53.5477   18.1753 C.3       1 UNK         0.0000 
     12 C12         5.2376   54.2671   18.7781 C.3       1 UNK         0.0000 
     13 C13         3.9432   53.4465   18.5427 C.3       1 UNK         0.0000 
     14 C14         3.7289   53.2152   17.0369 C.3       1 UNK         0.0000 
     15 C15         5.5147   54.5679   20.2735 C.2       1 UNK         0.0000 
     16 O16         6.4850   55.2776   20.5487 O.2       1 UNK         0.0000 
     17 N17         4.6754   54.0653   21.2102 N.am      1 UNK         0.0000 
     18 C18         4.8399   54.0941   22.6073 C.ar      1 UNK         0.0000 
     19 C19         3.6852   54.0842   23.3946 C.ar      1 UNK         0.0000 
     20 C20         3.7846   54.1296   24.7862 C.ar      1 UNK         0.0000 
     21 C21         5.0443   54.1569   25.3906 C.ar      1 UNK         0.0000 
     22 C22         6.1979   54.1384   24.6065 C.ar      1 UNK         0.0000 
     23 C23         6.0997   54.1052   23.2221 C.ar      1 UNK         0.0000 
     24 S24         5.2733   54.2507   27.1661 S.o2      1 UNK         0.0000 
     25 O25         5.4715   52.8984   27.6879 O.2       1 UNK         0.0000 
     26 O26         6.3068   55.2728   27.3467 O.2       1 UNK         0.0000 
     27 N27         3.8049   54.8960   27.9152 N.pl3     1 UNK         0.0000 
     28 C28         2.6495   54.1798   28.2620 C.ar      1 UNK         0.0000 
     29 C29         2.3407   52.9460   27.6829 C.ar      1 UNK         0.0000 
     30 C30         1.1440   52.2946   27.9706 C.ar      1 UNK         0.0000 
     31 C31         0.2771   52.8571   28.9173 C.ar      1 UNK         0.0000 
     32 C32         0.6027   54.0557   29.5453 C.ar      1 UNK         0.0000 
     33 C33         1.7876   54.7347   29.2232 C.ar      1 UNK         0.0000 
     34 O34         2.1566   55.9367   29.8019 O.3       1 UNK         0.0000 
     35 C35         1.3538   56.5049   30.8315 C.3       1 UNK         0.0000 
     36 O36         0.8959   51.1295   27.2791 O.3       1 UNK         0.0000 
     37 C37        -0.4444   50.6577   27.1959 C.3       1 UNK         0.0000 
     38 H38         7.5909   54.5033   11.5738 H         1 UNK         0.0000 
     39 H39         6.5777   55.6305   10.7012 H         1 UNK         0.0000 
     40 H40         7.2562   56.0966   12.2729 H         1 UNK         0.0000 
     41 H41         4.2096   55.9860   11.3651 H         1 UNK         0.0000 
     42 H42         2.2238   55.0378   12.4780 H         1 UNK         0.0000 
     43 H43         2.4709   53.2391   14.1435 H         1 UNK         0.0000 
     44 H44         6.7283   53.3075   13.5744 H         1 UNK         0.0000 
     45 H45         3.9098   51.3849   15.0354 H         1 UNK         0.0000 
     46 H46         5.6538   51.4259   14.7923 H         1 UNK         0.0000 
     47 H47         7.0900   52.7303   16.2616 H         1 UNK         0.0000 
     48 H48         6.1675   54.2573   16.1054 H         1 UNK         0.0000 
     49 H49         6.6005   52.5488   18.6007 H         1 UNK         0.0000 
     50 H50         7.3848   54.1429   18.2724 H         1 UNK         0.0000 
     51 H51         5.1281   55.2650   18.3466 H         1 UNK         0.0000 
     52 H52         3.0692   53.9973   18.8871 H         1 UNK         0.0000 
     53 H53         4.0062   52.4494   18.9878 H         1 UNK         0.0000 
     54 H54         3.5868   54.1394   16.4748 H         1 UNK         0.0000 
     55 H55         2.8842   52.5419   16.8799 H         1 UNK         0.0000 
     56 H56         3.7924   53.7048   20.8832 H         1 UNK         0.0000 
     57 H57         2.7074   54.0712   22.9331 H         1 UNK         0.0000 
     58 H58         2.8799   54.1633   25.3728 H         1 UNK         0.0000 
     59 H59         7.1752   54.1554   25.0672 H         1 UNK         0.0000 
     60 H60         7.0114   54.0908   22.6442 H         1 UNK         0.0000 
     61 H61         3.8001   55.8845   28.1171 H         1 UNK         0.0000 
     62 H62         3.0080   52.4973   26.9641 H         1 UNK         0.0000 
     63 H63        -0.6500   52.3760   29.1874 H         1 UNK         0.0000 
     64 H64        -0.0916   54.4489   30.2713 H         1 UNK         0.0000 
     65 H65         1.9018   57.3327   31.2832 H         1 UNK         0.0000 
     66 H66         0.4226   56.8965   30.4258 H         1 UNK         0.0000 
     67 H67         1.1094   55.8006   31.6278 H         1 UNK         0.0000 
     68 H68        -0.4609   49.7066   26.6622 H         1 UNK         0.0000 
     69 H69        -0.8878   50.4968   28.1767 H         1 UNK         0.0000 
     70 H70        -1.0709   51.3608   26.6452 H         1 UNK         0.0000 
     71 H71         5.1024   51.6388   17.0308 H         1 UNK         0.0000 
@<TRIPOS>BOND
     1    1    2 1    
     2    1   38 1    
     3    1   39 1    
     4    1   40 1    
     5    2    7 ar   
     6    2    3 ar   
     7    3    4 ar   
     8    3   41 1    
     9    4    5 ar   
    10    4   42 1    
    11    5    6 ar   
    12    5   43 1    
    13    6    7 ar   
    14    6    8 1    
    15    7   44 1    
    16    8    9 1    
    17    8   45 1    
    18    8   46 1    
    19    9   14 1    
    20    9   10 1    
    21    9   71 1    
    22   10   11 1    
    23   10   47 1    
    24   10   48 1    
    25   11   12 1    
    26   11   49 1    
    27   11   50 1    
    28   12   13 1    
    29   12   15 1    
    30   12   51 1    
    31   13   14 1    
    32   13   52 1    
    33   13   53 1    
    34   14   54 1    
    35   14   55 1    
    36   15   16 2    
    37   15   17 am   BACKBONE|DICT|INTERRES
    38   17   18 1    
    39   17   56 1    
    40   18   23 ar   
    41   18   19 ar   
    42   19   20 ar   
    43   19   57 1    
    44   20   21 ar   
    45   20   58 1    
    46   21   22 ar   
    47   21   24 1    
    48   22   23 ar   
    49   22   59 1    
    50   23   60 1    
    51   24   25 2    
    52   24   26 2    
    53   24   27 1    
    54   27   28 1    
    55   27   61 1    
    56   28   33 ar   
    57   28   29 ar   
    58   29   30 ar   
    59   29   62 1    
    60   30   31 ar   
    61   30   36 1    
    62   31   32 ar   
    63   31   63 1    
    64   32   33 ar   
    65   32   64 1    
    66   33   34 1    
    67   34   35 1    
    68   35   65 1    
    69   35   66 1    
    70   35   67 1    
    71   36   37 1    
    72   37   68 1    
    73   37   69 1    
    74   37   70 1    
@<TRIPOS>SUBSTRUCTURE
     1 UNK         1 GROUP             0       ****    0 ROOT    
