@<TRIPOS>MOLECULE
ZINC16612542_4485
63   65    1
SMALL
USER_CHARGES


@<TRIPOS>ATOM
      1 C1          0.0297   48.6323   24.5053 C.3       1 UNK         0.0000 
      2 C2         -0.7507   49.5392   25.4725 C.3       1 UNK         0.0000 
      3 N3         -0.4097   50.9834   25.3196 N.pl3     1 UNK         0.0000 
      4 C4          0.5456   51.6102   26.1232 C.2       1 UNK         0.0000 
      5 C5          1.1170   52.7911   25.7477 C.2       1 UNK         0.0000 
      6 C6          0.8350   53.3927   24.3554 C.3       1 UNK         0.0000 
      7 H7          0.8259   54.4818   24.4295 H         1 UNK         0.0000 
      8 N8         -0.5039   52.8969   23.9738 N.pl3     1 UNK         0.0000 
      9 C9         -1.0514   51.6896   24.3014 C.2       1 UNK         0.0000 
     10 S10        -2.3845   51.2523   23.3901 S.2       1 UNK         0.0000 
     11 C11         1.9251   53.1260   23.2995 C.ar      1 UNK         0.0000 
     12 C12         1.9029   51.9893   22.4804 C.ar      1 UNK         0.0000 
     13 C13         2.8199   51.8489   21.4393 C.ar      1 UNK         0.0000 
     14 C14         3.7712   52.8422   21.1954 C.ar      1 UNK         0.0000 
     15 C15         3.8281   53.9567   22.0455 C.ar      1 UNK         0.0000 
     16 C16         2.9041   54.0970   23.0761 C.ar      1 UNK         0.0000 
     17 N17         4.6149   52.6439   20.0814 N.am      1 UNK         0.0000 
     18 C18         5.4588   53.5103   19.4829 C.2       1 UNK         0.0000 
     19 O19         5.6316   54.6814   19.8208 O.2       1 UNK         0.0000 
     20 N20         6.1056   52.8967   18.4724 N.am      1 UNK         0.0000 
     21 C21         7.1722   53.3616   17.6815 C.ar      1 UNK         0.0000 
     22 C22         7.5027   52.5813   16.5695 C.ar      1 UNK         0.0000 
     23 C23         8.5776   52.9304   15.7515 C.ar      1 UNK         0.0000 
     24 C24         9.3359   54.0638   16.0415 C.ar      1 UNK         0.0000 
     25 C25         9.0191   54.8482   17.1517 C.ar      1 UNK         0.0000 
     26 C26         7.9441   54.5005   17.9702 C.ar      1 UNK         0.0000 
     27 F27         9.7555   55.9450   17.4421 F         1 UNK         0.0000 
     28 F28        10.3777   54.3977   15.2459 F         1 UNK         0.0000 
     29 C29         2.0453   53.5408   26.6041 C.2       1 UNK         0.0000 
     30 O30         1.6991   54.0337   27.6802 O.2       1 UNK         0.0000 
     31 O31         3.2893   53.6263   26.0863 O.3       1 UNK         0.0000 
     32 C32         4.3515   54.2911   26.7666 C.3       1 UNK         0.0000 
     33 C33         5.2164   53.3323   27.6189 C.3       1 UNK         0.0000 
     34 C34         6.5158   54.0260   28.0588 C.3       1 UNK         0.0000 
     35 C35         4.4664   52.7521   28.8347 C.3       1 UNK         0.0000 
     36 C36         0.8301   50.9186   27.4644 C.3       1 UNK         0.0000 
     37 H37        -0.2034   47.5837   24.6915 H         1 UNK         0.0000 
     38 H38        -0.2122   48.8414   23.4627 H         1 UNK         0.0000 
     39 H39         1.1037   48.7571   24.6419 H         1 UNK         0.0000 
     40 H40        -0.5675   49.1777   26.4815 H         1 UNK         0.0000 
     41 H41        -1.8215   49.3642   25.3632 H         1 UNK         0.0000 
     42 H42        -0.9806   53.3492   23.2089 H         1 UNK         0.0000 
     43 H43         1.1614   51.2184   22.6250 H         1 UNK         0.0000 
     44 H44         2.7646   50.9757   20.8044 H         1 UNK         0.0000 
     45 H45         4.5568   54.7398   21.9157 H         1 UNK         0.0000 
     46 H46         2.9425   54.9818   23.6938 H         1 UNK         0.0000 
     47 H47         4.5256   51.7450   19.6260 H         1 UNK         0.0000 
     48 H48         5.8046   51.9456   18.2517 H         1 UNK         0.0000 
     49 H49         6.9275   51.6963   16.3368 H         1 UNK         0.0000 
     50 H50         8.8264   52.3213   14.8950 H         1 UNK         0.0000 
     51 H51         7.7469   55.1203   18.8302 H         1 UNK         0.0000 
     52 H52         3.9864   55.1259   27.3677 H         1 UNK         0.0000 
     53 H53         4.9779   54.7307   25.9897 H         1 UNK         0.0000 
     54 H54         5.5044   52.4990   26.9778 H         1 UNK         0.0000 
     55 H55         6.3039   54.8861   28.6931 H         1 UNK         0.0000 
     56 H56         7.0900   54.3800   27.2020 H         1 UNK         0.0000 
     57 H57         7.1610   53.3497   28.6201 H         1 UNK         0.0000 
     58 H58         4.0945   53.5414   29.4891 H         1 UNK         0.0000 
     59 H59         3.6170   52.1467   28.5244 H         1 UNK         0.0000 
     60 H60         5.1041   52.0996   29.4292 H         1 UNK         0.0000 
     61 H61         1.4241   51.5067   28.1591 H         1 UNK         0.0000 
     62 H62        -0.0971   50.6833   27.9891 H         1 UNK         0.0000 
     63 H63         1.3836   49.9986   27.2817 H         1 UNK         0.0000 
@<TRIPOS>BOND
     1    1    2 1    
     2    1   37 1    
     3    1   38 1    
     4    1   39 1    
     5    2    3 1    
     6    2   40 1    
     7    2   41 1    
     8    3    9 1    
     9    3    4 1    
    10    4    5 2    
    11    4   36 1    
    12    5    6 1    
    13    5   29 1    
    14    6    7 1    
    15    6    8 1    
    16    6   11 1    
    17    8    9 1    
    18    8   42 1    
    19    9   10 2    
    20   11   16 ar   
    21   11   12 ar   
    22   12   13 ar   
    23   12   43 1    
    24   13   14 ar   
    25   13   44 1    
    26   14   15 ar   
    27   14   17 1    
    28   15   16 ar   
    29   15   45 1    
    30   16   46 1    
    31   17   18 am   BACKBONE|DICT|INTERRES
    32   17   47 1    
    33   18   19 2    
    34   18   20 am   BACKBONE|DICT|INTERRES
    35   20   21 1    
    36   20   48 1    
    37   21   26 ar   
    38   21   22 ar   
    39   22   23 ar   
    40   22   49 1    
    41   23   24 ar   
    42   23   50 1    
    43   24   25 ar   
    44   24   28 1    
    45   25   26 ar   
    46   25   27 1    
    47   26   51 1    
    48   29   30 2    
    49   29   31 1    
    50   31   32 1    
    51   32   33 1    
    52   32   52 1    
    53   32   53 1    
    54   33   34 1    
    55   33   35 1    
    56   33   54 1    
    57   34   55 1    
    58   34   56 1    
    59   34   57 1    
    60   35   58 1    
    61   35   59 1    
    62   35   60 1    
    63   36   61 1    
    64   36   62 1    
    65   36   63 1    
@<TRIPOS>SUBSTRUCTURE
     1 UNK         1 GROUP             0       ****    0 ROOT    
