@<TRIPOS>MOLECULE
ZINC60614809_1496
51   54    1
SMALL
USER_CHARGES


@<TRIPOS>ATOM
      1 C1          8.3046   55.7435   19.9195 C.ar      1 UNK         0.0000 
      2 C2          8.9398   56.4249   18.8850 C.ar      1 UNK         0.0000 
      3 C3          8.1844   57.0059   17.8713 C.ar      1 UNK         0.0000 
      4 C4          6.7960   56.9063   17.8797 C.ar      1 UNK         0.0000 
      5 C5          6.1596   56.2166   18.9085 C.ar      1 UNK         0.0000 
      6 C6          6.9100   55.6373   19.9391 C.ar      1 UNK         0.0000 
      7 C7          6.2284   54.9233   21.0622 C.ar      1 UNK         0.0000 
      8 N8          6.7055   54.9562   22.3040 N.2       1 UNK         0.0000 
      9 H9          4.0231   53.2994   22.3580 H         1 UNK         0.0000 
     10 C10         5.8168   54.2667   22.9772 C.ar      1 UNK         0.0000 
     11 N11         4.8484   53.8295   22.1206 N.pl3     1 UNK         0.0000 
     12 N12         5.1050   54.2533   20.8865 N.2       1 UNK         0.0000 
     13 N13         5.6705   54.0969   24.3390 N.am      1 UNK         0.0000 
     14 C14         6.1919   54.8920   25.2986 C.2       1 UNK         0.0000 
     15 O15         7.1042   55.6967   25.1216 O.2       1 UNK         0.0000 
     16 C16         5.5479   54.8021   26.6969 C.3       1 UNK         0.0000 
     17 C17         4.0080   54.8961   26.5256 C.3       1 UNK         0.0000 
     18 C18         3.3166   54.8056   27.9051 C.3       1 UNK         0.0000 
     19 N19         3.6831   53.4900   28.4496 N.am      1 UNK         0.0000 
     20 C20         5.1247   53.3703   28.7439 C.3       1 UNK         0.0000 
     21 C21         5.8832   53.4655   27.3978 C.3       1 UNK         0.0000 
     22 C22         2.8114   52.5109   28.8259 C.2       1 UNK         0.0000 
     23 O23         3.1045   51.7556   29.7616 O.2       1 UNK         0.0000 
     24 N24         1.6600   52.3014   28.1178 N.am      1 UNK         0.0000 
     25 C25         1.0858   53.0866   27.0149 C.3       1 UNK         0.0000 
     26 C26         0.3911   52.0549   26.1282 C.3       1 UNK         0.0000 
     27 C27        -0.0684   51.0123   27.1108 C.3       1 UNK         0.0000 
     28 C28         1.1009   50.9494   28.0805 C.3       1 UNK         0.0000 
     29 F29         8.8047   57.6741   16.8730 F         1 UNK         0.0000 
     30 H30         8.9012   55.3038   20.7056 H         1 UNK         0.0000 
     31 H31        10.0163   56.5102   18.8764 H         1 UNK         0.0000 
     32 H32         6.2177   57.3657   17.0922 H         1 UNK         0.0000 
     33 H33         5.0819   56.1476   18.9105 H         1 UNK         0.0000 
     34 H34         4.9802   53.4248   24.6353 H         1 UNK         0.0000 
     35 H35         5.9106   55.6650   27.2591 H         1 UNK         0.0000 
     36 H36         3.6347   54.0688   25.9237 H         1 UNK         0.0000 
     37 H37         3.7097   55.8404   26.0807 H         1 UNK         0.0000 
     38 H38         2.2496   55.0228   27.9109 H         1 UNK         0.0000 
     39 H39         3.7329   55.5563   28.5777 H         1 UNK         0.0000 
     40 H40         5.4073   54.2080   29.3822 H         1 UNK         0.0000 
     41 H41         5.3780   52.4582   29.2834 H         1 UNK         0.0000 
     42 H42         6.9462   53.4011   27.6360 H         1 UNK         0.0000 
     43 H43         5.5582   52.5982   26.8233 H         1 UNK         0.0000 
     44 H44         1.7686   53.6021   26.3558 H         1 UNK         0.0000 
     45 H45         0.2801   53.6967   27.4143 H         1 UNK         0.0000 
     46 H46         1.1001   51.6185   25.4220 H         1 UNK         0.0000 
     47 H47        -0.4216   52.4854   25.5423 H         1 UNK         0.0000 
     48 H48        -0.9702   51.3423   27.6310 H         1 UNK         0.0000 
     49 H49        -0.2922   50.0425   26.6637 H         1 UNK         0.0000 
     50 H50         0.7841   50.6345   29.0753 H         1 UNK         0.0000 
     51 H51         1.8526   50.2615   27.6870 H         1 UNK         0.0000 
@<TRIPOS>BOND
     1    1    6 ar   
     2    1    2 ar   
     3    1   30 1    
     4    2    3 ar   
     5    2   31 1    
     6    3    4 ar   
     7    3   29 1    
     8    4    5 ar   
     9    4   32 1    
    10    5    6 ar   
    11    5   33 1    
    12    6    7 1    
    13    7    8 ar   
    14    7   12 ar   
    15    8   10 ar   
    16    9   11 1    
    17   10   13 1    
    18   10   11 ar   
    19   11   12 ar   
    20   13   14 am   BACKBONE|DICT|INTERRES
    21   13   34 1    
    22   14   15 2    
    23   14   16 1    
    24   16   21 1    
    25   16   17 1    
    26   16   35 1    
    27   17   18 1    
    28   17   36 1    
    29   17   37 1    
    30   18   19 1    
    31   18   38 1    
    32   18   39 1    
    33   19   20 1    
    34   19   22 am   BACKBONE|DICT|INTERRES
    35   20   21 1    
    36   20   40 1    
    37   20   41 1    
    38   21   42 1    
    39   21   43 1    
    40   22   23 2    
    41   22   24 am   BACKBONE|DICT|INTERRES
    42   24   28 1    
    43   24   25 1    
    44   25   26 1    
    45   25   44 1    
    46   25   45 1    
    47   26   27 1    
    48   26   46 1    
    49   26   47 1    
    50   27   28 1    
    51   27   48 1    
    52   27   49 1    
    53   28   50 1    
    54   28   51 1    
@<TRIPOS>SUBSTRUCTURE
     1 UNK         1 GROUP             0       ****    0 ROOT    
