@<TRIPOS>MOLECULE
ZINC41006390_3630
62   65    1
SMALL
USER_CHARGES


@<TRIPOS>ATOM
      1 C1         -3.8626   53.6389   25.5039 C.3       1 UNK         0.0000 
      2 C2         -4.7595   52.4509   25.1749 C.ar      1 UNK         0.0000 
      3 C3         -5.9612   52.3097   25.8772 C.ar      1 UNK         0.0000 
      4 C4         -6.8175   51.2439   25.6098 C.ar      1 UNK         0.0000 
      5 C5         -6.4783   50.3093   24.6338 C.ar      1 UNK         0.0000 
      6 C6         -5.2857   50.4402   23.9253 C.ar      1 UNK         0.0000 
      7 C7         -4.4102   51.5084   24.1860 C.ar      1 UNK         0.0000 
      8 N8         -3.1947   51.7101   23.4963 N.am      1 UNK         0.0000 
      9 C9         -2.5658   50.9432   22.5790 C.2       1 UNK         0.0000 
     10 O10        -2.9513   49.8370   22.1954 O.2       1 UNK         0.0000 
     11 C11        -1.2502   51.5379   22.0020 C.3       1 UNK         0.0000 
     12 H12        -1.1708   52.5500   22.3949 H         1 UNK         0.0000 
     13 C13        -0.0166   50.6889   22.4795 C.3       1 UNK         0.0000 
     14 H14        -0.2266   49.6832   22.0999 H         1 UNK         0.0000 
     15 C15         1.3249   51.0848   21.7667 C.3       1 UNK         0.0000 
     16 H16         2.0779   50.3463   22.0559 H         1 UNK         0.0000 
     17 C17         1.1686   51.0073   20.2100 C.3       1 UNK         0.0000 
     18 C18         0.0115   51.9123   19.7305 C.3       1 UNK         0.0000 
     19 C19        -1.3277   51.6968   20.4569 C.2       1 UNK         0.0000 
     20 O20        -2.3861   51.7537   19.8287 O.2       1 UNK         0.0000 
     21 C21         2.4434   51.3356   19.3933 C.3       1 UNK         0.0000 
     22 O22         0.9030   49.6642   19.8416 O.3       1 UNK         0.0000 
     23 C23         1.9342   52.4314   22.2636 C.2       1 UNK         0.0000 
     24 O24         1.2412   53.2930   22.8115 O.2       1 UNK         0.0000 
     25 N25         3.2602   52.5700   22.0816 N.am      1 UNK         0.0000 
     26 C26         4.1344   53.4827   22.6947 C.ar      1 UNK         0.0000 
     27 C27         3.9902   53.8225   24.0488 C.ar      1 UNK         0.0000 
     28 C28         5.0016   54.5133   24.7139 C.ar      1 UNK         0.0000 
     29 C29         6.1517   54.8965   24.0259 C.ar      1 UNK         0.0000 
     30 C30         6.2772   54.6160   22.6645 C.ar      1 UNK         0.0000 
     31 C31         5.2711   53.9136   21.9900 C.ar      1 UNK         0.0000 
     32 C32         5.4297   53.6406   20.4991 C.3       1 UNK         0.0000 
     33 C33         0.0960   50.4601   23.9907 C.2       1 UNK         0.0000 
     34 C34         0.3311   49.2595   24.6605 C.2       1 UNK         0.0000 
     35 C35         0.3029   49.3486   26.0524 C.2       1 UNK         0.0000 
     36 C36         0.0685   50.6341   26.4943 C.2       1 UNK         0.0000 
     37 S37        -0.1233   51.7326   25.1761 S.3       1 UNK         0.0000 
     38 H38        -2.8914   53.2915   25.8607 H         1 UNK         0.0000 
     39 H39        -3.6950   54.2383   24.6086 H         1 UNK         0.0000 
     40 H40        -4.2922   54.2888   26.2635 H         1 UNK         0.0000 
     41 H41        -6.2392   53.0246   26.6358 H         1 UNK         0.0000 
     42 H42        -7.7442   51.1427   26.1573 H         1 UNK         0.0000 
     43 H43        -7.1420   49.4817   24.4249 H         1 UNK         0.0000 
     44 H44        -5.0742   49.6940   23.1746 H         1 UNK         0.0000 
     45 H45        -2.7138   52.5506   23.7711 H         1 UNK         0.0000 
     46 H46        -0.1573   51.7723   18.6629 H         1 UNK         0.0000 
     47 H47         0.2853   52.9573   19.8691 H         1 UNK         0.0000 
     48 H48         2.6986   52.3958   19.4456 H         1 UNK         0.0000 
     49 H49         3.3062   50.7620   19.7358 H         1 UNK         0.0000 
     50 H50         2.3153   51.1085   18.3322 H         1 UNK         0.0000 
     51 H51         0.8074   49.6284   18.8853 H         1 UNK         0.0000 
     52 H52         3.6926   51.9496   21.4143 H         1 UNK         0.0000 
     53 H53         3.1290   53.4911   24.6116 H         1 UNK         0.0000 
     54 H54         4.8997   54.7430   25.7633 H         1 UNK         0.0000 
     55 H55         6.9381   55.4319   24.5352 H         1 UNK         0.0000 
     56 H56         7.1632   54.9389   22.1404 H         1 UNK         0.0000 
     57 H57         6.3045   54.1416   20.0781 H         1 UNK         0.0000 
     58 H58         5.5041   52.5694   20.3058 H         1 UNK         0.0000 
     59 H59         4.5542   54.0048   19.9600 H         1 UNK         0.0000 
     60 H60         0.4969   48.3257   24.1463 H         1 UNK         0.0000 
     61 H61         0.4276   48.4971   26.7049 H         1 UNK         0.0000 
     62 H62        -0.0197   50.9740   27.5155 H         1 UNK         0.0000 
@<TRIPOS>BOND
     1    1    2 1    
     2    1   38 1    
     3    1   39 1    
     4    1   40 1    
     5    2    7 ar   
     6    2    3 ar   
     7    3    4 ar   
     8    3   41 1    
     9    4    5 ar   
    10    4   42 1    
    11    5    6 ar   
    12    5   43 1    
    13    6    7 ar   
    14    6   44 1    
    15    7    8 1    
    16    8    9 am   BACKBONE|DICT|INTERRES
    17    8   45 1    
    18    9   10 2    
    19    9   11 1    
    20   11   12 1    
    21   11   19 1    
    22   11   13 1    
    23   13   14 1    
    24   13   15 1    
    25   13   33 1    
    26   15   16 1    
    27   15   17 1    
    28   15   23 1    
    29   17   18 1    
    30   17   21 1    
    31   17   22 1    
    32   18   19 1    
    33   18   46 1    
    34   18   47 1    
    35   19   20 2    
    36   21   48 1    
    37   21   49 1    
    38   21   50 1    
    39   22   51 1    
    40   23   24 2    
    41   23   25 am   BACKBONE|DICT|INTERRES
    42   25   26 1    
    43   25   52 1    
    44   26   31 ar   
    45   26   27 ar   
    46   27   28 ar   
    47   27   53 1    
    48   28   29 ar   
    49   28   54 1    
    50   29   30 ar   
    51   29   55 1    
    52   30   31 ar   
    53   30   56 1    
    54   31   32 1    
    55   32   57 1    
    56   32   58 1    
    57   32   59 1    
    58   33   37 1    
    59   33   34 2    
    60   34   35 1    
    61   34   60 1    
    62   35   36 2    
    63   35   61 1    
    64   36   37 1    
    65   36   62 1    
@<TRIPOS>SUBSTRUCTURE
     1 UNK         1 GROUP             0       ****    0 ROOT    
