@<TRIPOS>MOLECULE
ZINC15973415_3311
45   47    1
SMALL
USER_CHARGES


@<TRIPOS>ATOM
      1 C1          6.2122   57.6782   12.5512 C.3       1 UNK         0.0000 
      2 O2          6.6123   58.3614   13.7328 O.3       1 UNK         0.0000 
      3 C3          6.8809   59.7194   13.6863 C.ar      1 UNK         0.0000 
      4 C4          6.7118   60.4965   12.5278 C.ar      1 UNK         0.0000 
      5 C5          6.9341   61.8722   12.5475 C.ar      1 UNK         0.0000 
      6 C6          7.3240   62.5198   13.7266 C.ar      1 UNK         0.0000 
      7 C7          7.5009   61.7476   14.8817 C.ar      1 UNK         0.0000 
      8 C8          7.3071   60.3647   14.8646 C.ar      1 UNK         0.0000 
      9 N9          7.5045   59.6967   16.0824 N.am      1 UNK         0.0000 
     10 C10         8.2933   58.6173   16.2816 C.2       1 UNK         0.0000 
     11 O11         8.9478   58.0822   15.3825 O.2       1 UNK         0.0000 
     12 C12         8.3829   58.0311   17.7222 C.3       1 UNK         0.0000 
     13 C13         7.8241   56.5930   17.7472 C.3       1 UNK         0.0000 
     14 C14         6.8596   56.6354   18.8980 C.2       1 UNK         0.0000 
     15 N15         6.7044   57.8135   19.3274 N.2       1 UNK         0.0000 
     16 O16         7.5046   58.7257   18.6088 O.3       1 UNK         0.0000 
     17 C17         6.1940   55.4426   19.4385 C.ar      1 UNK         0.0000 
     18 C18         5.9044   55.3628   20.8078 C.ar      1 UNK         0.0000 
     19 C19         5.2222   54.2616   21.3187 C.ar      1 UNK         0.0000 
     20 C20         4.8381   53.2324   20.4638 C.ar      1 UNK         0.0000 
     21 C21         5.1346   53.2967   19.1045 C.ar      1 UNK         0.0000 
     22 C22         5.8203   54.3938   18.5911 C.ar      1 UNK         0.0000 
     23 Br23        3.9167   51.7209   21.1623 Br        1 UNK         0.0000 
     24 C24         9.8505   58.0978   18.2868 C.3       1 UNK         0.0000 
     25 C25        10.3690   59.4882   18.7053 C.2       1 UNK         0.0000 
     26 O26        11.4781   59.5280   19.2813 O.co2     1 UNK         0.0000 
     27 N27         7.5398   63.9865   13.7555 N.pl3     1 UNK         0.0000 
     28 O28         7.9116   64.5056   14.8045 O.co2     1 UNK         0.0000 
     29 O29         7.3450   64.6275   12.7262 O.co2     1 UNK         0.0000 
     30 H30         6.0715   56.6219   12.7794 H         1 UNK         0.0000 
     31 H31         5.2656   58.0618   12.1681 H         1 UNK         0.0000 
     32 H32         6.9724   57.7484   11.7718 H         1 UNK         0.0000 
     33 H33         6.3911   60.0515   11.5990 H         1 UNK         0.0000 
     34 H34         6.7863   62.4352   11.6368 H         1 UNK         0.0000 
     35 H35         7.7856   62.2211   15.8125 H         1 UNK         0.0000 
     36 H36         7.1323   60.1788   16.8998 H         1 UNK         0.0000 
     37 H37         8.6119   55.8596   17.9244 H         1 UNK         0.0000 
     38 H38         7.2987   56.3103   16.8326 H         1 UNK         0.0000 
     39 H39         6.1940   56.1566   21.4812 H         1 UNK         0.0000 
     40 H40         4.9922   54.2057   22.3723 H         1 UNK         0.0000 
     41 H41         4.8322   52.4967   18.4455 H         1 UNK         0.0000 
     42 H42         6.0288   54.4253   17.5312 H         1 UNK         0.0000 
     43 H43         9.9158   57.4754   19.1803 H         1 UNK         0.0000 
     44 H44        10.5575   57.6714   17.5743 H         1 UNK         0.0000 
     45 O45         9.6652   60.4967   18.4817 O.co2     1 UNK         0.0000 
@<TRIPOS>BOND
     1    1    2 1    
     2    1   30 1    
     3    1   31 1    
     4    1   32 1    
     5    2    3 1    
     6    3    8 ar   
     7    3    4 ar   
     8    4    5 ar   
     9    4   33 1    
    10    5    6 ar   
    11    5   34 1    
    12    6    7 ar   
    13    6   27 1    
    14    7    8 ar   
    15    7   35 1    
    16    8    9 1    
    17    9   10 am   BACKBONE|DICT|INTERRES
    18    9   36 1    
    19   10   11 2    
    20   10   12 1    
    21   12   16 1    
    22   12   13 1    
    23   12   24 1    
    24   13   14 1    
    25   13   37 1    
    26   13   38 1    
    27   14   15 2    
    28   14   17 1    
    29   15   16 1    
    30   17   22 ar   
    31   17   18 ar   
    32   18   19 ar   
    33   18   39 1    
    34   19   20 ar   
    35   19   40 1    
    36   20   21 ar   
    37   20   23 1    
    38   21   22 ar   
    39   21   41 1    
    40   22   42 1    
    41   24   25 1    
    42   24   43 1    
    43   24   44 1    
    44   25   26 2    
    45   25   45 1    
    46   27   28 2    
    47   27   29 1    
@<TRIPOS>SUBSTRUCTURE
     1 UNK         1 GROUP             0       ****    0 ROOT    
