@<TRIPOS>MOLECULE
ZINC21096623_830
61   64    1
SMALL
USER_CHARGES


@<TRIPOS>ATOM
      1 C1          2.4673   47.6947   18.4706 C.3       1 UNK         0.0000 
      2 O2          1.2388   47.1003   18.8873 O.3       1 UNK         0.0000 
      3 C3          0.1598   47.9294   19.1210 C.ar      1 UNK         0.0000 
      4 C4         -1.0726   47.3257   19.3797 C.ar      1 UNK         0.0000 
      5 C5         -2.2129   48.1004   19.5989 C.ar      1 UNK         0.0000 
      6 C6         -2.1291   49.4928   19.5670 C.ar      1 UNK         0.0000 
      7 C7         -0.9011   50.1114   19.3247 C.ar      1 UNK         0.0000 
      8 C8          0.2335   49.3298   19.1040 C.ar      1 UNK         0.0000 
      9 C9         -0.7672   51.6207   19.3260 C.3       1 UNK         0.0000 
     10 N10         0.1475   52.0632   20.3864 N.pl3     1 UNK         0.0000 
     11 C11        -0.1105   52.0701   21.7000 C.cat     1 UNK         0.0000 
     12 N12        -1.3939   51.9533   22.0857 N.pl3     1 UNK         0.0000 
     13 C13        -1.9257   51.8089   23.3911 C.ar      1 UNK         0.0000 
     14 C14        -1.4447   50.8462   24.2801 C.ar      1 UNK         0.0000 
     15 C15        -2.0134   50.7333   25.5489 C.ar      1 UNK         0.0000 
     16 C16        -3.0567   51.5819   25.9283 C.ar      1 UNK         0.0000 
     17 C17        -3.5448   52.5607   25.0462 C.ar      1 UNK         0.0000 
     18 C18        -2.9666   52.6526   23.7725 C.ar      1 UNK         0.0000 
     19 C19        -4.6504   53.4926   25.4480 C.2       1 UNK         0.0000 
     20 O20        -4.8664   54.4967   24.7277 O.co2     1 UNK         0.0000 
     21 O21        -5.2974   53.2217   26.4833 O.co2     1 UNK         0.0000 
     22 N22         0.9263   52.2235   22.5468 N.pl3     1 UNK         0.0000 
     23 C23         2.3296   51.8561   22.2527 C.3       1 UNK         0.0000 
     24 C24         3.2167   53.1181   22.1099 C.3       1 UNK         0.0000 
     25 N25         3.1217   54.0194   23.2726 N.pl3     1 UNK         0.0000 
     26 C26         1.7150   54.2969   23.5876 C.3       1 UNK         0.0000 
     27 C27         0.8892   53.0183   23.7856 C.3       1 UNK         0.0000 
     28 C28         4.1365   54.1173   24.2220 C.ar      1 UNK         0.0000 
     29 C29         3.8580   54.0969   25.5985 C.ar      1 UNK         0.0000 
     30 C30         4.8790   54.2262   26.5333 C.ar      1 UNK         0.0000 
     31 C31         6.1896   54.3872   26.1014 C.ar      1 UNK         0.0000 
     32 C32         6.4874   54.4175   24.7419 C.ar      1 UNK         0.0000 
     33 C33         5.4658   54.2724   23.8072 C.ar      1 UNK         0.0000 
     34 F34         7.1773   54.5096   27.0116 F         1 UNK         0.0000 
     35 H35         3.1358   46.9315   18.0750 H         1 UNK         0.0000 
     36 H36         2.3046   48.4182   17.6740 H         1 UNK         0.0000 
     37 H37         2.9710   48.1916   19.2996 H         1 UNK         0.0000 
     38 H38        -1.1436   46.2480   19.3973 H         1 UNK         0.0000 
     39 H39        -3.1614   47.6216   19.7907 H         1 UNK         0.0000 
     40 H40        -3.0171   50.0813   19.7444 H         1 UNK         0.0000 
     41 H41         1.1745   49.8292   18.9285 H         1 UNK         0.0000 
     42 H42        -0.3553   51.9584   18.3735 H         1 UNK         0.0000 
     43 H43        -1.7296   52.1139   19.4604 H         1 UNK         0.0000 
     44 H44         1.0887   52.3086   20.1088 H         1 UNK         0.0000 
     45 H45        -0.6409   50.1833   23.9932 H         1 UNK         0.0000 
     46 H46        -1.6517   49.9870   26.2434 H         1 UNK         0.0000 
     47 H47        -3.4821   51.4747   26.9168 H         1 UNK         0.0000 
     48 H48        -3.3128   53.4063   23.0801 H         1 UNK         0.0000 
     49 H49         2.7036   51.2009   23.0390 H         1 UNK         0.0000 
     50 H50         2.3601   51.2585   21.3424 H         1 UNK         0.0000 
     51 H51         2.9058   53.6923   21.2375 H         1 UNK         0.0000 
     52 H52         4.2453   52.8026   21.9342 H         1 UNK         0.0000 
     53 H53         1.3106   54.8954   22.7681 H         1 UNK         0.0000 
     54 H54         1.6186   54.8971   24.4815 H         1 UNK         0.0000 
     55 H55        -0.1273   53.3266   24.0097 H         1 UNK         0.0000 
     56 H56         1.2347   52.4287   24.6361 H         1 UNK         0.0000 
     57 H57         2.8519   53.9610   25.9623 H         1 UNK         0.0000 
     58 H58         4.6593   54.2010   27.5905 H         1 UNK         0.0000 
     59 H59         7.5045   54.5483   24.4089 H         1 UNK         0.0000 
     60 H60         5.7099   54.3103   22.7551 H         1 UNK         0.0000 
     61 H61        -2.0623   52.0965   21.3472 H         1 UNK         0.0000 
@<TRIPOS>BOND
     1    1    2 1    
     2    1   35 1    
     3    1   36 1    
     4    1   37 1    
     5    2    3 1    
     6    3    8 ar   
     7    3    4 ar   
     8    4    5 ar   
     9    4   38 1    
    10    5    6 ar   
    11    5   39 1    
    12    6    7 ar   
    13    6   40 1    
    14    7    8 ar   
    15    7    9 1    
    16    8   41 1    
    17    9   10 1    
    18    9   42 1    
    19    9   43 1    
    20   10   11 ar   
    21   10   44 1    
    22   11   12 ar   
    23   11   22 ar   
    24   12   13 1    
    25   12   61 1    
    26   13   18 ar   
    27   13   14 ar   
    28   14   15 ar   
    29   14   45 1    
    30   15   16 ar   
    31   15   46 1    
    32   16   17 ar   
    33   16   47 1    
    34   17   18 ar   
    35   17   19 1    
    36   18   48 1    
    37   19   20 2    
    38   19   21 1    
    39   22   27 1    
    40   22   23 1    
    41   23   24 1    
    42   23   49 1    
    43   23   50 1    
    44   24   25 1    
    45   24   51 1    
    46   24   52 1    
    47   25   26 1    
    48   25   28 1    
    49   26   27 1    
    50   26   53 1    
    51   26   54 1    
    52   27   55 1    
    53   27   56 1    
    54   28   33 ar   
    55   28   29 ar   
    56   29   30 ar   
    57   29   57 1    
    58   30   31 ar   
    59   30   58 1    
    60   31   32 ar   
    61   31   34 1    
    62   32   33 ar   
    63   32   59 1    
    64   33   60 1    
@<TRIPOS>SUBSTRUCTURE
     1 UNK         1 GROUP             0       ****    0 ROOT    
