@<TRIPOS>MOLECULE
ZINC39933351_353
63   67    1
SMALL
USER_CHARGES


@<TRIPOS>ATOM
      1 C1          5.5103   54.4975   28.5250 C.3       1 UNK         0.0000 
      2 C2          4.0961   54.1441   28.1039 C.ar      1 UNK         0.0000 
      3 C3          3.0723   54.1326   29.0474 C.ar      1 UNK         0.0000 
      4 C4          1.7760   53.8178   28.6575 C.ar      1 UNK         0.0000 
      5 C5          1.5048   53.5194   27.3239 C.ar      1 UNK         0.0000 
      6 C6          2.5086   53.5279   26.3373 C.ar      1 UNK         0.0000 
      7 C7          3.8088   53.8526   26.7672 C.ar      1 UNK         0.0000 
      8 N8          2.2097   53.2305   24.9701 N.pl3     1 UNK         0.0000 
      9 C9          2.8491   53.9852   23.8746 C.3       1 UNK         0.0000 
     10 H10         2.7217   55.0560   24.0421 H         1 UNK         0.0000 
     11 N11         1.9954   53.5747   22.7708 N.pl3     1 UNK         0.0000 
     12 N12         0.9190   52.8134   23.1869 N.2       1 UNK         0.0000 
     13 C13         1.1078   52.5858   24.4098 C.2       1 UNK         0.0000 
     14 C14         0.1913   51.7211   25.1249 C.2       1 UNK         0.0000 
     15 C15        -1.1577   51.8026   25.0968 C.2       1 UNK         0.0000 
     16 C16        -2.0864   52.7112   24.3995 C.2       1 UNK         0.0000 
     17 C17        -3.4195   52.6020   24.5694 C.2       1 UNK         0.0000 
     18 C18        -3.9123   51.5588   25.4581 C.2       1 UNK         0.0000 
     19 C19        -3.0726   50.7105   26.1077 C.2       1 UNK         0.0000 
     20 C20        -1.6875   50.8167   25.9378 C.2       1 UNK         0.0000 
     21 N21        -0.7348   50.0967   26.4817 N.pl3     1 UNK         0.0000 
     22 C22         0.5885   50.5649   26.0237 C.3       1 UNK         0.0000 
     23 S23         4.6274   53.7029   23.5492 S.3       1 UNK         0.0000 
     24 C24         4.9312   54.4968   21.9395 C.3       1 UNK         0.0000 
     25 H25         4.1990   55.2971   21.8917 H         1 UNK         0.0000 
     26 C26         6.3335   55.1377   21.8704 C.3       1 UNK         0.0000 
     27 C27         4.6398   53.5838   20.7330 C.2       1 UNK         0.0000 
     28 O28         4.7164   52.3584   20.8435 O.2       1 UNK         0.0000 
     29 N29         4.3045   54.2364   19.6000 N.am      1 UNK         0.0000 
     30 C30         3.8123   53.7165   18.3931 C.ar      1 UNK         0.0000 
     31 C31         3.9641   54.5171   17.2597 C.ar      1 UNK         0.0000 
     32 C32         3.4726   54.0905   16.0288 C.ar      1 UNK         0.0000 
     33 C33         2.8063   52.8607   15.9183 C.ar      1 UNK         0.0000 
     34 C34         2.6338   52.0768   17.0661 C.ar      1 UNK         0.0000 
     35 C35         3.1312   52.4967   18.2963 C.ar      1 UNK         0.0000 
     36 C36         2.2626   52.3730   14.5958 C.2       1 UNK         0.0000 
     37 O37         1.3117   51.5970   14.5315 O.2       1 UNK         0.0000 
     38 N38         2.8661   52.8113   13.4901 N.am      1 UNK         0.0000 
     39 H39         5.5058   55.1450   29.4028 H         1 UNK         0.0000 
     40 H40         6.0829   53.5979   28.7510 H         1 UNK         0.0000 
     41 H41         6.0265   55.0466   27.7366 H         1 UNK         0.0000 
     42 H42         3.2816   54.3644   30.0805 H         1 UNK         0.0000 
     43 H43         0.9788   53.8072   29.3867 H         1 UNK         0.0000 
     44 H44         0.4804   53.2972   27.0754 H         1 UNK         0.0000 
     45 H45         4.6382   53.8607   26.0867 H         1 UNK         0.0000 
     46 H46         1.7266   54.2195   22.0373 H         1 UNK         0.0000 
     47 H47        -1.7230   53.4880   23.7420 H         1 UNK         0.0000 
     48 H48        -4.1056   53.2685   24.0667 H         1 UNK         0.0000 
     49 H49        -4.9785   51.4568   25.6044 H         1 UNK         0.0000 
     50 H50        -3.4884   49.9528   26.7589 H         1 UNK         0.0000 
     51 H51         1.0765   49.7404   25.4996 H         1 UNK         0.0000 
     52 H52         1.1614   50.8471   26.9065 H         1 UNK         0.0000 
     53 H53         6.5399   55.5846   20.8962 H         1 UNK         0.0000 
     54 H54         6.4391   55.9278   22.6131 H         1 UNK         0.0000 
     55 H55         7.1225   54.4185   22.0829 H         1 UNK         0.0000 
     56 H56         4.4528   55.2326   19.5919 H         1 UNK         0.0000 
     57 H57         4.4663   55.4721   17.3209 H         1 UNK         0.0000 
     58 H58         3.6059   54.7353   15.1715 H         1 UNK         0.0000 
     59 H59         2.1367   51.1172   17.0105 H         1 UNK         0.0000 
     60 H60         2.9831   51.8606   19.1572 H         1 UNK         0.0000 
     61 H61         3.7050   53.3658   13.5528 H         1 UNK         0.0000 
     62 H62         2.5250   52.5005   12.5947 H         1 UNK         0.0000 
     63 H63        -0.8960   49.3287   27.1493 H         1 UNK         0.0000 
@<TRIPOS>BOND
     1    1    2 1    
     2    1   39 1    
     3    1   40 1    
     4    1   41 1    
     5    2    7 ar   
     6    2    3 ar   
     7    3    4 ar   
     8    3   42 1    
     9    4    5 ar   
    10    4   43 1    
    11    5    6 ar   
    12    5   44 1    
    13    6    7 ar   
    14    6    8 1    
    15    7   45 1    
    16    8   13 1    
    17    8    9 1    
    18    9   10 1    
    19    9   11 1    
    20    9   23 1    
    21   11   12 1    
    22   11   46 1    
    23   12   13 2    
    24   13   14 1    
    25   14   22 1    
    26   14   15 2    
    27   15   20 1    
    28   15   16 1    
    29   16   17 2    
    30   16   47 1    
    31   17   18 1    
    32   17   48 1    
    33   18   19 2    
    34   18   49 1    
    35   19   20 1    
    36   19   50 1    
    37   20   21 2    
    38   21   22 1    
    39   21   63 1    
    40   22   51 1    
    41   22   52 1    
    42   23   24 1    
    43   24   25 1    
    44   24   26 1    
    45   24   27 1    
    46   26   53 1    
    47   26   54 1    
    48   26   55 1    
    49   27   28 2    
    50   27   29 am   BACKBONE|DICT|INTERRES
    51   29   30 1    
    52   29   56 1    
    53   30   35 ar   
    54   30   31 ar   
    55   31   32 ar   
    56   31   57 1    
    57   32   33 ar   
    58   32   58 1    
    59   33   34 ar   
    60   33   36 1    
    61   34   35 ar   
    62   34   59 1    
    63   35   60 1    
    64   36   37 2    
    65   36   38 am   BACKBONE|DICT|INTERRES
    66   38   61 1    
    67   38   62 1    
@<TRIPOS>SUBSTRUCTURE
     1 UNK         1 GROUP             0       ****    0 ROOT    
