@<TRIPOS>MOLECULE
ZINC59006649_1390
49   52    1
SMALL
USER_CHARGES


@<TRIPOS>ATOM
      1 C1          5.4900   54.2501   28.7233 C.3       1 UNK         0.0000 
      2 C2          5.5154   54.4727   27.2155 C.ar      1 UNK         0.0000 
      3 C3          6.6978   54.9485   26.6586 C.ar      1 UNK         0.0000 
      4 C4          6.8335   55.0936   25.2819 C.ar      1 UNK         0.0000 
      5 C5          5.7970   54.7426   24.4201 C.ar      1 UNK         0.0000 
      6 C6          4.5924   54.2874   24.9721 C.ar      1 UNK         0.0000 
      7 C7          4.4374   54.1687   26.3600 C.ar      1 UNK         0.0000 
      8 N8          3.2156   53.6656   26.8176 N.am      1 UNK         0.0000 
      9 C9          2.4133   54.2033   27.7595 C.2       1 UNK         0.0000 
     10 O10         2.6134   55.2869   28.3133 O.2       1 UNK         0.0000 
     11 C11         1.2371   53.3472   28.1551 C.ar      1 UNK         0.0000 
     12 C12         0.6982   53.4553   29.4441 C.ar      1 UNK         0.0000 
     13 C13        -0.3320   52.6107   29.8515 C.ar      1 UNK         0.0000 
     14 C14        -0.8518   51.6714   28.9648 C.ar      1 UNK         0.0000 
     15 C15        -0.3409   51.5520   27.6700 C.ar      1 UNK         0.0000 
     16 C16         0.6959   52.4019   27.2682 C.ar      1 UNK         0.0000 
     17 N17        -0.8348   50.4967   26.8821 N.am      1 UNK         0.0000 
     18 C18        -0.6983   50.2638   25.5612 C.2       1 UNK         0.0000 
     19 O19        -0.2342   51.0768   24.7574 O.2       1 UNK         0.0000 
     20 C20        -1.2135   48.8862   25.0730 C.3       1 UNK         0.0000 
     21 H21        -1.1366   48.1798   25.9034 H         1 UNK         0.0000 
     22 C22        -2.6728   48.9857   24.5948 C.3       1 UNK         0.0000 
     23 C23        -2.5345   49.2951   23.1190 C.3       1 UNK         0.0000 
     24 C24        -1.3064   48.4734   22.7315 C.3       1 UNK         0.0000 
     25 O25        -0.4931   48.4442   23.9081 O.3       1 UNK         0.0000 
     26 C26         5.9929   54.8718   22.9424 C.2       1 UNK         0.0000 
     27 N27         7.0309   55.3445   22.2903 N.2       1 UNK         0.0000 
     28 N28         6.7031   55.2971   20.9397 N.2       1 UNK         0.0000 
     29 C29         5.5034   54.7769   20.8807 C.2       1 UNK         0.0000 
     30 O30         4.9931   54.4905   22.1044 O.3       1 UNK         0.0000 
     31 H31         6.4960   54.0889   29.1058 H         1 UNK         0.0000 
     32 H32         5.0626   55.1073   29.2459 H         1 UNK         0.0000 
     33 H33         4.9178   53.3576   28.9786 H         1 UNK         0.0000 
     34 H34         7.5051   55.2105   27.3190 H         1 UNK         0.0000 
     35 H35         7.7638   55.4642   24.8812 H         1 UNK         0.0000 
     36 H36         3.7760   54.0218   24.3165 H         1 UNK         0.0000 
     37 H37         2.8931   52.8250   26.3631 H         1 UNK         0.0000 
     38 H38         1.0933   54.1717   30.1522 H         1 UNK         0.0000 
     39 H39        -0.7194   52.6691   30.8598 H         1 UNK         0.0000 
     40 H40        -1.6314   51.0035   29.3085 H         1 UNK         0.0000 
     41 H41         1.1130   52.2999   26.2795 H         1 UNK         0.0000 
     42 H42        -1.2928   49.7595   27.4232 H         1 UNK         0.0000 
     43 H43        -3.2643   49.7342   25.1292 H         1 UNK         0.0000 
     44 H44        -3.1796   48.0351   24.7652 H         1 UNK         0.0000 
     45 H45        -2.3436   50.3583   22.9652 H         1 UNK         0.0000 
     46 H46        -3.4225   49.0278   22.5440 H         1 UNK         0.0000 
     47 H47        -0.7780   48.9259   21.8915 H         1 UNK         0.0000 
     48 H48        -1.6072   47.4566   22.4765 H         1 UNK         0.0000 
     49 H49         4.8797   54.5637   20.0235 H         1 UNK         0.0000 
@<TRIPOS>BOND
     1    1    2 1    
     2    1   31 1    
     3    1   32 1    
     4    1   33 1    
     5    2    7 ar   
     6    2    3 ar   
     7    3    4 ar   
     8    3   34 1    
     9    4    5 ar   
    10    4   35 1    
    11    5    6 ar   
    12    5   26 1    
    13    6    7 ar   
    14    6   36 1    
    15    7    8 1    
    16    8    9 am   BACKBONE|DICT|INTERRES
    17    8   37 1    
    18    9   10 2    
    19    9   11 1    
    20   11   16 ar   
    21   11   12 ar   
    22   12   13 ar   
    23   12   38 1    
    24   13   14 ar   
    25   13   39 1    
    26   14   15 ar   
    27   14   40 1    
    28   15   16 ar   
    29   15   17 1    
    30   16   41 1    
    31   17   18 am   BACKBONE|DICT|INTERRES
    32   17   42 1    
    33   18   19 2    
    34   18   20 1    
    35   20   21 1    
    36   20   25 1    
    37   20   22 1    
    38   22   23 1    
    39   22   43 1    
    40   22   44 1    
    41   23   24 1    
    42   23   45 1    
    43   23   46 1    
    44   24   25 1    
    45   24   47 1    
    46   24   48 1    
    47   26   30 1    
    48   26   27 2    
    49   27   28 1    
    50   28   29 2    
    51   29   30 1    
    52   29   49 1    
@<TRIPOS>SUBSTRUCTURE
     1 UNK         1 GROUP             0       ****    0 ROOT    
