@<TRIPOS>MOLECULE
ZINC24986445_5530
63   67    1
SMALL
USER_CHARGES


@<TRIPOS>ATOM
      1 C1         -0.0951   52.7340   30.6220 C.ar      1 UNK         0.0000 
      2 C2         -0.8848   51.6965   30.1460 C.ar      1 UNK         0.0000 
      3 C3         -1.1563   51.5714   28.7949 C.ar      1 UNK         0.0000 
      4 C4         -0.6580   52.5211   27.8878 C.ar      1 UNK         0.0000 
      5 C5          0.1204   53.5907   28.3952 C.ar      1 UNK         0.0000 
      6 C6          0.4078   53.6837   29.7473 C.ar      1 UNK         0.0000 
      7 C7         -1.0397   52.4281   26.4071 C.3       1 UNK         0.0000 
      8 C8          0.0846   52.2501   25.3268 C.3       1 UNK         0.0000 
      9 H9         -0.1325   52.9834   24.5501 H         1 UNK         0.0000 
     10 C10         0.0659   50.8320   24.6946 C.2       1 UNK         0.0000 
     11 O11        -0.2177   49.8833   25.4309 O.2       1 UNK         0.0000 
     12 N12         0.3005   50.6768   23.3650 N.am      1 UNK         0.0000 
     13 C13        -0.0556   49.4082   22.6980 C.3       1 UNK         0.0000 
     14 C14        -1.0230   49.7529   21.5302 C.3       1 UNK         0.0000 
     15 C15        -0.5411   50.8623   20.5544 C.3       1 UNK         0.0000 
     16 C16        -0.0906   52.0712   21.4162 C.3       1 UNK         0.0000 
     17 C17         0.9173   51.7112   22.5212 C.3       1 UNK         0.0000 
     18 C18         0.6008   50.3531   19.6593 C.ar      1 UNK         0.0000 
     19 C19         0.6827   50.5595   18.2842 C.ar      1 UNK         0.0000 
     20 N20         1.9044   50.0616   17.8562 N.pl3     1 UNK         0.0000 
     21 C21         2.5290   49.4605   18.9229 C.ar      1 UNK         0.0000 
     22 N22         1.7414   49.6548   20.0311 N.pl3     1 UNK         0.0000 
     23 H23         1.9790   49.3715   20.9712 H         1 UNK         0.0000 
     24 C24        -0.3549   51.3293   17.4935 C.3       1 UNK         0.0000 
     25 C25        -1.2633   52.0912   18.5011 C.3       1 UNK         0.0000 
     26 N26        -1.6472   51.2591   19.6554 N.3       1 UNK         0.0000 
     27 N27         1.3862   52.4971   25.9352 N.am      1 UNK         0.0000 
     28 C28         2.3142   53.4103   25.6170 C.2       1 UNK         0.0000 
     29 O29         2.2597   54.1016   24.6021 O.2       1 UNK         0.0000 
     30 C30         3.4400   53.5607   26.6234 C.ar      1 UNK         0.0000 
     31 C31         4.5576   54.3550   26.3274 C.ar      1 UNK         0.0000 
     32 C32         5.5947   54.4956   27.2514 C.ar      1 UNK         0.0000 
     33 C33         5.5353   53.8400   28.4817 C.ar      1 UNK         0.0000 
     34 C34         4.4312   53.0451   28.7914 C.ar      1 UNK         0.0000 
     35 C35         3.3945   52.9167   27.8747 C.ar      1 UNK         0.0000 
     36 Br36        4.3043   52.0974   30.4393 Br        1 UNK         0.0000 
     37 H37         0.1084   52.8044   31.6804 H         1 UNK         0.0000 
     38 H38        -1.2922   50.9711   30.8394 H         1 UNK         0.0000 
     39 H39        -1.7666   50.7442   28.4552 H         1 UNK         0.0000 
     40 H40         0.5056   54.3507   27.7329 H         1 UNK         0.0000 
     41 H41         1.0123   54.4982   30.1179 H         1 UNK         0.0000 
     42 H42        -1.6454   53.2965   26.1699 H         1 UNK         0.0000 
     43 H43        -1.7863   51.6369   26.3150 H         1 UNK         0.0000 
     44 H44        -0.5464   48.6963   23.3685 H         1 UNK         0.0000 
     45 H45         0.8555   48.9394   22.3319 H         1 UNK         0.0000 
     46 H46        -1.9766   50.0504   21.9728 H         1 UNK         0.0000 
     47 H47        -1.2361   48.8388   20.9721 H         1 UNK         0.0000 
     48 H48         0.3613   52.8448   20.7925 H         1 UNK         0.0000 
     49 H49        -0.9630   52.5322   21.8832 H         1 UNK         0.0000 
     50 H50         1.2725   52.5874   23.0565 H         1 UNK         0.0000 
     51 H51         1.8127   51.2731   22.0835 H         1 UNK         0.0000 
     52 H52         3.5034   48.9884   18.8831 H         1 UNK         0.0000 
     53 H53         0.0767   52.0173   16.7646 H         1 UNK         0.0000 
     54 H54        -0.9690   50.6509   16.9015 H         1 UNK         0.0000 
     55 H55        -0.7253   52.9762   18.8421 H         1 UNK         0.0000 
     56 H56        -2.1543   52.4436   17.9773 H         1 UNK         0.0000 
     57 H57        -2.2054   50.4641   19.3770 H         1 UNK         0.0000 
     58 H58         1.5453   51.9370   26.7588 H         1 UNK         0.0000 
     59 H59         4.6353   54.8651   25.3779 H         1 UNK         0.0000 
     60 H60         6.4494   55.1106   27.0183 H         1 UNK         0.0000 
     61 H61         6.3470   53.9581   29.1854 H         1 UNK         0.0000 
     62 H62         2.5672   52.2838   28.1615 H         1 UNK         0.0000 
     63 H63         2.3154   50.1083   16.9268 H         1 UNK         0.0000 
@<TRIPOS>BOND
     1    1    6 ar   
     2    1    2 ar   
     3    1   37 1    
     4    2    3 ar   
     5    2   38 1    
     6    3    4 ar   
     7    3   39 1    
     8    4    5 ar   
     9    4    7 1    
    10    5    6 ar   
    11    5   40 1    
    12    6   41 1    
    13    7    8 1    
    14    7   42 1    
    15    7   43 1    
    16    8    9 1    
    17    8   10 1    
    18    8   27 1    
    19   10   11 2    
    20   10   12 am   BACKBONE|DICT|INTERRES
    21   12   17 1    
    22   12   13 1    
    23   13   14 1    
    24   13   44 1    
    25   13   45 1    
    26   14   15 1    
    27   14   46 1    
    28   14   47 1    
    29   15   26 1    
    30   15   16 1    
    31   15   18 1    
    32   16   17 1    
    33   16   48 1    
    34   16   49 1    
    35   17   50 1    
    36   17   51 1    
    37   18   22 ar   
    38   18   19 ar   
    39   19   20 ar   
    40   19   24 1    
    41   20   21 ar   
    42   20   63 1    
    43   21   22 ar   
    44   21   52 1    
    45   22   23 1    
    46   24   25 1    
    47   24   53 1    
    48   24   54 1    
    49   25   26 1    
    50   25   55 1    
    51   25   56 1    
    52   26   57 1    
    53   27   28 am   BACKBONE|DICT|INTERRES
    54   27   58 1    
    55   28   29 2    
    56   28   30 1    
    57   30   35 ar   
    58   30   31 ar   
    59   31   32 ar   
    60   31   59 1    
    61   32   33 ar   
    62   32   60 1    
    63   33   34 ar   
    64   33   61 1    
    65   34   35 ar   
    66   34   36 1    
    67   35   62 1    
@<TRIPOS>SUBSTRUCTURE
     1 UNK         1 GROUP             0       ****    0 ROOT    
