@<TRIPOS>MOLECULE
ZINC19845924_3761
28   30    1
SMALL
USER_CHARGES


@<TRIPOS>ATOM
      1 C1          0.0814   52.1097   28.6380 C.ar      1 UNK         0.0000 
      2 C2          0.9422   52.5285   29.6627 C.ar      1 UNK         0.0000 
      3 C3          2.0803   53.2402   29.2941 C.ar      1 UNK         0.0000 
      4 C4          2.3620   53.5212   27.9887 C.ar      1 UNK         0.0000 
      5 C5          1.5259   53.1219   26.9574 C.ar      1 UNK         0.0000 
      6 C6          0.3623   52.3993   27.2889 C.ar      1 UNK         0.0000 
      7 O7         -0.5455   52.0015   26.3313 O.3       1 UNK         0.0000 
      8 C8         -0.0753   51.5022   25.1373 C.ar      1 UNK         0.0000 
      9 C9          0.0479   52.3620   24.0389 C.ar      1 UNK         0.0000 
     10 C10         0.5769   51.8924   22.8349 C.ar      1 UNK         0.0000 
     11 C11         0.9650   50.5562   22.7200 C.ar      1 UNK         0.0000 
     12 C12         0.8122   49.6911   23.7999 C.ar      1 UNK         0.0000 
     13 C13         0.3042   50.1577   25.0105 C.ar      1 UNK         0.0000 
     14 N14         0.1957   49.2695   26.0817 N.pl3     1 UNK         0.0000 
     15 Br15        1.7113   49.9095   21.0947 Br        1 UNK         0.0000 
     16 O16         3.5060   54.2454   27.9116 O.3       1 UNK         0.0000 
     17 C17         4.0307   54.2710   29.2116 C.3       1 UNK         0.0000 
     18 O18         3.0378   53.7914   30.0822 O.3       1 UNK         0.0000 
     19 H19        -0.8117   51.5545   28.8863 H         1 UNK         0.0000 
     20 H20         0.7136   52.3106   30.6966 H         1 UNK         0.0000 
     21 H21         1.7575   53.3736   25.9338 H         1 UNK         0.0000 
     22 H22        -0.2427   53.3974   24.1341 H         1 UNK         0.0000 
     23 H23         0.6951   52.5617   21.9955 H         1 UNK         0.0000 
     24 H24         1.1027   48.6565   23.6996 H         1 UNK         0.0000 
     25 H25         0.4706   48.3033   25.9616 H         1 UNK         0.0000 
     26 H26        -0.3683   49.5110   26.8916 H         1 UNK         0.0000 
     27 H27         4.8965   53.6107   29.2718 H         1 UNK         0.0000 
     28 H28         4.3176   55.2935   29.4678 H         1 UNK         0.0000 
@<TRIPOS>BOND
     1    1    6 ar   
     2    1    2 ar   
     3    1   19 1    
     4    2    3 ar   
     5    2   20 1    
     6    3   18 1    
     7    3    4 ar   
     8    4    5 ar   
     9    4   16 1    
    10    5    6 ar   
    11    5   21 1    
    12    6    7 1    
    13    7    8 1    
    14    8   13 ar   
    15    8    9 ar   
    16    9   10 ar   
    17    9   22 1    
    18   10   11 ar   
    19   10   23 1    
    20   11   12 ar   
    21   11   15 1    
    22   12   13 ar   
    23   12   24 1    
    24   13   14 1    
    25   14   25 1    
    26   14   26 1    
    27   16   17 1    
    28   17   18 1    
    29   17   27 1    
    30   17   28 1    
@<TRIPOS>SUBSTRUCTURE
     1 UNK         1 GROUP             0       ****    0 ROOT    
