ZINC39637234_3670
                    3D
 Schrodinger Suite 2024-2.
 68 71  0  0  1  0            999 V2000
    5.7627   53.5684   28.1230 C   0  0  0  0  0  0
    4.2624   53.2484   28.2824 C   0  0  1  0  0  0
    4.0957   52.2420   27.8999 H   0  0  0  0  0  0
    3.8398   53.2125   29.7738 C   0  0  0  0  0  0
    2.3465   52.8827   29.9720 C   0  0  0  0  0  0
    1.4710   53.8489   29.1498 C   0  0  0  0  0  0
    1.8370   53.7954   27.6495 C   0  0  1  0  0  0
    1.2268   54.5731   27.1953 H   0  0  0  0  0  0
    3.3368   54.1818   27.4506 C   0  0  2  0  0  0
    3.4495   55.1651   27.9108 H   0  0  0  0  0  0
    3.7745   54.3273   25.9724 C   0  0  0  0  0  0
    1.4081   52.5399   27.0141 N   0  0  0  0  0  0
    0.9709   52.3913   25.7491 C   0  0  0  0  0  0
    1.0039   53.2943   24.9153 O   0  0  0  0  0  0
    0.4803   50.9745   25.3534 C   0  0  2  0  0  0
    0.9937   50.2431   25.9786 H   0  0  0  0  0  0
    0.6735   50.6990   23.8467 C   0  0  0  0  0  0
   -0.6023   51.1281   23.2447 N   0  0  0  0  0  0
   -1.6208   51.4311   24.2583 C   0  0  0  0  0  0
   -1.0564   50.8062   25.5505 C   0  0  0  0  0  0
   -1.6452   51.3720   26.8773 C   0  0  0  0  0  0
   -3.1655   51.1751   26.9631 C   0  0  0  0  0  0
   -3.4421   49.6547   26.9089 N   0  3  0  0  0  0
   -2.8702   48.9582   25.6592 C   0  0  0  0  0  0
   -1.3644   49.2738   25.6032 C   0  0  0  0  0  0
   -0.7735   51.4589   21.9414 C   0  0  0  0  0  0
   -1.7530   52.0946   21.5360 O   0  0  0  0  0  0
    0.2813   51.0191   20.9577 C   0  0  0  0  0  0
    0.7318   51.9101   19.9794 C   0  0  0  0  0  0
    1.7387   51.5530   19.0805 C   0  0  0  0  0  0
    2.2775   50.2652   19.1542 C   0  0  0  0  0  0
    1.8026   49.3471   20.0854 C   0  0  0  0  0  0
    0.8085   49.7197   20.9799 C   0  0  0  0  0  0
    2.3036   48.0927   20.1237 F   0  0  0  0  0  0
    2.2424   52.5511   18.0354 C   0  0  0  0  0  0
    3.2548   53.2499   18.5497 F   0  0  0  0  0  0
    2.6657   51.9356   16.9321 F   0  0  0  0  0  0
    1.2757   53.4009   17.6793 F   0  0  0  0  0  0
    5.9879   54.5938   28.4179 H   0  0  0  0  0  0
    6.3615   52.9062   28.7431 H   0  0  0  0  0  0
    6.1054   53.4212   27.0988 H   0  0  0  0  0  0
    4.4520   52.4885   30.3145 H   0  0  0  0  0  0
    4.0694   54.1763   30.2313 H   0  0  0  0  0  0
    2.1510   51.8544   29.6655 H   0  0  0  0  0  0
    2.0793   52.9351   31.0280 H   0  0  0  0  0  0
    0.4163   53.6075   29.2900 H   0  0  0  0  0  0
    1.5933   54.8657   29.5261 H   0  0  0  0  0  0
    3.8754   53.3517   25.4935 H   0  0  0  0  0  0
    4.7306   54.8435   25.8785 H   0  0  0  0  0  0
    3.0575   54.8965   25.3873 H   0  0  0  0  0  0
    1.4644   51.7194   27.5956 H   0  0  0  0  0  0
    1.5593   51.2195   23.4793 H   0  0  0  0  0  0
    0.8296   49.6244   23.7519 H   0  0  0  0  0  0
   -2.6336   51.1285   23.9996 H   0  0  0  0  0  0
   -1.6624   52.5152   24.3789 H   0  0  0  0  0  0
   -1.1491   50.9290   27.7436 H   0  0  0  0  0  0
   -1.4587   52.4447   26.9502 H   0  0  0  0  0  0
   -3.5774   51.5204   27.9113 H   0  0  0  0  0  0
   -3.7153   51.6326   26.1412 H   0  0  0  0  0  0
   -2.9674   49.2185   27.7027 H   0  0  0  0  0  0
   -3.0548   47.8921   25.8098 H   0  0  0  0  0  0
   -3.4416   49.3002   24.7979 H   0  0  0  0  0  0
   -0.9754   48.7723   24.7182 H   0  0  0  0  0  0
   -0.8327   48.8008   26.4308 H   0  0  0  0  0  0
    0.3060   52.8986   19.9250 H   0  0  0  0  0  0
    3.0623   49.9663   18.4838 H   0  0  0  0  0  0
    0.4481   48.9859   21.6851 H   0  0  0  0  0  0
   -4.4265   49.4566   27.0147 H   0  0  0  0  0  0
  1  2  1  0  0  0
  1 39  1  0  0  0
  1 40  1  0  0  0
  1 41  1  0  0  0
  2  3  1  0  0  0
  2  9  1  0  0  0
  2  4  1  0  0  0
  4  5  1  0  0  0
  4 42  1  0  0  0
  4 43  1  0  0  0
  5  6  1  0  0  0
  5 44  1  0  0  0
  5 45  1  0  0  0
  6  7  1  0  0  0
  6 46  1  0  0  0
  6 47  1  0  0  0
  7  8  1  0  0  0
  7  9  1  0  0  0
  7 12  1  0  0  0
  9 10  1  0  0  0
  9 11  1  0  0  0
 11 48  1  0  0  0
 11 49  1  0  0  0
 11 50  1  0  0  0
 12 13  1  0  0  0
 12 51  1  0  0  0
 13 14  2  0  0  0
 13 15  1  0  0  0
 15 16  1  0  0  0
 15 20  1  0  0  0
 15 17  1  0  0  0
 17 18  1  0  0  0
 17 52  1  0  0  0
 17 53  1  0  0  0
 18 19  1  0  0  0
 18 26  1  0  0  0
 19 20  1  0  0  0
 19 54  1  0  0  0
 19 55  1  0  0  0
 20 25  1  0  0  0
 20 21  1  0  0  0
 21 22  1  0  0  0
 21 56  1  0  0  0
 21 57  1  0  0  0
 22 23  1  0  0  0
 22 58  1  0  0  0
 22 59  1  0  0  0
 23 24  1  0  0  0
 23 60  1  0  0  0
 23 68  1  0  0  0
 24 25  1  0  0  0
 24 61  1  0  0  0
 24 62  1  0  0  0
 25 63  1  0  0  0
 25 64  1  0  0  0
 26 27  2  0  0  0
 26 28  1  0  0  0
 28 33  2  0  0  0
 28 29  1  0  0  0
 29 30  2  0  0  0
 29 65  1  0  0  0
 30 31  1  0  0  0
 30 35  1  0  0  0
 31 32  2  0  0  0
 31 66  1  0  0  0
 32 33  1  0  0  0
 32 34  1  0  0  0
 33 67  1  0  0  0
 35 36  1  0  0  0
 35 37  1  0  0  0
 35 38  1  0  0  0
M  CHG  1  23   1
M  END
> <i_i_glide_confnum>
90

> <i_i_glide_lignum>
3671

> <i_i_glide_posenum>
111

> <i_i_glide_rotatable_bonds>
6

> <i_m_Source_File_Index>
4773

> <b_m_subgroup_collapsed>
0

> <r_i_docking_score>
-4.7509

> <r_i_glide_ecoul>
-6.13516

> <r_i_glide_eff_state_penalty>
0

> <r_i_glide_einternal>
3.98977

> <r_i_glide_emodel>
-56.3192

> <r_i_glide_energy>
-42.5711

> <r_i_glide_erotb>
0.43249

> <r_i_glide_esite>
-0.268473

> <r_i_glide_evdw>
-36.4359

> <r_i_glide_gscore>
-4.7509

> <r_i_glide_hbond>
-0.2

> <r_i_glide_ligand_efficiency>
-0.139732

> <r_i_glide_ligand_efficiency_ln>
-1.04961

> <r_i_glide_ligand_efficiency_sa>
-0.452679

> <r_i_glide_lipo>
-1.70019

> <r_i_glide_metal>
0

> <r_i_glide_rewards>
-0.272657

> <s_i_glide_gridfile>
wee1_glide-grid

> <s_m_Source_File>
wee1_decoys_glide_SP.sdf

> <s_m_Source_Path>
/Users/zhangxujun/Desktop

> <s_m_entry_id>
5048

> <s_m_entry_name>
wee1_decoys_glide_SP.4773

> <s_m_subgroup_title>
wee1_decoys_glide_SP

> <s_m_subgroupid>
wee1_decoys_glide_SP


$$$$
