@<TRIPOS>MOLECULE
ZINC15133785_4228
67   72    1
SMALL
USER_CHARGES


@<TRIPOS>ATOM
      1 C1          4.4892   54.3970   16.6511 C.3       1 UNK         0.0000 
      2 C2          3.2707   54.0949   17.5344 C.3       1 UNK         0.0000 
      3 C3          2.6950   52.6857   17.3025 C.3       1 UNK         0.0000 
      4 N4          1.5833   52.3653   18.1945 N.am      1 UNK         0.0000 
      5 C5          0.3267   52.8581   18.0648 C.2       1 UNK         0.0000 
      6 O6         -0.0093   53.5940   17.1356 O.2       1 UNK         0.0000 
      7 C7         -0.6629   52.4452   19.1043 C.2       1 UNK         0.0000 
      8 O8         -1.8810   52.4967   18.8813 O.2       1 UNK         0.0000 
      9 N9         -0.1339   52.0762   20.2955 N.am      1 UNK         0.0000 
     10 N10        -0.9027   51.6843   21.3289 N.2       1 UNK         0.0000 
     11 C11        -0.2310   51.3707   22.3618 C.2       1 UNK         0.0000 
     12 C12        -0.8754   50.8048   23.6495 C.3       1 UNK         0.0000 
     13 C13        -2.0725   51.6248   24.2358 C.ar      1 UNK         0.0000 
     14 C14        -2.6167   52.8277   23.7581 C.ar      1 UNK         0.0000 
     15 C15        -3.6946   53.4329   24.4081 C.ar      1 UNK         0.0000 
     16 C16        -4.2301   52.8607   25.5579 C.ar      1 UNK         0.0000 
     17 C17        -3.6974   51.6733   26.0554 C.ar      1 UNK         0.0000 
     18 C18        -2.6319   51.0536   25.3981 C.ar      1 UNK         0.0000 
     19 C19        -1.9616   49.7488   25.8570 C.3       1 UNK         0.0000 
     20 C20        -2.0014   48.8152   24.6418 C.ar      1 UNK         0.0000 
     21 C21        -1.4292   49.3550   23.4701 C.ar      1 UNK         0.0000 
     22 C22        -1.4067   48.5614   22.3105 C.ar      1 UNK         0.0000 
     23 C23        -1.9459   47.2747   22.3174 C.ar      1 UNK         0.0000 
     24 C24        -2.5065   46.7561   23.4818 C.ar      1 UNK         0.0000 
     25 C25        -2.5299   47.5226   24.6458 C.ar      1 UNK         0.0000 
     26 C26        -0.4310   50.0459   26.0752 C.3       1 UNK         0.0000 
     27 H27         0.0875   49.1193   26.3393 H         1 UNK         0.0000 
     28 C28         0.2022   50.6731   24.8214 C.3       1 UNK         0.0000 
     29 H29         1.0261   50.0344   24.4931 H         1 UNK         0.0000 
     30 C30         0.8457   51.9646   25.3513 C.2       1 UNK         0.0000 
     31 O31         1.4821   52.7429   24.6403 O.2       1 UNK         0.0000 
     32 N32         0.6306   52.0608   26.6983 N.am      1 UNK         0.0000 
     33 C33        -0.1240   51.0381   27.1828 C.2       1 UNK         0.0000 
     34 O34        -0.4948   50.8968   28.3435 O.2       1 UNK         0.0000 
     35 C35         1.0989   53.1284   27.5291 C.ar      1 UNK         0.0000 
     36 C36         0.3044   53.5951   28.5910 C.ar      1 UNK         0.0000 
     37 C37         0.7146   54.6431   29.3898 C.ar      1 UNK         0.0000 
     38 C38         1.8969   55.3025   29.0951 C.ar      1 UNK         0.0000 
     39 C39         2.7406   54.8237   28.0914 C.ar      1 UNK         0.0000 
     40 C40         2.3476   53.7356   27.3151 C.ar      1 UNK         0.0000 
     41 C41         2.2035   56.5698   29.8542 C.3       1 UNK         0.0000 
     42 H42         4.8718   55.3996   16.8442 H         1 UNK         0.0000 
     43 H43         4.2300   54.3392   15.5923 H         1 UNK         0.0000 
     44 H44         5.2985   53.6893   16.8380 H         1 UNK         0.0000 
     45 H45         3.5499   54.2098   18.5835 H         1 UNK         0.0000 
     46 H46         2.5010   54.8445   17.3442 H         1 UNK         0.0000 
     47 H47         2.4050   52.5621   16.2565 H         1 UNK         0.0000 
     48 H48         3.4838   51.9441   17.4485 H         1 UNK         0.0000 
     49 H49         1.8052   51.7239   18.9390 H         1 UNK         0.0000 
     50 H50         0.8596   52.1020   20.4719 H         1 UNK         0.0000 
     51 H51         0.8549   51.4333   22.4167 H         1 UNK         0.0000 
     52 H52        -2.2096   53.3042   22.8812 H         1 UNK         0.0000 
     53 H53        -4.1065   54.3540   24.0211 H         1 UNK         0.0000 
     54 H54        -5.0580   53.3354   26.0649 H         1 UNK         0.0000 
     55 H55        -4.1090   51.2306   26.9504 H         1 UNK         0.0000 
     56 H56        -2.4627   49.3232   26.7292 H         1 UNK         0.0000 
     57 H57        -0.9764   48.9342   21.3925 H         1 UNK         0.0000 
     58 H58        -1.9276   46.6816   21.4144 H         1 UNK         0.0000 
     59 H59        -2.9304   45.7625   23.4808 H         1 UNK         0.0000 
     60 H60        -2.9541   47.1211   25.5545 H         1 UNK         0.0000 
     61 H61        -0.6667   53.1751   28.8036 H         1 UNK         0.0000 
     62 H62         0.0735   54.9856   30.1869 H         1 UNK         0.0000 
     63 H63         3.6895   55.2972   27.8876 H         1 UNK         0.0000 
     64 H64         3.0106   53.3879   26.5371 H         1 UNK         0.0000 
     65 H65         2.0511   56.4283   30.9239 H         1 UNK         0.0000 
     66 H66         3.2204   56.8966   29.6817 H         1 UNK         0.0000 
     67 H67         1.5224   57.3590   29.5400 H         1 UNK         0.0000 
@<TRIPOS>BOND
     1    1    2 1    
     2    1   42 1    
     3    1   43 1    
     4    1   44 1    
     5    2    3 1    
     6    2   45 1    
     7    2   46 1    
     8    3    4 1    
     9    3   47 1    
    10    3   48 1    
    11    4    5 am   BACKBONE|DICT|INTERRES
    12    4   49 1    
    13    5    6 2    
    14    5    7 1    
    15    7    8 2    
    16    7    9 am   BACKBONE|DICT|INTERRES
    17    9   10 1    
    18    9   50 1    
    19   10   11 2    
    20   11   12 1    
    21   11   51 1    
    22   12   21 1    
    23   12   28 1    
    24   12   13 1    
    25   13   18 ar   
    26   13   14 ar   
    27   14   15 ar   
    28   14   52 1    
    29   15   16 ar   
    30   15   53 1    
    31   16   17 ar   
    32   16   54 1    
    33   17   18 ar   
    34   17   55 1    
    35   18   19 1    
    36   19   20 1    
    37   19   26 1    
    38   19   56 1    
    39   20   25 ar   
    40   20   21 ar   
    41   21   22 ar   
    42   22   23 ar   
    43   22   57 1    
    44   23   24 ar   
    45   23   58 1    
    46   24   25 ar   
    47   24   59 1    
    48   25   60 1    
    49   26   27 1    
    50   26   33 1    
    51   26   28 1    
    52   28   29 1    
    53   28   30 1    
    54   30   31 2    
    55   30   32 am   BACKBONE|DICT|INTERRES
    56   32   33 am   BACKBONE|DICT|INTERRES
    57   32   35 1    
    58   33   34 2    
    59   35   40 ar   
    60   35   36 ar   
    61   36   37 ar   
    62   36   61 1    
    63   37   38 ar   
    64   37   62 1    
    65   38   39 ar   
    66   38   41 1    
    67   39   40 ar   
    68   39   63 1    
    69   40   64 1    
    70   41   65 1    
    71   41   66 1    
    72   41   67 1    
@<TRIPOS>SUBSTRUCTURE
     1 UNK         1 GROUP             0       ****    0 ROOT    
