@<TRIPOS>MOLECULE
ZINC01217095_5579
62   65    1
SMALL
USER_CHARGES


@<TRIPOS>ATOM
      1 C1          5.9077   55.2064   21.5700 C.3       1 UNK         0.0000 
      2 C2          4.8244   54.1092   21.6120 C.3       1 UNK         0.0000 
      3 O3          3.8169   54.2212   22.6253 O.3       1 UNK         0.0000 
      4 C4          4.0946   53.9796   23.9319 C.2       1 UNK         0.0000 
      5 O5          5.2322   54.0962   24.3905 O.2       1 UNK         0.0000 
      6 C6          2.9290   53.4990   24.7343 C.2       1 UNK         0.0000 
      7 C7          3.0134   53.3004   26.0880 C.2       1 UNK         0.0000 
      8 N8          1.9891   52.7916   26.8344 N.2       1 UNK         0.0000 
      9 C9          0.8663   52.4982   26.3060 C.2       1 UNK         0.0000 
     10 N10         0.5825   52.6515   24.9860 N.am      1 UNK         0.0000 
     11 C11        -0.7183   52.4855   24.6266 C.2       1 UNK         0.0000 
     12 O12        -1.1519   52.6821   23.4855 O.2       1 UNK         0.0000 
     13 C13        -1.5221   52.0659   25.7608 C.2       1 UNK         0.0000 
     14 C14        -2.8621   51.9027   25.6349 C.2       1 UNK         0.0000 
     15 C15        -3.8275   51.4731   26.6698 C.ar      1 UNK         0.0000 
     16 C16        -5.1139   52.0159   26.6560 C.ar      1 UNK         0.0000 
     17 C17        -6.0565   51.6411   27.6153 C.ar      1 UNK         0.0000 
     18 C18        -5.7370   50.6972   28.6064 C.ar      1 UNK         0.0000 
     19 C19        -4.4464   50.1421   28.6141 C.ar      1 UNK         0.0000 
     20 C20        -3.5061   50.5373   27.6593 C.ar      1 UNK         0.0000 
     21 O21        -4.0957   49.2010   29.5545 O.3       1 UNK         0.0000 
     22 O22        -6.6248   50.2845   29.5848 O.3       1 UNK         0.0000 
     23 C23        -7.9584   50.7821   29.5801 C.3       1 UNK         0.0000 
     24 S24        -0.5173   51.8967   27.2087 S.3       1 UNK         0.0000 
     25 C25         1.6253   53.0690   23.9822 C.3       1 UNK         0.0000 
     26 H26         1.2187   53.9635   23.5031 H         1 UNK         0.0000 
     27 C27         1.7824   52.0036   22.8799 C.ar      1 UNK         0.0000 
     28 C28         1.8731   50.6401   23.1767 C.ar      1 UNK         0.0000 
     29 C29         1.9129   49.6969   22.1542 C.ar      1 UNK         0.0000 
     30 C30         1.8693   50.0905   20.8087 C.ar      1 UNK         0.0000 
     31 C31         1.7838   51.4604   20.5240 C.ar      1 UNK         0.0000 
     32 C32         1.7292   52.4020   21.5443 C.ar      1 UNK         0.0000 
     33 N33         1.9040   49.1387   19.7567 N.pl3     1 UNK         0.0000 
     34 C34         2.1825   49.5748   18.3911 C.3       1 UNK         0.0000 
     35 C35         1.8275   47.7038   20.0186 C.3       1 UNK         0.0000 
     36 C36         4.1722   53.6779   27.0126 C.3       1 UNK         0.0000 
     37 H37         6.6685   54.9500   20.8318 H         1 UNK         0.0000 
     38 H38         5.5046   56.1726   21.2761 H         1 UNK         0.0000 
     39 H39         6.4172   55.3246   22.5250 H         1 UNK         0.0000 
     40 H40         5.3050   53.1337   21.7092 H         1 UNK         0.0000 
     41 H41         4.3136   54.0867   20.6506 H         1 UNK         0.0000 
     42 H42        -3.3092   52.0759   24.6654 H         1 UNK         0.0000 
     43 H43        -5.3939   52.7384   25.9028 H         1 UNK         0.0000 
     44 H44        -7.0342   52.0944   27.5686 H         1 UNK         0.0000 
     45 H45        -2.5223   50.0967   27.6823 H         1 UNK         0.0000 
     46 H46        -3.1695   48.8999   29.5412 H         1 UNK         0.0000 
     47 H47        -8.5131   50.3250   30.3965 H         1 UNK         0.0000 
     48 H48        -8.4731   50.5344   28.6520 H         1 UNK         0.0000 
     49 H49        -7.9814   51.8621   29.7301 H         1 UNK         0.0000 
     50 H50         1.8947   50.3011   24.2003 H         1 UNK         0.0000 
     51 H51         1.9873   48.6566   22.4275 H         1 UNK         0.0000 
     52 H52         1.7410   51.8212   19.5093 H         1 UNK         0.0000 
     53 H53         1.6410   53.4449   21.2939 H         1 UNK         0.0000 
     54 H54         3.1034   50.1610   18.3808 H         1 UNK         0.0000 
     55 H55         2.3029   48.7378   17.7043 H         1 UNK         0.0000 
     56 H56         1.3819   50.2084   18.0110 H         1 UNK         0.0000 
     57 H57         2.6283   47.3970   20.6893 H         1 UNK         0.0000 
     58 H58         0.8694   47.4709   20.4789 H         1 UNK         0.0000 
     59 H59         1.9058   47.1141   19.1043 H         1 UNK         0.0000 
     60 H60         4.6241   54.6283   26.7247 H         1 UNK         0.0000 
     61 H61         3.8640   53.7973   28.0554 H         1 UNK         0.0000 
     62 H62         4.9388   52.9016   26.9723 H         1 UNK         0.0000 
@<TRIPOS>BOND
     1    1    2 1    
     2    1   37 1    
     3    1   38 1    
     4    1   39 1    
     5    2    3 1    
     6    2   40 1    
     7    2   41 1    
     8    3    4 1    
     9    4    5 2    
    10    4    6 1    
    11    6   25 1    
    12    6    7 2    
    13    7    8 1    
    14    7   36 1    
    15    8    9 2    
    16    9   24 1    
    17    9   10 am   BACKBONE|DICT|INTERRES
    18   10   11 am   BACKBONE|DICT|INTERRES
    19   10   25 1    
    20   11   12 2    
    21   11   13 1    
    22   13   14 2    
    23   13   24 1    
    24   14   15 1    
    25   14   42 1    
    26   15   20 ar   
    27   15   16 ar   
    28   16   17 ar   
    29   16   43 1    
    30   17   18 ar   
    31   17   44 1    
    32   18   19 ar   
    33   18   22 1    
    34   19   20 ar   
    35   19   21 1    
    36   20   45 1    
    37   21   46 1    
    38   22   23 1    
    39   23   47 1    
    40   23   48 1    
    41   23   49 1    
    42   25   26 1    
    43   25   27 1    
    44   27   32 ar   
    45   27   28 ar   
    46   28   29 ar   
    47   28   50 1    
    48   29   30 ar   
    49   29   51 1    
    50   30   31 ar   
    51   30   33 1    
    52   31   32 ar   
    53   31   52 1    
    54   32   53 1    
    55   33   34 1    
    56   33   35 1    
    57   34   54 1    
    58   34   55 1    
    59   34   56 1    
    60   35   57 1    
    61   35   58 1    
    62   35   59 1    
    63   36   60 1    
    64   36   61 1    
    65   36   62 1    
@<TRIPOS>SUBSTRUCTURE
     1 UNK         1 GROUP             0       ****    0 ROOT    
