@<TRIPOS>MOLECULE
ZINC21208709_2497
53   56    1
SMALL
USER_CHARGES


@<TRIPOS>ATOM
      1 C1          1.1904   52.2039   27.4402 C.ar      1 UNK         0.0000 
      2 C2         -0.0780   51.6281   27.4836 C.ar      1 UNK         0.0000 
      3 C3         -0.8380   51.7162   28.6446 C.ar      1 UNK         0.0000 
      4 C4         -0.3231   52.3408   29.7735 C.ar      1 UNK         0.0000 
      5 C5          0.9316   52.9341   29.7193 C.ar      1 UNK         0.0000 
      6 C6          1.7024   52.9003   28.5437 C.ar      1 UNK         0.0000 
      7 C7          3.0528   53.5892   28.5186 C.ar      1 UNK         0.0000 
      8 C8          3.9070   54.0078   27.4442 C.ar      1 UNK         0.0000 
      9 C9          5.0210   54.5489   28.0780 C.ar      1 UNK         0.0000 
     10 N10         4.7538   54.4968   29.4041 N.pl3     1 UNK         0.0000 
     11 H11         5.3694   54.8464   30.1252 H         1 UNK         0.0000 
     12 N12         3.5997   53.9078   29.6817 N.2       1 UNK         0.0000 
     13 C13         3.6902   54.0299   26.0147 C.2       1 UNK         0.0000 
     14 O14         2.5612   54.0966   25.5341 O.2       1 UNK         0.0000 
     15 N15         4.8360   54.0967   25.3027 N.am      1 UNK         0.0000 
     16 C16         5.0119   54.2415   23.9193 C.ar      1 UNK         0.0000 
     17 C17         6.2512   54.7329   23.5016 C.ar      1 UNK         0.0000 
     18 C18         6.5142   54.8964   22.1457 C.ar      1 UNK         0.0000 
     19 C19         5.5495   54.5211   21.1955 C.ar      1 UNK         0.0000 
     20 C20         4.3140   54.0286   21.6156 C.ar      1 UNK         0.0000 
     21 C21         4.0396   53.8933   22.9712 C.ar      1 UNK         0.0000 
     22 N22         5.7589   54.5463   19.8068 N.am      1 UNK         0.0000 
     23 C23         6.7312   55.1574   19.1059 C.2       1 UNK         0.0000 
     24 O24         7.5557   55.9514   19.5622 O.2       1 UNK         0.0000 
     25 N25         6.6681   54.7931   17.8158 N.am      1 UNK         0.0000 
     26 C26         7.2776   55.5126   16.6937 C.3       1 UNK         0.0000 
     27 C27         6.5443   56.8013   16.2325 C.3       1 UNK         0.0000 
     28 H28         6.9760   57.1458   15.2911 H         1 UNK         0.0000 
     29 C29         5.0094   56.8303   16.2987 C.3       1 UNK         0.0000 
     30 C30         4.6546   58.2789   16.5642 C.3       1 UNK         0.0000 
     31 C31         5.9422   58.8783   17.1287 C.3       1 UNK         0.0000 
     32 O32         6.8627   57.7935   17.2024 O.3       1 UNK         0.0000 
     33 F33        -2.1026   51.2430   28.6649 F         1 UNK         0.0000 
     34 H34         1.7612   52.0942   26.5338 H         1 UNK         0.0000 
     35 H35        -0.4784   51.1202   26.6184 H         1 UNK         0.0000 
     36 H36        -0.8981   52.3854   30.6874 H         1 UNK         0.0000 
     37 H37         1.2873   53.4372   30.6053 H         1 UNK         0.0000 
     38 H38         5.9269   55.0200   27.7238 H         1 UNK         0.0000 
     39 H39         5.6867   54.0661   25.8397 H         1 UNK         0.0000 
     40 H40         7.0169   54.9956   24.2169 H         1 UNK         0.0000 
     41 H41         7.4887   55.2614   21.8588 H         1 UNK         0.0000 
     42 H42         3.5619   53.7369   20.8959 H         1 UNK         0.0000 
     43 H43         3.0824   53.4892   23.2592 H         1 UNK         0.0000 
     44 H44         5.0668   54.0481   19.2689 H         1 UNK         0.0000 
     45 H45         6.1550   53.9562   17.5817 H         1 UNK         0.0000 
     46 H46         8.3153   55.7470   16.9464 H         1 UNK         0.0000 
     47 H47         7.3215   54.8183   15.8532 H         1 UNK         0.0000 
     48 H48         4.5553   56.4116   15.4000 H         1 UNK         0.0000 
     49 H49         4.6384   56.2064   17.1122 H         1 UNK         0.0000 
     50 H50         4.3716   58.7950   15.6454 H         1 UNK         0.0000 
     51 H51         3.8247   58.3732   17.2654 H         1 UNK         0.0000 
     52 H52         6.3399   59.6632   16.4814 H         1 UNK         0.0000 
     53 H53         5.8062   59.2957   18.1256 H         1 UNK         0.0000 
@<TRIPOS>BOND
     1    1    6 ar   
     2    1    2 ar   
     3    1   34 1    
     4    2    3 ar   
     5    2   35 1    
     6    3    4 ar   
     7    3   33 1    
     8    4    5 ar   
     9    4   36 1    
    10    5    6 ar   
    11    5   37 1    
    12    6    7 1    
    13    7   12 ar   
    14    7    8 ar   
    15    8    9 ar   
    16    8   13 1    
    17    9   10 ar   
    18    9   38 1    
    19   10   11 1    
    20   10   12 ar   
    21   13   14 2    
    22   13   15 am   BACKBONE|DICT|INTERRES
    23   15   16 1    
    24   15   39 1    
    25   16   21 ar   
    26   16   17 ar   
    27   17   18 ar   
    28   17   40 1    
    29   18   19 ar   
    30   18   41 1    
    31   19   20 ar   
    32   19   22 1    
    33   20   21 ar   
    34   20   42 1    
    35   21   43 1    
    36   22   23 am   BACKBONE|DICT|INTERRES
    37   22   44 1    
    38   23   24 2    
    39   23   25 am   BACKBONE|DICT|INTERRES
    40   25   26 1    
    41   25   45 1    
    42   26   27 1    
    43   26   46 1    
    44   26   47 1    
    45   27   28 1    
    46   27   32 1    
    47   27   29 1    
    48   29   30 1    
    49   29   48 1    
    50   29   49 1    
    51   30   31 1    
    52   30   50 1    
    53   30   51 1    
    54   31   32 1    
    55   31   52 1    
    56   31   53 1    
@<TRIPOS>SUBSTRUCTURE
     1 UNK         1 GROUP             0       ****    0 ROOT    
