ZINC50634026_1808
                    3D
 Schrodinger Suite 2024-2.
 28 29  0  0  1  0            999 V2000
    5.5021   54.4617   28.6064 C   0  0  0  0  0  0
    6.3800   54.2838   27.5307 C   0  0  0  0  0  0
    5.8939   54.3014   26.2228 C   0  0  0  0  0  0
    4.5374   54.5246   26.0070 C   0  0  0  0  0  0
    3.7061   54.7643   27.0925 C   0  0  0  0  0  0
    4.1303   54.6640   28.4219 C   0  0  0  0  0  0
    3.3055   54.7564   29.5251 N   0  5  0  0  0  0
    1.8036   55.2448   29.4978 S   0  0  0  0  0  0
    1.2483   55.5365   30.8230 O   0  0  0  0  0  0
    1.5062   56.2433   28.4817 O   0  0  0  0  0  0
    0.9441   53.7430   28.9658 C   0  0  0  0  0  0
    0.9014   53.2649   27.6379 C   0  0  0  0  0  0
    0.2042   52.0967   27.3246 C   0  0  0  0  0  0
   -0.4738   51.4698   28.2968 N   0  3  0  0  0  0
   -0.5008   51.9253   29.5573 C   0  0  0  0  0  0
    0.2256   53.0423   29.9323 C   0  0  0  0  0  0
   -1.2956   51.2967   30.4817 N   0  0  0  0  0  0
    3.8459   54.4967   24.4227 Cl  0  0  0  0  0  0
    6.9628   54.0970   24.8818 Cl  0  0  0  0  0  0
    5.9038   54.4967   29.6064 H   0  0  0  0  0  0
    7.4340   54.1423   27.7193 H   0  0  0  0  0  0
    2.7145   55.0793   26.8723 H   0  0  0  0  0  0
    1.3466   53.7618   26.8032 H   0  0  0  0  0  0
    0.1338   51.6638   26.3359 H   0  0  0  0  0  0
    0.1973   53.3756   30.9608 H   0  0  0  0  0  0
   -1.3262   51.6115   31.4618 H   0  0  0  0  0  0
   -1.6956   50.3755   30.2928 H   0  0  0  0  0  0
   -0.9922   50.6259   28.0817 H   0  0  0  0  0  0
  1  6  2  0  0  0
  1  2  1  0  0  0
  1 20  1  0  0  0
  2  3  2  0  0  0
  2 21  1  0  0  0
  3  4  1  0  0  0
  3 19  1  0  0  0
  4  5  2  0  0  0
  4 18  1  0  0  0
  5  6  1  0  0  0
  5 22  1  0  0  0
  6  7  1  0  0  0
  7  8  1  0  0  0
  8  9  2  0  0  0
  8 10  2  0  0  0
  8 11  1  0  0  0
 11 16  2  0  0  0
 11 12  1  0  0  0
 12 13  2  0  0  0
 12 23  1  0  0  0
 13 14  1  0  0  0
 13 24  1  0  0  0
 14 15  2  0  0  0
 14 28  1  0  0  0
 15 16  1  0  0  0
 15 17  1  0  0  0
 16 25  1  0  0  0
 17 26  1  0  0  0
 17 27  1  0  0  0
M  CHG  2   7  -1  14   1
M  END
> <i_i_glide_confnum>
5

> <i_i_glide_lignum>
1809

> <i_i_glide_posenum>
133

> <i_i_glide_rotatable_bonds>
3

> <i_m_Source_File_Index>
2

> <b_m_subgroup_collapsed>
0

> <r_i_docking_score>
-6.56359

> <r_i_glide_ecoul>
-7.67767

> <r_i_glide_eff_state_penalty>
0

> <r_i_glide_einternal>
3.42597

> <r_i_glide_emodel>
-49.9547

> <r_i_glide_energy>
-33.8093

> <r_i_glide_erotb>
0.552399

> <r_i_glide_esite>
-0.166161

> <r_i_glide_evdw>
-26.1316

> <r_i_glide_gscore>
-6.56359

> <r_i_glide_hbond>
-0.501639

> <r_i_glide_ligand_efficiency>
-0.345452

> <r_i_glide_ligand_efficiency_ln>
-1.66401

> <r_i_glide_ligand_efficiency_sa>
-0.921804

> <r_i_glide_lipo>
-2.33759

> <r_i_glide_metal>
0

> <r_i_glide_rewards>
-1.65236

> <s_i_glide_gridfile>
wee1_glide-grid

> <s_m_Source_File>
wee1_decoys_glide_SP.sdf

> <s_m_Source_Path>
/Users/zhangxujun/Desktop

> <s_m_entry_id>
277

> <s_m_entry_name>
wee1_decoys_glide_SP.2

> <s_m_subgroup_title>
wee1_decoys_glide_SP

> <s_m_subgroupid>
wee1_decoys_glide_SP


$$$$
