@<TRIPOS>MOLECULE
ZINC04258889_2793
62   67    1
SMALL
USER_CHARGES


@<TRIPOS>ATOM
      1 C1         -3.7103   55.3918   13.0973 C.ar      1 UNK         0.0000 
      2 C2         -4.2218   54.7615   14.2310 C.ar      1 UNK         0.0000 
      3 C3         -3.3517   54.2537   15.1934 C.ar      1 UNK         0.0000 
      4 C4         -1.9647   54.3781   15.0171 C.ar      1 UNK         0.0000 
      5 C5         -1.4612   55.0294   13.8861 C.ar      1 UNK         0.0000 
      6 C6         -2.3344   55.5290   12.9229 C.ar      1 UNK         0.0000 
      7 N7         -1.0251   53.9170   15.9574 N.am      1 UNK         0.0000 
      8 C8         -1.1558   52.8738   16.8007 C.2       1 UNK         0.0000 
      9 O9         -2.1032   52.0857   16.7936 O.2       1 UNK         0.0000 
     10 N10        -0.1176   52.8149   17.6639 N.am      1 UNK         0.0000 
     11 C11         0.0384   51.9599   18.7342 C.ar      1 UNK         0.0000 
     12 C12         1.2415   51.3521   18.8544 C.ar      1 UNK         0.0000 
     13 C13         1.5014   50.4897   19.9843 C.ar      1 UNK         0.0000 
     14 C14         0.5362   50.3247   20.9162 C.ar      1 UNK         0.0000 
     15 N15        -0.7260   50.9395   20.7995 N.pl3     1 UNK         0.0000 
     16 C16        -1.0230   51.7937   19.7504 C.ar      1 UNK         0.0000 
     17 O17        -2.0949   52.4128   19.6848 O.2       1 UNK         0.0000 
     18 C18        -1.8436   50.7163   21.7676 C.3       1 UNK         0.0000 
     19 C19        -1.5333   49.7669   22.9543 C.3       1 UNK         0.0000 
     20 H20        -2.4483   49.2302   23.2159 H         1 UNK         0.0000 
     21 C21        -0.5130   48.7104   22.5300 C.3       1 UNK         0.0000 
     22 C22         0.7802   49.4468   22.1581 C.3       1 UNK         0.0000 
     23 H23         1.5394   48.7071   21.8999 H         1 UNK         0.0000 
     24 C24         1.3369   50.2634   23.3608 C.3       1 UNK         0.0000 
     25 N25         0.2809   51.1848   23.8327 N.am      1 UNK         0.0000 
     26 C26        -0.9966   50.5301   24.1929 C.3       1 UNK         0.0000 
     27 C27         0.3948   52.5440   23.8429 C.2       1 UNK         0.0000 
     28 O28        -0.5518   53.2968   24.0818 O.2       1 UNK         0.0000 
     29 C29         1.7569   53.1497   23.6245 C.ar      1 UNK         0.0000 
     30 C30         2.3205   53.2063   22.3466 C.ar      1 UNK         0.0000 
     31 C31         3.6168   53.6754   22.1596 C.ar      1 UNK         0.0000 
     32 C32         4.3942   54.0928   23.2665 C.ar      1 UNK         0.0000 
     33 C33         5.7443   54.4967   23.1230 C.ar      1 UNK         0.0000 
     34 C34         6.4789   54.8979   24.2355 C.ar      1 UNK         0.0000 
     35 C35         5.9037   54.9094   25.5017 C.ar      1 UNK         0.0000 
     36 C36         4.5820   54.5065   25.6801 C.ar      1 UNK         0.0000 
     37 C37         3.8067   54.0876   24.5694 C.ar      1 UNK         0.0000 
     38 C38         2.4768   53.6233   24.7238 C.ar      1 UNK         0.0000 
     39 H39        -4.3874   55.7790   12.3485 H         1 UNK         0.0000 
     40 H40        -5.2926   54.6677   14.3649 H         1 UNK         0.0000 
     41 H41        -3.7643   53.7807   16.0743 H         1 UNK         0.0000 
     42 H42        -0.3950   55.1437   13.7450 H         1 UNK         0.0000 
     43 H43        -1.9446   56.0188   12.0428 H         1 UNK         0.0000 
     44 H44        -0.1299   54.3815   15.9295 H         1 UNK         0.0000 
     45 H45         0.6847   53.3865   17.4484 H         1 UNK         0.0000 
     46 H46         2.0241   51.5016   18.1202 H         1 UNK         0.0000 
     47 H47         2.4649   50.0101   20.0817 H         1 UNK         0.0000 
     48 H48        -2.7120   50.3408   21.2240 H         1 UNK         0.0000 
     49 H49        -2.1886   51.6800   22.1488 H         1 UNK         0.0000 
     50 H50        -0.3322   48.0100   23.3464 H         1 UNK         0.0000 
     51 H51        -0.8843   48.1182   21.6917 H         1 UNK         0.0000 
     52 H52         2.2749   50.7556   23.1083 H         1 UNK         0.0000 
     53 H53         1.5768   49.5771   24.1741 H         1 UNK         0.0000 
     54 H54        -0.7976   49.8249   25.0002 H         1 UNK         0.0000 
     55 H55        -1.7282   51.2288   24.5987 H         1 UNK         0.0000 
     56 H56         1.7577   52.8703   21.4868 H         1 UNK         0.0000 
     57 H57         4.0480   53.6908   21.1704 H         1 UNK         0.0000 
     58 H58         6.1997   54.4971   22.1428 H         1 UNK         0.0000 
     59 H59         7.5042   55.2089   24.1037 H         1 UNK         0.0000 
     60 H60         6.4872   55.2250   26.3551 H         1 UNK         0.0000 
     61 H61         4.1464   54.5038   26.6693 H         1 UNK         0.0000 
     62 H62         2.0428   53.5974   25.7155 H         1 UNK         0.0000 
@<TRIPOS>BOND
     1    1    6 ar   
     2    1    2 ar   
     3    1   39 1    
     4    2    3 ar   
     5    2   40 1    
     6    3    4 ar   
     7    3   41 1    
     8    4    5 ar   
     9    4    7 1    
    10    5    6 ar   
    11    5   42 1    
    12    6   43 1    
    13    7    8 am   BACKBONE|DICT|INTERRES
    14    7   44 1    
    15    8    9 2    
    16    8   10 am   BACKBONE|DICT|INTERRES
    17   10   11 1    
    18   10   45 1    
    19   11   16 ar   
    20   11   12 ar   
    21   12   13 ar   
    22   12   46 1    
    23   13   14 ar   
    24   13   47 1    
    25   14   22 1    
    26   14   15 ar   
    27   15   16 ar   
    28   15   18 1    
    29   16   17 2    
    30   18   19 1    
    31   18   48 1    
    32   18   49 1    
    33   19   20 1    
    34   19   26 1    
    35   19   21 1    
    36   21   22 1    
    37   21   50 1    
    38   21   51 1    
    39   22   23 1    
    40   22   24 1    
    41   24   25 1    
    42   24   52 1    
    43   24   53 1    
    44   25   26 1    
    45   25   27 am   BACKBONE|DICT|INTERRES
    46   26   54 1    
    47   26   55 1    
    48   27   28 2    
    49   27   29 1    
    50   29   38 ar   
    51   29   30 ar   
    52   30   31 ar   
    53   30   56 1    
    54   31   32 ar   
    55   31   57 1    
    56   32   37 ar   
    57   32   33 ar   
    58   33   34 ar   
    59   33   58 1    
    60   34   35 ar   
    61   34   59 1    
    62   35   36 ar   
    63   35   60 1    
    64   36   37 ar   
    65   36   61 1    
    66   37   38 ar   
    67   38   62 1    
@<TRIPOS>SUBSTRUCTURE
     1 UNK         1 GROUP             0       ****    0 ROOT    
