ZINC30943590_1534
                    3D
 Schrodinger Suite 2024-2.
 46 48  0  0  1  0            999 V2000
   -3.2790   46.0023   26.8815 C   0  0  0  0  0  0
   -2.7726   46.5913   25.5725 C   0  0  0  0  0  0
   -3.1693   46.0967   24.5180 O   0  0  0  0  0  0
   -1.9166   47.6258   25.6817 N   0  0  0  0  0  0
   -1.3090   48.3939   24.6706 C   0  0  0  0  0  0
   -1.3548   48.1018   23.2971 C   0  0  0  0  0  0
   -0.7319   48.9447   22.3773 C   0  0  0  0  0  0
   -0.0599   50.0857   22.8116 C   0  0  0  0  0  0
   -0.0059   50.3885   24.1797 C   0  0  0  0  0  0
   -0.6182   49.5302   25.0982 C   0  0  0  0  0  0
    0.6696   51.4912   24.7202 N   0  0  0  0  0  0
    1.1508   52.6065   24.1281 C   0  0  0  0  0  0
    0.9728   52.8969   22.9448 O   0  0  0  0  0  0
    1.9659   53.5668   25.0331 C   0  0  2  0  0  0
    1.3941   54.4924   25.0886 H   0  0  0  0  0  0
    3.3507   53.8347   24.3855 C   0  0  0  0  0  0
    4.3280   54.4416   25.3053 N   0  0  0  0  0  0
    4.1103   54.2330   26.6923 C   0  0  0  0  0  0
    5.0118   54.7247   27.6477 C   0  0  0  0  0  0
    4.8141   54.4965   29.0064 C   0  0  0  0  0  0
    3.7235   53.7447   29.4362 C   0  0  0  0  0  0
    2.8116   53.2502   28.5077 C   0  0  0  0  0  0
    2.9998   53.5030   27.1498 C   0  0  0  0  0  0
    2.0760   52.9368   26.3126 O   0  0  0  0  0  0
    6.0067   54.6805   24.7193 S   0  0  0  0  0  0
    6.3044   56.0980   24.8817 O   0  0  0  0  0  0
    6.8501   53.6967   25.3922 O   0  0  0  0  0  0
    5.9761   54.2708   22.8816 C   0  0  0  0  0  0
   -4.3436   46.2040   26.9953 H   0  0  0  0  0  0
   -2.7594   46.4176   27.7455 H   0  0  0  0  0  0
   -3.1325   44.9223   26.8837 H   0  0  0  0  0  0
   -1.6956   47.9142   26.6373 H   0  0  0  0  0  0
   -1.8590   47.2296   22.9147 H   0  0  0  0  0  0
   -0.7667   48.7111   21.3235 H   0  0  0  0  0  0
    0.4243   50.7078   22.0748 H   0  0  0  0  0  0
   -0.5710   49.7503   26.1572 H   0  0  0  0  0  0
    0.8297   51.4500   25.7167 H   0  0  0  0  0  0
    3.7730   52.8967   24.0432 H   0  0  0  0  0  0
    3.2351   54.4667   23.5038 H   0  0  0  0  0  0
    5.8800   55.2974   27.3586 H   0  0  0  0  0  0
    5.5237   54.8960   29.7167 H   0  0  0  0  0  0
    3.5900   53.5343   30.4842 H   0  0  0  0  0  0
    1.9663   52.6634   28.8363 H   0  0  0  0  0  0
    6.9677   54.4756   22.4802 H   0  0  0  0  0  0
    5.7364   53.2164   22.7554 H   0  0  0  0  0  0
    5.2401   54.8967   22.3811 H   0  0  0  0  0  0
  1  2  1  0  0  0
  1 29  1  0  0  0
  1 30  1  0  0  0
  1 31  1  0  0  0
  2  3  2  0  0  0
  2  4  1  0  0  0
  4  5  1  0  0  0
  4 32  1  0  0  0
  5 10  2  0  0  0
  5  6  1  0  0  0
  6  7  2  0  0  0
  6 33  1  0  0  0
  7  8  1  0  0  0
  7 34  1  0  0  0
  8  9  2  0  0  0
  8 35  1  0  0  0
  9 10  1  0  0  0
  9 11  1  0  0  0
 10 36  1  0  0  0
 11 12  1  0  0  0
 11 37  1  0  0  0
 12 13  2  0  0  0
 12 14  1  0  0  0
 14 15  1  0  0  0
 14 24  1  0  0  0
 14 16  1  0  0  0
 16 17  1  0  0  0
 16 38  1  0  0  0
 16 39  1  0  0  0
 17 18  1  0  0  0
 17 25  1  0  0  0
 18 23  2  0  0  0
 18 19  1  0  0  0
 19 20  2  0  0  0
 19 40  1  0  0  0
 20 21  1  0  0  0
 20 41  1  0  0  0
 21 22  2  0  0  0
 21 42  1  0  0  0
 22 23  1  0  0  0
 22 43  1  0  0  0
 23 24  1  0  0  0
 25 26  2  0  0  0
 25 27  2  0  0  0
 25 28  1  0  0  0
 28 44  1  0  0  0
 28 45  1  0  0  0
 28 46  1  0  0  0
M  END
> <i_i_glide_confnum>
7

> <i_i_glide_lignum>
1535

> <i_i_glide_posenum>
298

> <i_i_glide_rotatable_bonds>
6

> <i_m_Source_File_Index>
369

> <b_m_subgroup_collapsed>
0

> <r_i_docking_score>
-6.6118

> <r_i_glide_ecoul>
-6.82833

> <r_i_glide_eff_state_penalty>
0

> <r_i_glide_einternal>
7.35598

> <r_i_glide_emodel>
-60.9763

> <r_i_glide_energy>
-46.1794

> <r_i_glide_erotb>
0.514177

> <r_i_glide_esite>
-0.2

> <r_i_glide_evdw>
-39.351

> <r_i_glide_gscore>
-6.6118

> <r_i_glide_hbond>
-0.225236

> <r_i_glide_ligand_efficiency>
-0.244882

> <r_i_glide_ligand_efficiency_ln>
-1.53912

> <r_i_glide_ligand_efficiency_sa>
-0.734645

> <r_i_glide_lipo>
-1.94427

> <r_i_glide_metal>
0

> <r_i_glide_rewards>
-1.76467

> <s_i_glide_gridfile>
wee1_glide-grid

> <s_m_Source_File>
wee1_decoys_glide_SP.sdf

> <s_m_Source_Path>
/Users/zhangxujun/Desktop

> <s_m_entry_id>
644

> <s_m_entry_name>
wee1_decoys_glide_SP.369

> <s_m_subgroup_title>
wee1_decoys_glide_SP

> <s_m_subgroupid>
wee1_decoys_glide_SP


$$$$
