@<TRIPOS>MOLECULE
ZINC59344917_853
61   64    1
SMALL
USER_CHARGES


@<TRIPOS>ATOM
      1 C1          6.7612   49.2194   10.1801 C.3       1 UNK         0.0000 
      2 C2          7.9353   50.2132   10.1103 C.3       1 UNK         0.0000 
      3 C3          7.5462   51.7012   10.2478 C.3       1 UNK         0.0000 
      4 C4          6.8230   52.0281   11.5570 C.2       1 UNK         0.0000 
      5 O5          5.5926   52.0215   11.5754 O.2       1 UNK         0.0000 
      6 N6          7.6142   52.3232   12.6087 N.am      1 UNK         0.0000 
      7 C7          7.2258   52.6163   13.9263 C.ar      1 UNK         0.0000 
      8 C8          6.0261   52.1701   14.4952 C.ar      1 UNK         0.0000 
      9 C9          5.7083   52.5116   15.8043 C.ar      1 UNK         0.0000 
     10 C10         6.5844   53.2953   16.5712 C.ar      1 UNK         0.0000 
     11 C11         7.7933   53.7151   16.0018 C.ar      1 UNK         0.0000 
     12 C12         8.1158   53.3687   14.6926 C.ar      1 UNK         0.0000 
     13 C13         6.2243   53.7265   17.9740 C.2       1 UNK         0.0000 
     14 O14         6.6952   54.7672   18.4391 O.2       1 UNK         0.0000 
     15 N15         5.3974   52.8968   18.6500 N.am      1 UNK         0.0000 
     16 C16         4.7373   53.1030   19.8693 C.ar      1 UNK         0.0000 
     17 C17         4.2054   51.9772   20.5070 C.ar      1 UNK         0.0000 
     18 C18         3.5548   52.1045   21.7338 C.ar      1 UNK         0.0000 
     19 C19         3.4424   53.3646   22.3233 C.ar      1 UNK         0.0000 
     20 C20         3.9046   54.4882   21.6494 C.ar      1 UNK         0.0000 
     21 C21         4.5620   54.3681   20.4357 C.ar      1 UNK         0.0000 
     22 S22         2.7633   53.5955   23.9687 S.o2      1 UNK         0.0000 
     23 O23         2.0949   54.8964   23.9891 O.2       1 UNK         0.0000 
     24 O24         2.0113   52.3758   24.2857 O.2       1 UNK         0.0000 
     25 N25         4.1666   53.7205   25.1104 N.pl3     1 UNK         0.0000 
     26 C26         5.4706   54.1719   24.5711 C.3       1 UNK         0.0000 
     27 C27         6.1146   55.3142   25.3625 C.3       1 UNK         0.0000 
     28 C28         6.3013   54.8826   26.8111 C.3       1 UNK         0.0000 
     29 C29         4.9805   54.3810   27.3683 C.ar      1 UNK         0.0000 
     30 C30         3.9956   53.7912   26.5304 C.ar      1 UNK         0.0000 
     31 C31         2.8235   53.2974   27.1291 C.ar      1 UNK         0.0000 
     32 C32         2.6154   53.3875   28.5016 C.ar      1 UNK         0.0000 
     33 C33         3.5748   53.9835   29.3079 C.ar      1 UNK         0.0000 
     34 C34         4.7410   54.4848   28.7426 C.ar      1 UNK         0.0000 
     35 H35         7.1049   48.1905   10.0831 H         1 UNK         0.0000 
     36 H36         6.0372   49.4103    9.3874 H         1 UNK         0.0000 
     37 H37         6.2344   49.2837   11.1326 H         1 UNK         0.0000 
     38 H38         8.6748   49.9546   10.8710 H         1 UNK         0.0000 
     39 H39         8.4445   50.0968    9.1544 H         1 UNK         0.0000 
     40 H40         8.4388   52.3219   10.1663 H         1 UNK         0.0000 
     41 H41         6.9113   51.9986    9.4128 H         1 UNK         0.0000 
     42 H42         8.6006   52.4125   12.4209 H         1 UNK         0.0000 
     43 H43         5.3318   51.5538   13.9445 H         1 UNK         0.0000 
     44 H44         4.7699   52.1582   16.2091 H         1 UNK         0.0000 
     45 H45         8.4883   54.3191   16.5687 H         1 UNK         0.0000 
     46 H46         9.0525   53.7101   14.2762 H         1 UNK         0.0000 
     47 H47         5.2980   51.9480   18.2743 H         1 UNK         0.0000 
     48 H48         4.3036   50.9963   20.0659 H         1 UNK         0.0000 
     49 H49         3.1620   51.2268   22.2266 H         1 UNK         0.0000 
     50 H50         3.7605   55.4571   22.0821 H         1 UNK         0.0000 
     51 H51         4.9081   55.2664   19.9498 H         1 UNK         0.0000 
     52 H52         6.1070   53.2966   24.6879 H         1 UNK         0.0000 
     53 H53         5.4930   54.3739   23.5075 H         1 UNK         0.0000 
     54 H54         7.0685   55.5856   24.9084 H         1 UNK         0.0000 
     55 H55         5.4974   56.2090   25.2890 H         1 UNK         0.0000 
     56 H56         7.0308   54.0715   26.8610 H         1 UNK         0.0000 
     57 H57         6.7031   55.6972   27.4120 H         1 UNK         0.0000 
     58 H58         2.0429   52.8288   26.5566 H         1 UNK         0.0000 
     59 H59         1.7068   52.9948   28.9354 H         1 UNK         0.0000 
     60 H60         3.4234   54.0479   30.3719 H         1 UNK         0.0000 
     61 H61         5.4842   54.9433   29.3814 H         1 UNK         0.0000 
@<TRIPOS>BOND
     1    1    2 1    
     2    1   35 1    
     3    1   36 1    
     4    1   37 1    
     5    2    3 1    
     6    2   38 1    
     7    2   39 1    
     8    3    4 1    
     9    3   40 1    
    10    3   41 1    
    11    4    5 2    
    12    4    6 am   BACKBONE|DICT|INTERRES
    13    6    7 1    
    14    6   42 1    
    15    7   12 ar   
    16    7    8 ar   
    17    8    9 ar   
    18    8   43 1    
    19    9   10 ar   
    20    9   44 1    
    21   10   11 ar   
    22   10   13 1    
    23   11   12 ar   
    24   11   45 1    
    25   12   46 1    
    26   13   14 2    
    27   13   15 am   BACKBONE|DICT|INTERRES
    28   15   16 1    
    29   15   47 1    
    30   16   21 ar   
    31   16   17 ar   
    32   17   18 ar   
    33   17   48 1    
    34   18   19 ar   
    35   18   49 1    
    36   19   20 ar   
    37   19   22 1    
    38   20   21 ar   
    39   20   50 1    
    40   21   51 1    
    41   22   23 2    
    42   22   24 2    
    43   22   25 1    
    44   25   30 1    
    45   25   26 1    
    46   26   27 1    
    47   26   52 1    
    48   26   53 1    
    49   27   28 1    
    50   27   54 1    
    51   27   55 1    
    52   28   29 1    
    53   28   56 1    
    54   28   57 1    
    55   29   34 ar   
    56   29   30 ar   
    57   30   31 ar   
    58   31   32 ar   
    59   31   58 1    
    60   32   33 ar   
    61   32   59 1    
    62   33   34 ar   
    63   33   60 1    
    64   34   61 1    
@<TRIPOS>SUBSTRUCTURE
     1 UNK         1 GROUP             0       ****    0 ROOT    
