@<TRIPOS>MOLECULE
ZINC34923980_5644
59   62    1
SMALL
USER_CHARGES


@<TRIPOS>ATOM
      1 C1         -4.8383   52.6605   24.4910 C.3       1 UNK         0.0000 
      2 C2         -3.9702   51.4046   24.3210 C.3       1 UNK         0.0000 
      3 O3         -2.6590   51.6251   24.8300 O.3       1 UNK         0.0000 
      4 C4         -1.6903   52.2216   24.0947 C.2       1 UNK         0.0000 
      5 O5         -1.8443   52.5058   22.9021 O.2       1 UNK         0.0000 
      6 C6         -0.4164   52.4870   24.8137 C.2       1 UNK         0.0000 
      7 C7         -0.2264   52.3546   26.1705 C.2       1 UNK         0.0000 
      8 N8          0.9563   52.6459   26.7930 N.2       1 UNK         0.0000 
      9 C9          1.9041   53.1537   26.1123 C.2       1 UNK         0.0000 
     10 N10         1.9290   53.3688   24.7374 N.pl3     1 UNK         0.0000 
     11 C11         0.7832   52.8941   23.9003 C.3       1 UNK         0.0000 
     12 H12         0.4744   53.7705   23.3290 H         1 UNK         0.0000 
     13 C13         1.2020   51.8234   22.8727 C.ar      1 UNK         0.0000 
     14 C14         1.4103   52.1932   21.5368 C.ar      1 UNK         0.0000 
     15 C15         1.8161   51.2548   20.5889 C.ar      1 UNK         0.0000 
     16 C16         2.0018   49.9246   20.9582 C.ar      1 UNK         0.0000 
     17 C17         1.7710   49.5351   22.2767 C.ar      1 UNK         0.0000 
     18 C18         1.3658   50.4747   23.2276 C.ar      1 UNK         0.0000 
     19 F19         1.1044   50.0549   24.4847 F         1 UNK         0.0000 
     20 C20         3.0869   53.9723   24.2607 C.2       1 UNK         0.0000 
     21 C21         3.9951   54.1761   25.2302 C.2       1 UNK         0.0000 
     22 S22         3.4369   53.6966   26.8272 S.3       1 UNK         0.0000 
     23 C23         3.3271   54.3306   22.8767 C.2       1 UNK         0.0000 
     24 C24         4.4265   54.0474   22.1520 C.2       1 UNK         0.0000 
     25 O25         5.5031   53.4272   22.4821 O.co2     1 UNK         0.0000 
     26 N26         4.4677   54.4491   20.8356 N.pl3     1 UNK         0.0000 
     27 C27         5.6051   54.8288   20.0058 C.3       1 UNK         0.0000 
     28 C28         6.2616   56.1471   20.4505 C.3       1 UNK         0.0000 
     29 C29         7.2281   56.6927   19.4131 C.ar      1 UNK         0.0000 
     30 C30         8.4789   56.0934   19.2429 C.ar      1 UNK         0.0000 
     31 C31         9.3643   56.5982   18.2958 C.ar      1 UNK         0.0000 
     32 C32         9.0030   57.7048   17.5289 C.ar      1 UNK         0.0000 
     33 C33         7.7576   58.3086   17.6969 C.ar      1 UNK         0.0000 
     34 C34         6.8687   57.7998   18.6371 C.ar      1 UNK         0.0000 
     35 C35        -1.2693   51.9991   27.2319 C.3       1 UNK         0.0000 
     36 H36        -5.8364   52.5036   24.0819 H         1 UNK         0.0000 
     37 H37        -4.9468   52.9251   25.5419 H         1 UNK         0.0000 
     38 H38        -4.4017   53.5178   23.9790 H         1 UNK         0.0000 
     39 H39        -3.9384   51.0911   23.2773 H         1 UNK         0.0000 
     40 H40        -4.4155   50.5801   24.8783 H         1 UNK         0.0000 
     41 H41         1.2807   53.2229   21.2319 H         1 UNK         0.0000 
     42 H42         1.9977   51.5574   19.5667 H         1 UNK         0.0000 
     43 H43         2.3214   49.1974   20.2269 H         1 UNK         0.0000 
     44 H44         1.9074   48.5012   22.5622 H         1 UNK         0.0000 
     45 H45         4.9786   54.6054   25.1006 H         1 UNK         0.0000 
     46 H46         2.5374   54.8840   22.3907 H         1 UNK         0.0000 
     47 H47         3.6221   54.8927   20.5089 H         1 UNK         0.0000 
     48 H48         6.3359   54.0249   20.0501 H         1 UNK         0.0000 
     49 H49         5.2580   54.8922   18.9742 H         1 UNK         0.0000 
     50 H50         5.5045   56.8967   20.6600 H         1 UNK         0.0000 
     51 H51         6.7851   56.0016   21.3972 H         1 UNK         0.0000 
     52 H52         8.7650   55.2383   19.8408 H         1 UNK         0.0000 
     53 H53        10.3316   56.1352   18.1614 H         1 UNK         0.0000 
     54 H54         9.6941   58.0977   16.7962 H         1 UNK         0.0000 
     55 H55         7.4791   59.1668   17.1006 H         1 UNK         0.0000 
     56 H56         5.9046   58.2724   18.7594 H         1 UNK         0.0000 
     57 H57        -2.2203   52.4927   27.0410 H         1 UNK         0.0000 
     58 H58        -1.4256   50.9204   27.2483 H         1 UNK         0.0000 
     59 H59        -0.9747   52.3029   28.2393 H         1 UNK         0.0000 
@<TRIPOS>BOND
     1    1    2 1    
     2    1   36 1    
     3    1   37 1    
     4    1   38 1    
     5    2    3 1    
     6    2   39 1    
     7    2   40 1    
     8    3    4 1    
     9    4    5 2    
    10    4    6 1    
    11    6   11 1    
    12    6    7 2    
    13    7    8 1    
    14    7   35 1    
    15    8    9 2    
    16    9   22 1    
    17    9   10 1    
    18   10   11 1    
    19   10   20 1    
    20   11   12 1    
    21   11   13 1    
    22   13   18 ar   
    23   13   14 ar   
    24   14   15 ar   
    25   14   41 1    
    26   15   16 ar   
    27   15   42 1    
    28   16   17 ar   
    29   16   43 1    
    30   17   18 ar   
    31   17   44 1    
    32   18   19 1    
    33   20   21 2    
    34   20   23 1    
    35   21   22 1    
    36   21   45 1    
    37   23   24 2    
    38   23   46 1    
    39   24   25 1    
    40   24   26 1    
    41   26   27 1    
    42   26   47 1    
    43   27   28 1    
    44   27   48 1    
    45   27   49 1    
    46   28   29 1    
    47   28   50 1    
    48   28   51 1    
    49   29   34 ar   
    50   29   30 ar   
    51   30   31 ar   
    52   30   52 1    
    53   31   32 ar   
    54   31   53 1    
    55   32   33 ar   
    56   32   54 1    
    57   33   34 ar   
    58   33   55 1    
    59   34   56 1    
    60   35   57 1    
    61   35   58 1    
    62   35   59 1    
@<TRIPOS>SUBSTRUCTURE
     1 UNK         1 GROUP             0       ****    0 ROOT    
