@<TRIPOS>MOLECULE
ZINC21239910_5195
71   75    1
SMALL
USER_CHARGES


@<TRIPOS>ATOM
      1 C1          1.1075   54.1148   30.2681 C.3       1 UNK         0.0000 
      2 C2          2.5370   54.1805   29.6923 C.3       1 UNK         0.0000 
      3 C3          3.3754   52.9693   30.1491 C.3       1 UNK         0.0000 
      4 C4          2.5031   54.3026   28.1557 C.3       1 UNK         0.0000 
      5 O5          3.8252   54.4484   27.6350 O.3       1 UNK         0.0000 
      6 C6          4.0356   54.2833   26.2782 C.ar      1 UNK         0.0000 
      7 C7          5.3568   54.2954   25.8345 C.ar      1 UNK         0.0000 
      8 C8          5.6550   54.0968   24.4863 C.ar      1 UNK         0.0000 
      9 C9          4.6313   53.8942   23.5484 C.ar      1 UNK         0.0000 
     10 C10         3.3031   53.9085   23.9975 C.ar      1 UNK         0.0000 
     11 C11         3.0102   54.0967   25.3426 C.ar      1 UNK         0.0000 
     12 C12         4.9831   53.6308   22.0667 C.3       1 UNK         0.0000 
     13 H13         5.4993   52.6678   22.0632 H         1 UNK         0.0000 
     14 C14         5.9233   54.7250   21.5156 C.3       1 UNK         0.0000 
     15 C15         6.1551   54.6002   20.0103 C.2       1 UNK         0.0000 
     16 C16         5.2982   53.9607   19.1727 C.2       1 UNK         0.0000 
     17 C17         5.5051   53.8226   17.6556 C.3       1 UNK         0.0000 
     18 H18         5.0721   52.8625   17.3615 H         1 UNK         0.0000 
     19 N19         6.8867   53.6783   17.1986 N.pl3     1 UNK         0.0000 
     20 C20         7.7742   54.7632   17.2591 C.ar      1 UNK         0.0000 
     21 C21         8.4740   55.1481   16.1091 C.ar      1 UNK         0.0000 
     22 C22         9.3336   56.2421   16.1098 C.ar      1 UNK         0.0000 
     23 C23         9.5137   56.9711   17.2771 C.ar      1 UNK         0.0000 
     24 C24         8.8470   56.5885   18.4358 C.ar      1 UNK         0.0000 
     25 C25         7.9853   55.4847   18.4629 C.ar      1 UNK         0.0000 
     26 N26         7.4031   55.0964   19.6824 N.pl3     1 UNK         0.0000 
     27 C27         4.7620   54.9187   16.8687 C.ar      1 UNK         0.0000 
     28 C28         3.9340   54.5717   15.8019 C.ar      1 UNK         0.0000 
     29 C29         3.2292   55.5555   15.1094 C.ar      1 UNK         0.0000 
     30 C30         3.3347   56.9120   15.4630 C.ar      1 UNK         0.0000 
     31 C31         4.1731   57.2457   16.5377 C.ar      1 UNK         0.0000 
     32 C32         4.8703   56.2650   17.2330 C.ar      1 UNK         0.0000 
     33 N33         2.6214   57.9178   14.7515 N.pl3     1 UNK         0.0000 
     34 C34         2.6743   59.3109   15.2026 C.3       1 UNK         0.0000 
     35 C35         1.5114   57.5481   13.8730 C.3       1 UNK         0.0000 
     36 C36         4.0256   53.3802   19.6641 C.2       1 UNK         0.0000 
     37 O37         3.1648   52.9212   18.9129 O.2       1 UNK         0.0000 
     38 C38         3.7309   53.4825   21.1651 C.3       1 UNK         0.0000 
     39 H39         0.5604   53.2572   29.8753 H         1 UNK         0.0000 
     40 H40         0.5394   55.0114   30.0187 H         1 UNK         0.0000 
     41 H41         1.1045   54.0278   31.3537 H         1 UNK         0.0000 
     42 H42         3.0089   55.0845   30.0803 H         1 UNK         0.0000 
     43 H43         2.9545   52.0355   29.7745 H         1 UNK         0.0000 
     44 H44         4.3996   53.0374   29.7796 H         1 UNK         0.0000 
     45 H45         3.4263   52.8964   31.2351 H         1 UNK         0.0000 
     46 H46         2.0213   53.4097   27.7517 H         1 UNK         0.0000 
     47 H47         1.9080   55.1679   27.8587 H         1 UNK         0.0000 
     48 H48         6.1541   54.4309   26.5495 H         1 UNK         0.0000 
     49 H49         6.6915   54.0765   24.1853 H         1 UNK         0.0000 
     50 H50         2.4731   53.7601   23.3249 H         1 UNK         0.0000 
     51 H51         1.9719   54.0934   25.6355 H         1 UNK         0.0000 
     52 H52         5.5047   55.7059   21.6818 H         1 UNK         0.0000 
     53 H53         6.8602   54.6329   22.0672 H         1 UNK         0.0000 
     54 H54         6.9170   53.2215   16.2997 H         1 UNK         0.0000 
     55 H55         8.3331   54.6007   15.1882 H         1 UNK         0.0000 
     56 H56         9.8538   56.5262   15.2065 H         1 UNK         0.0000 
     57 H57        10.1800   57.8220   17.2890 H         1 UNK         0.0000 
     58 H58         9.0313   57.1515   19.3377 H         1 UNK         0.0000 
     59 H59         7.9230   55.4470   20.4723 H         1 UNK         0.0000 
     60 H60         3.8239   53.5359   15.5135 H         1 UNK         0.0000 
     61 H61         2.6003   55.2366   14.2949 H         1 UNK         0.0000 
     62 H62         4.2981   58.2674   16.8614 H         1 UNK         0.0000 
     63 H63         5.4911   56.5635   18.0631 H         1 UNK         0.0000 
     64 H64         3.7034   59.6652   15.2825 H         1 UNK         0.0000 
     65 H65         2.1497   59.9854   14.5249 H         1 UNK         0.0000 
     66 H66         2.2218   59.4090   16.1900 H         1 UNK         0.0000 
     67 H67         0.7246   57.0602   14.4504 H         1 UNK         0.0000 
     68 H68         1.0720   58.4162   13.3796 H         1 UNK         0.0000 
     69 H69         1.8329   56.8533   13.0967 H         1 UNK         0.0000 
     70 H70         3.1254   52.6184   21.4411 H         1 UNK         0.0000 
     71 H71         3.1085   54.3698   21.2825 H         1 UNK         0.0000 
@<TRIPOS>BOND
     1    1    2 1    
     2    1   39 1    
     3    1   40 1    
     4    1   41 1    
     5    2    3 1    
     6    2    4 1    
     7    2   42 1    
     8    3   43 1    
     9    3   44 1    
    10    3   45 1    
    11    4    5 1    
    12    4   46 1    
    13    4   47 1    
    14    5    6 1    
    15    6   11 ar   
    16    6    7 ar   
    17    7    8 ar   
    18    7   48 1    
    19    8    9 ar   
    20    8   49 1    
    21    9   10 ar   
    22    9   12 1    
    23   10   11 ar   
    24   10   50 1    
    25   11   51 1    
    26   12   13 1    
    27   12   38 1    
    28   12   14 1    
    29   14   15 1    
    30   14   52 1    
    31   14   53 1    
    32   15   26 1    
    33   15   16 2    
    34   16   17 1    
    35   16   36 1    
    36   17   18 1    
    37   17   19 1    
    38   17   27 1    
    39   19   20 1    
    40   19   54 1    
    41   20   25 ar   
    42   20   21 ar   
    43   21   22 ar   
    44   21   55 1    
    45   22   23 ar   
    46   22   56 1    
    47   23   24 ar   
    48   23   57 1    
    49   24   25 ar   
    50   24   58 1    
    51   25   26 1    
    52   26   59 1    
    53   27   32 ar   
    54   27   28 ar   
    55   28   29 ar   
    56   28   60 1    
    57   29   30 ar   
    58   29   61 1    
    59   30   31 ar   
    60   30   33 1    
    61   31   32 ar   
    62   31   62 1    
    63   32   63 1    
    64   33   34 1    
    65   33   35 1    
    66   34   64 1    
    67   34   65 1    
    68   34   66 1    
    69   35   67 1    
    70   35   68 1    
    71   35   69 1    
    72   36   37 2    
    73   36   38 1    
    74   38   70 1    
    75   38   71 1    
@<TRIPOS>SUBSTRUCTURE
     1 UNK         1 GROUP             0       ****    0 ROOT    
