@<TRIPOS>MOLECULE
ZINC39675251_390
77   80    1
SMALL
USER_CHARGES


@<TRIPOS>ATOM
      1 C1         -0.6980   52.3511   29.2271 C.3       1 UNK         0.0000 
      2 C2          0.2150   51.3698   28.4763 C.3       1 UNK         0.0000 
      3 H3          0.3002   50.5054   29.1324 H         1 UNK         0.0000 
      4 C4          1.6694   51.8729   28.2744 C.3       1 UNK         0.0000 
      5 C5          1.8235   53.3888   28.0195 C.3       1 UNK         0.0000 
      6 C6          3.1773   53.7992   27.4640 C.ar      1 UNK         0.0000 
      7 C7          4.2635   54.0243   28.3152 C.ar      1 UNK         0.0000 
      8 C8          5.4726   54.4738   27.7911 C.ar      1 UNK         0.0000 
      9 C9          5.6103   54.7059   26.4230 C.ar      1 UNK         0.0000 
     10 C10         4.5240   54.4489   25.5719 C.ar      1 UNK         0.0000 
     11 C11         3.3159   53.9971   26.0916 C.ar      1 UNK         0.0000 
     12 O12         6.8219   55.2103   25.9965 O.3       1 UNK         0.0000 
     13 C13         6.9673   55.5689   24.6268 C.3       1 UNK         0.0000 
     14 N14        -0.4221   50.7989   27.2843 N.am      1 UNK         0.0000 
     15 C15        -0.6268   51.3286   26.0643 C.2       1 UNK         0.0000 
     16 O16        -0.3549   52.4964   25.8003 O.2       1 UNK         0.0000 
     17 C17        -1.2688   50.4630   24.9361 C.3       1 UNK         0.0000 
     18 H18        -2.2237   50.9260   24.6843 H         1 UNK         0.0000 
     19 C19        -1.6126   49.0475   25.4579 C.3       1 UNK         0.0000 
     20 N20        -1.6148   48.2153   24.2513 N.am      1 UNK         0.0000 
     21 C21        -0.9558   48.8909   23.1310 C.3       1 UNK         0.0000 
     22 C22        -0.3692   50.2132   23.6850 C.3       1 UNK         0.0000 
     23 C23        -0.4080   51.3902   22.6756 C.3       1 UNK         0.0000 
     24 C24         0.3383   51.0474   21.3652 C.3       1 UNK         0.0000 
     25 N25         1.8168   50.7404   21.7047 N.4       1 UNK         0.0000 
     26 C26         2.0186   49.6903   22.8201 C.3       1 UNK         0.0000 
     27 C27         1.1423   50.0572   24.0390 C.3       1 UNK         0.0000 
     28 C28        -2.3547   47.0884   24.0572 C.2       1 UNK         0.0000 
     29 O29        -2.3442   46.4823   22.9824 O.2       1 UNK         0.0000 
     30 C30        -3.2709   46.5889   25.1598 C.ar      1 UNK         0.0000 
     31 C31        -2.8172   46.4962   26.4811 C.ar      1 UNK         0.0000 
     32 C32        -3.6706   46.0939   27.5039 C.ar      1 UNK         0.0000 
     33 C33        -4.9770   45.6977   27.2346 C.ar      1 UNK         0.0000 
     34 C34        -5.4206   45.7271   25.9056 C.ar      1 UNK         0.0000 
     35 C35        -4.5923   46.1851   24.8778 C.ar      1 UNK         0.0000 
     36 O36        -5.1270   46.2116   23.6112 O.3       1 UNK         0.0000 
     37 C37        -5.5973   47.4880   23.1980 C.3       1 UNK         0.0000 
     38 O38        -5.7445   45.2968   28.3117 O.3       1 UNK         0.0000 
     39 C39        -7.0892   44.8807   28.0842 C.3       1 UNK         0.0000 
     40 H40        -0.2229   52.7024   30.1463 H         1 UNK         0.0000 
     41 H41        -0.8898   53.2308   28.6172 H         1 UNK         0.0000 
     42 H42        -1.6381   51.8790   29.5110 H         1 UNK         0.0000 
     43 H43         2.1218   51.3041   27.4642 H         1 UNK         0.0000 
     44 H44         2.2595   51.6189   29.1550 H         1 UNK         0.0000 
     45 H45         1.6360   53.9513   28.9376 H         1 UNK         0.0000 
     46 H46         1.0606   53.7362   27.3252 H         1 UNK         0.0000 
     47 H47         4.1646   53.8735   29.3794 H         1 UNK         0.0000 
     48 H48         6.3035   54.6688   28.4526 H         1 UNK         0.0000 
     49 H49         4.5929   54.6069   24.5050 H         1 UNK         0.0000 
     50 H50         2.4813   53.8163   25.4314 H         1 UNK         0.0000 
     51 H51         7.9040   56.0959   24.4828 H         1 UNK         0.0000 
     52 H52         6.1818   56.2545   24.3089 H         1 UNK         0.0000 
     53 H53         6.9737   54.6947   23.9768 H         1 UNK         0.0000 
     54 H54        -0.8133   49.8744   27.4568 H         1 UNK         0.0000 
     55 H55        -0.7808   48.6708   26.0569 H         1 UNK         0.0000 
     56 H56        -2.5564   49.0755   26.0032 H         1 UNK         0.0000 
     57 H57        -1.7691   49.1746   22.4610 H         1 UNK         0.0000 
     58 H58        -0.2884   48.2808   22.5278 H         1 UNK         0.0000 
     59 H59        -1.4465   51.5964   22.4117 H         1 UNK         0.0000 
     60 H60        -0.0401   52.3171   23.1187 H         1 UNK         0.0000 
     61 H61        -0.0576   50.1675   20.8562 H         1 UNK         0.0000 
     62 H62         0.3558   51.8841   20.6632 H         1 UNK         0.0000 
     63 H63         2.3034   50.4475   20.8665 H         1 UNK         0.0000 
     64 H64         1.7824   48.7203   22.3872 H         1 UNK         0.0000 
     65 H65         3.0815   49.6950   23.0680 H         1 UNK         0.0000 
     66 H66         1.5155   50.9690   24.5074 H         1 UNK         0.0000 
     67 H67         1.2641   49.2737   24.7889 H         1 UNK         0.0000 
     68 H68        -1.8035   46.7572   26.7504 H         1 UNK         0.0000 
     69 H69        -3.2952   46.0593   28.5171 H         1 UNK         0.0000 
     70 H70        -6.4220   45.4224   25.6470 H         1 UNK         0.0000 
     71 H71        -6.0258   47.4072   22.2001 H         1 UNK         0.0000 
     72 H72        -6.3790   47.8569   23.8631 H         1 UNK         0.0000 
     73 H73        -4.8018   48.2309   23.1550 H         1 UNK         0.0000 
     74 H74        -7.5482   44.5976   29.0321 H         1 UNK         0.0000 
     75 H75        -7.6902   45.6854   27.6572 H         1 UNK         0.0000 
     76 H76        -7.1371   44.0114   27.4254 H         1 UNK         0.0000 
     77 H77         2.2583   51.6017   21.9926 H         1 UNK         0.0000 
@<TRIPOS>BOND
     1    1    2 1    
     2    1   40 1    
     3    1   41 1    
     4    1   42 1    
     5    2    3 1    
     6    2    4 1    
     7    2   14 1    
     8    4    5 1    
     9    4   43 1    
    10    4   44 1    
    11    5    6 1    
    12    5   45 1    
    13    5   46 1    
    14    6   11 ar   
    15    6    7 ar   
    16    7    8 ar   
    17    7   47 1    
    18    8    9 ar   
    19    8   48 1    
    20    9   10 ar   
    21    9   12 1    
    22   10   11 ar   
    23   10   49 1    
    24   11   50 1    
    25   12   13 1    
    26   13   51 1    
    27   13   52 1    
    28   13   53 1    
    29   14   15 am   BACKBONE|DICT|INTERRES
    30   14   54 1    
    31   15   16 2    
    32   15   17 1    
    33   17   18 1    
    34   17   22 1    
    35   17   19 1    
    36   19   20 1    
    37   19   55 1    
    38   19   56 1    
    39   20   21 1    
    40   20   28 am   BACKBONE|DICT|INTERRES
    41   21   22 1    
    42   21   57 1    
    43   21   58 1    
    44   22   27 1    
    45   22   23 1    
    46   23   24 1    
    47   23   59 1    
    48   23   60 1    
    49   24   25 1    
    50   24   61 1    
    51   24   62 1    
    52   25   26 1    
    53   25   63 1    
    54   25   77 1    
    55   26   27 1    
    56   26   64 1    
    57   26   65 1    
    58   27   66 1    
    59   27   67 1    
    60   28   29 2    
    61   28   30 1    
    62   30   35 ar   
    63   30   31 ar   
    64   31   32 ar   
    65   31   68 1    
    66   32   33 ar   
    67   32   69 1    
    68   33   34 ar   
    69   33   38 1    
    70   34   35 ar   
    71   34   70 1    
    72   35   36 1    
    73   36   37 1    
    74   37   71 1    
    75   37   72 1    
    76   37   73 1    
    77   38   39 1    
    78   39   74 1    
    79   39   75 1    
    80   39   76 1    
@<TRIPOS>SUBSTRUCTURE
     1 UNK         1 GROUP             0       ****    0 ROOT    
