@<TRIPOS>MOLECULE
ZINC37419867_1736
32   33    1
SMALL
USER_CHARGES


@<TRIPOS>ATOM
      1 C1          6.4805   54.3368   23.8819 C.ar      1 UNK         0.0000 
      2 C2          5.4448   54.1368   24.7915 C.ar      1 UNK         0.0000 
      3 C3          4.1067   54.0974   24.3664 C.ar      1 UNK         0.0000 
      4 C4          3.8328   54.1938   22.9831 C.ar      1 UNK         0.0000 
      5 C5          4.8862   54.3837   22.0747 C.ar      1 UNK         0.0000 
      6 C6          6.1997   54.4786   22.5278 C.ar      1 UNK         0.0000 
      7 F7          4.6457   54.4912   20.7460 F         1 UNK         0.0000 
      8 N8          2.5249   54.0945   22.4818 N.pl3     1 UNK         0.0000 
      9 N9          3.0271   53.9947   25.2737 N.pl3     1 UNK         0.0000 
     10 C10         3.1533   53.4547   26.6243 C.3       1 UNK         0.0000 
     11 C11         3.7187   54.4953   27.6165 C.3       1 UNK         0.0000 
     12 C12         4.1822   53.7736   28.8975 C.3       1 UNK         0.0000 
     13 S13         2.6589   53.0281   29.7331 S.o2      1 UNK         0.0000 
     14 O14         1.7504   54.1222   30.0878 O.2       1 UNK         0.0000 
     15 O15         3.1054   52.0994   30.7759 O.2       1 UNK         0.0000 
     16 C16         1.9062   52.0376   28.3121 C.3       1 UNK         0.0000 
     17 C17         1.7660   52.9534   27.0800 C.3       1 UNK         0.0000 
     18 H18         7.5035   54.3823   24.2254 H         1 UNK         0.0000 
     19 H19         5.7130   54.0092   25.8263 H         1 UNK         0.0000 
     20 H20         7.0021   54.6435   21.8240 H         1 UNK         0.0000 
     21 H21         1.9048   53.4184   22.8990 H         1 UNK         0.0000 
     22 H22         2.3868   54.3283   21.5017 H         1 UNK         0.0000 
     23 H23         2.1956   53.6805   24.7981 H         1 UNK         0.0000 
     24 H24         3.8384   52.6132   26.5238 H         1 UNK         0.0000 
     25 H25         4.5526   55.0586   27.2031 H         1 UNK         0.0000 
     26 H26         2.9650   55.2497   27.8524 H         1 UNK         0.0000 
     27 H27         4.8689   52.9610   28.6595 H         1 UNK         0.0000 
     28 H28         4.6625   54.4533   29.6022 H         1 UNK         0.0000 
     29 H29         2.5749   51.2104   28.0925 H         1 UNK         0.0000 
     30 H30         0.9461   51.6409   28.6422 H         1 UNK         0.0000 
     31 H31         1.1042   53.7923   27.3014 H         1 UNK         0.0000 
     32 H32         1.2819   52.3851   26.2831 H         1 UNK         0.0000 
@<TRIPOS>BOND
     1    1    6 ar   
     2    1    2 ar   
     3    1   18 1    
     4    2    3 ar   
     5    2   19 1    
     6    3    4 ar   
     7    3    9 1    
     8    4    5 ar   
     9    4    8 1    
    10    5    6 ar   
    11    5    7 1    
    12    6   20 1    
    13    8   21 1    
    14    8   22 1    
    15    9   10 1    
    16    9   23 1    
    17   10   17 1    
    18   10   11 1    
    19   10   24 1    
    20   11   12 1    
    21   11   25 1    
    22   11   26 1    
    23   12   13 1    
    24   12   27 1    
    25   12   28 1    
    26   13   14 2    
    27   13   15 2    
    28   13   16 1    
    29   16   17 1    
    30   16   29 1    
    31   16   30 1    
    32   17   31 1    
    33   17   32 1    
@<TRIPOS>SUBSTRUCTURE
     1 UNK         1 GROUP             0       ****    0 ROOT    
