ZINC35023524_4284
                    3D
 Schrodinger Suite 2024-2.
 53 55  0  0  1  0            999 V2000
   -6.5236   53.4263   25.5584 C   0  0  0  0  0  0
   -5.2477   52.6090   25.6362 C   0  0  0  0  0  0
   -5.2605   51.2726   25.2425 C   0  0  0  0  0  0
   -4.0884   50.5239   25.2873 C   0  0  0  0  0  0
   -2.8811   51.0986   25.7177 C   0  0  0  0  0  0
   -2.8917   52.4402   26.1266 C   0  0  0  0  0  0
   -4.0626   53.1924   26.0805 C   0  0  0  0  0  0
   -1.5574   50.2809   25.7077 C   0  0  1  0  0  0
   -0.6651   50.5685   24.4512 C   0  0  2  0  0  0
    0.0750   49.7685   24.4308 H   0  0  0  0  0  0
    0.1476   51.9030   24.5687 C   0  0  1  0  0  0
   -0.5680   52.7189   24.4405 H   0  0  0  0  0  0
    0.7040   52.0256   25.9242 N   0  0  0  0  0  0
    0.2597   51.4297   27.0473 C   0  0  0  0  0  0
    0.6408   51.7863   28.1565 O   0  0  0  0  0  0
   -0.6979   50.4967   26.8799 N   0  0  0  0  0  0
    1.2023   52.1511   23.4816 C   0  0  0  0  0  0
    1.7589   53.4296   23.3640 C   0  0  0  0  0  0
    2.7044   53.6967   22.3785 C   0  0  0  0  0  0
    3.0948   52.6883   21.4927 C   0  0  0  0  0  0
    2.5666   51.4036   21.6290 C   0  0  0  0  0  0
    1.6407   51.1330   22.6250 C   0  0  0  0  0  0
    4.0923   52.9808   20.3754 C   0  0  0  0  0  0
    5.3418   52.0971   20.5036 C   0  0  0  0  0  0
    3.4516   52.8407   18.9809 C   0  0  0  0  0  0
   -1.4768   50.4933   23.1201 C   0  0  0  0  0  0
   -2.0621   51.4885   22.6817 O   0  0  0  0  0  0
   -1.5213   49.1667   22.3387 C   0  0  0  0  0  0
   -2.7928   48.8163   22.1374 F   0  0  0  0  0  0
   -0.9310   49.3400   21.1554 F   0  0  0  0  0  0
   -0.8959   48.1881   22.9948 F   0  0  0  0  0  0
   -1.8223   48.8870   25.6817 O   0  0  0  0  0  0
   -6.3251   54.4970   25.6114 H   0  0  0  0  0  0
   -7.2058   53.1464   26.3623 H   0  0  0  0  0  0
   -7.0302   53.2418   24.6090 H   0  0  0  0  0  0
   -6.1745   50.8140   24.8941 H   0  0  0  0  0  0
   -4.1240   49.4955   24.9594 H   0  0  0  0  0  0
   -1.9886   52.9207   26.4677 H   0  0  0  0  0  0
   -4.0417   54.2274   26.3890 H   0  0  0  0  0  0
    1.4206   52.7204   26.0677 H   0  0  0  0  0  0
   -0.9594   49.9768   27.7122 H   0  0  0  0  0  0
    1.4462   54.2258   24.0242 H   0  0  0  0  0  0
    3.1072   54.6947   22.2835 H   0  0  0  0  0  0
    2.8679   50.6117   20.9585 H   0  0  0  0  0  0
    1.2748   50.1219   22.7031 H   0  0  0  0  0  0
    4.4202   54.0175   20.4730 H   0  0  0  0  0  0
    5.8500   52.2799   21.4512 H   0  0  0  0  0  0
    5.0978   51.0354   20.4789 H   0  0  0  0  0  0
    6.0340   52.2892   19.6818 H   0  0  0  0  0  0
    2.5658   53.4685   18.8820 H   0  0  0  0  0  0
    4.1496   53.1359   18.1969 H   0  0  0  0  0  0
    3.1555   51.8113   18.7739 H   0  0  0  0  0  0
   -1.8208   48.5743   26.6033 H   0  0  0  0  0  0
  1  2  1  0  0  0
  1 33  1  0  0  0
  1 34  1  0  0  0
  1 35  1  0  0  0
  2  7  2  0  0  0
  2  3  1  0  0  0
  3  4  2  0  0  0
  3 36  1  0  0  0
  4  5  1  0  0  0
  4 37  1  0  0  0
  5  6  2  0  0  0
  5  8  1  0  0  0
  6  7  1  0  0  0
  6 38  1  0  0  0
  7 39  1  0  0  0
  8 16  1  0  0  0
  8  9  1  0  0  0
  8 32  1  0  0  0
  9 10  1  0  0  0
  9 11  1  0  0  0
  9 26  1  0  0  0
 11 12  1  0  0  0
 11 13  1  0  0  0
 11 17  1  0  0  0
 13 14  1  0  0  0
 13 40  1  0  0  0
 14 15  2  0  0  0
 14 16  1  0  0  0
 16 41  1  0  0  0
 17 22  2  0  0  0
 17 18  1  0  0  0
 18 19  2  0  0  0
 18 42  1  0  0  0
 19 20  1  0  0  0
 19 43  1  0  0  0
 20 21  2  0  0  0
 20 23  1  0  0  0
 21 22  1  0  0  0
 21 44  1  0  0  0
 22 45  1  0  0  0
 23 24  1  0  0  0
 23 25  1  0  0  0
 23 46  1  0  0  0
 24 47  1  0  0  0
 24 48  1  0  0  0
 24 49  1  0  0  0
 25 50  1  0  0  0
 25 51  1  0  0  0
 25 52  1  0  0  0
 26 27  2  0  0  0
 26 28  1  0  0  0
 28 29  1  0  0  0
 28 30  1  0  0  0
 28 31  1  0  0  0
 32 53  1  0  0  0
M  END
> <i_i_glide_confnum>
13

> <i_i_glide_lignum>
4285

> <i_i_glide_posenum>
327

> <i_i_glide_rotatable_bonds>
6

> <i_m_Source_File_Index>
749

> <b_m_subgroup_collapsed>
0

> <r_i_docking_score>
-3.95297

> <r_i_glide_ecoul>
-7.02802

> <r_i_glide_eff_state_penalty>
0

> <r_i_glide_einternal>
5.05668

> <r_i_glide_emodel>
-41.9048

> <r_i_glide_energy>
-34.707

> <r_i_glide_erotb>
0.335924

> <r_i_glide_esite>
-0.188166

> <r_i_glide_evdw>
-27.6789

> <r_i_glide_gscore>
-3.95297

> <r_i_glide_hbond>
-0.295425

> <r_i_glide_ligand_efficiency>
-0.131766

> <r_i_glide_ligand_efficiency_ln>
-0.898159

> <r_i_glide_ligand_efficiency_sa>
-0.409427

> <r_i_glide_lipo>
-0.823732

> <r_i_glide_metal>
0

> <r_i_glide_rewards>
-0.543425

> <s_i_glide_gridfile>
wee1_glide-grid

> <s_m_Source_File>
wee1_decoys_glide_SP.sdf

> <s_m_Source_Path>
/Users/zhangxujun/Desktop

> <s_m_entry_id>
1024

> <s_m_entry_name>
wee1_decoys_glide_SP.749

> <s_m_subgroup_title>
wee1_decoys_glide_SP

> <s_m_subgroupid>
wee1_decoys_glide_SP


$$$$
