@<TRIPOS>MOLECULE
ZINC33113448_4187
57   60    1
SMALL
USER_CHARGES


@<TRIPOS>ATOM
      1 C1         -2.4609   51.3264   18.3166 C.3       1 UNK         0.0000 
      2 C2         -1.5873   52.5084   17.9392 C.ar      1 UNK         0.0000 
      3 C3         -2.1630   53.7043   17.5104 C.ar      1 UNK         0.0000 
      4 C4         -1.3583   54.7966   17.1916 C.ar      1 UNK         0.0000 
      5 C5          0.0428   54.7134   17.2815 C.ar      1 UNK         0.0000 
      6 C6          0.6189   53.4868   17.6816 C.ar      1 UNK         0.0000 
      7 C7         -0.1981   52.4065   18.0282 C.ar      1 UNK         0.0000 
      8 N8          2.0062   53.2965   17.8217 N.am      1 UNK         0.0000 
      9 C9          2.9462   53.5436   16.8834 C.2       1 UNK         0.0000 
     10 O10         2.6594   53.9414   15.7499 O.2       1 UNK         0.0000 
     11 N11         4.2142   53.1905   17.2393 N.am      1 UNK         0.0000 
     12 C12         5.3035   53.3196   16.2540 C.3       1 UNK         0.0000 
     13 C13         5.9076   54.7327   16.4169 C.3       1 UNK         0.0000 
     14 C14         6.3897   54.9958   17.8602 C.3       1 UNK         0.0000 
     15 C15         5.3023   54.6472   18.9180 C.3       1 UNK         0.0000 
     16 H16         4.4669   55.3319   18.7565 H         1 UNK         0.0000 
     17 C17         4.7262   53.2291   18.6312 C.3       1 UNK         0.0000 
     18 C18         5.7902   54.8246   20.3585 C.2       1 UNK         0.0000 
     19 N19         6.8286   55.5607   20.6818 N.2       1 UNK         0.0000 
     20 N20         7.1043   55.5851   22.0399 N.2       1 UNK         0.0000 
     21 C21         6.2614   54.8965   22.7717 C.2       1 UNK         0.0000 
     22 S22         5.0569   54.0970   21.7688 S.3       1 UNK         0.0000 
     23 C23         6.2226   54.8234   24.2188 C.2       1 UNK         0.0000 
     24 O24         7.1044   55.3609   24.8900 O.2       1 UNK         0.0000 
     25 N25         5.1379   54.2194   24.7515 N.am      1 UNK         0.0000 
     26 C26         4.7870   54.1499   26.1107 C.ar      1 UNK         0.0000 
     27 C27         5.7245   54.1278   27.1569 C.ar      1 UNK         0.0000 
     28 C28         5.2962   54.0965   28.4819 C.ar      1 UNK         0.0000 
     29 C29         3.9339   54.0672   28.7761 C.ar      1 UNK         0.0000 
     30 C30         2.9972   54.0656   27.7427 C.ar      1 UNK         0.0000 
     31 C31         3.4235   54.0968   26.4143 C.ar      1 UNK         0.0000 
     32 Cl32        1.3103   54.0414   28.1067 Cl        1 UNK         0.0000 
     33 O33         0.8787   55.7890   17.0287 O.3       1 UNK         0.0000 
     34 C34         0.3297   57.0481   16.6572 C.3       1 UNK         0.0000 
     35 H35        -2.1265   50.8966   19.2615 H         1 UNK         0.0000 
     36 H36        -3.5056   51.6130   18.4424 H         1 UNK         0.0000 
     37 H37        -2.3936   50.5474   17.5566 H         1 UNK         0.0000 
     38 H38        -3.2362   53.7938   17.4253 H         1 UNK         0.0000 
     39 H39        -1.8424   55.7081   16.8777 H         1 UNK         0.0000 
     40 H40         0.2477   51.4774   18.3559 H         1 UNK         0.0000 
     41 H41         2.3087   52.8344   18.6641 H         1 UNK         0.0000 
     42 H42         4.9815   53.0672   15.2421 H         1 UNK         0.0000 
     43 H43         6.0437   52.5538   16.4929 H         1 UNK         0.0000 
     44 H44         5.1723   55.4835   16.1210 H         1 UNK         0.0000 
     45 H45         6.7413   54.8516   15.7242 H         1 UNK         0.0000 
     46 H46         6.6856   56.0435   17.9338 H         1 UNK         0.0000 
     47 H47         7.2645   54.3609   18.0144 H         1 UNK         0.0000 
     48 H48         5.5335   52.4968   18.6557 H         1 UNK         0.0000 
     49 H49         4.0002   52.8536   19.3521 H         1 UNK         0.0000 
     50 H50         4.4498   53.8686   24.1040 H         1 UNK         0.0000 
     51 H51         6.7861   54.1350   26.9632 H         1 UNK         0.0000 
     52 H52         6.0246   54.1045   29.2797 H         1 UNK         0.0000 
     53 H53         3.6063   54.0452   29.8038 H         1 UNK         0.0000 
     54 H54         2.6857   54.1010   25.6250 H         1 UNK         0.0000 
     55 H55         1.1399   57.7593   16.4950 H         1 UNK         0.0000 
     56 H56        -0.2369   56.9799   15.7276 H         1 UNK         0.0000 
     57 H57        -0.3110   57.4519   17.4426 H         1 UNK         0.0000 
@<TRIPOS>BOND
     1    1    2 1    
     2    1   35 1    
     3    1   36 1    
     4    1   37 1    
     5    2    7 ar   
     6    2    3 ar   
     7    3    4 ar   
     8    3   38 1    
     9    4    5 ar   
    10    4   39 1    
    11    5    6 ar   
    12    5   33 1    
    13    6    7 ar   
    14    6    8 1    
    15    7   40 1    
    16    8    9 am   BACKBONE|DICT|INTERRES
    17    8   41 1    
    18    9   10 2    
    19    9   11 am   BACKBONE|DICT|INTERRES
    20   11   17 1    
    21   11   12 1    
    22   12   13 1    
    23   12   42 1    
    24   12   43 1    
    25   13   14 1    
    26   13   44 1    
    27   13   45 1    
    28   14   15 1    
    29   14   46 1    
    30   14   47 1    
    31   15   16 1    
    32   15   17 1    
    33   15   18 1    
    34   17   48 1    
    35   17   49 1    
    36   18   22 1    
    37   18   19 2    
    38   19   20 1    
    39   20   21 2    
    40   21   22 1    
    41   21   23 1    
    42   23   24 2    
    43   23   25 am   BACKBONE|DICT|INTERRES
    44   25   26 1    
    45   25   50 1    
    46   26   31 ar   
    47   26   27 ar   
    48   27   28 ar   
    49   27   51 1    
    50   28   29 ar   
    51   28   52 1    
    52   29   30 ar   
    53   29   53 1    
    54   30   31 ar   
    55   30   32 1    
    56   31   54 1    
    57   33   34 1    
    58   34   55 1    
    59   34   56 1    
    60   34   57 1    
@<TRIPOS>SUBSTRUCTURE
     1 UNK         1 GROUP             0       ****    0 ROOT    
