@<TRIPOS>MOLECULE
ZINC36053552_5961
63   66    1
SMALL
USER_CHARGES


@<TRIPOS>ATOM
      1 C1          3.8289   53.7044   17.1007 C.3       1 UNK         0.0000 
      2 C2          4.1127   53.7532   18.6019 C.2       1 UNK         0.0000 
      3 C3          3.6681   52.8844   19.5610 C.2       1 UNK         0.0000 
      4 C4          4.1808   52.9929   21.0422 C.3       1 UNK         0.0000 
      5 H5          4.7925   52.1079   21.2306 H         1 UNK         0.0000 
      6 N6          5.1380   54.1526   21.1689 N.pl3     1 UNK         0.0000 
      7 C7          5.8939   54.4960   22.2916 C.2       1 UNK         0.0000 
      8 C8          6.7848   55.4705   22.0278 C.2       1 UNK         0.0000 
      9 S9          6.7117   56.0888   20.3945 S.3       1 UNK         0.0000 
     10 C10         5.4661   54.8892   20.0258 C.2       1 UNK         0.0000 
     11 N11         5.0050   54.7508   18.8494 N.2       1 UNK         0.0000 
     12 C12         5.7426   53.9370   23.6272 C.2       1 UNK         0.0000 
     13 C13         5.9400   54.5812   24.7954 C.2       1 UNK         0.0000 
     14 O14         6.3109   55.7879   25.0356 O.co2     1 UNK         0.0000 
     15 N15         5.7168   53.9554   25.9920 N.pl3     1 UNK         0.0000 
     16 C16         6.7056   53.7529   27.0440 C.3       1 UNK         0.0000 
     17 C17         6.1093   53.5823   28.4585 C.3       1 UNK         0.0000 
     18 H18         6.9398   53.3389   29.1192 H         1 UNK         0.0000 
     19 C19         5.4158   54.8210   28.9956 C.3       1 UNK         0.0000 
     20 C20         3.9511   54.6383   28.6524 C.3       1 UNK         0.0000 
     21 C21         3.8044   53.1393   28.3769 C.3       1 UNK         0.0000 
     22 O22         5.1029   52.5787   28.5800 O.3       1 UNK         0.0000 
     23 C23         3.0543   52.9402   22.1047 C.ar      1 UNK         0.0000 
     24 C24         2.5644   54.0902   22.7308 C.ar      1 UNK         0.0000 
     25 C25         1.4932   54.0046   23.6199 C.ar      1 UNK         0.0000 
     26 C26         0.8887   52.7735   23.8859 C.ar      1 UNK         0.0000 
     27 C27         1.4165   51.6158   23.3173 C.ar      1 UNK         0.0000 
     28 C28         2.4915   51.7039   22.4459 C.ar      1 UNK         0.0000 
     29 C29        -0.3472   52.7132   24.7830 C.3       1 UNK         0.0000 
     30 C30        -1.4214   51.7160   24.3008 C.3       1 UNK         0.0000 
     31 C31         0.0376   52.4535   26.2510 C.3       1 UNK         0.0000 
     32 C32         2.6980   51.8195   19.2362 C.2       1 UNK         0.0000 
     33 O33         2.7856   50.6735   19.6826 O.2       1 UNK         0.0000 
     34 O34         1.6650   52.2467   18.4679 O.3       1 UNK         0.0000 
     35 C35         0.6445   51.3454   18.0645 C.3       1 UNK         0.0000 
     36 H36         3.4347   52.7445   16.7718 H         1 UNK         0.0000 
     37 H37         3.1215   54.4868   16.8283 H         1 UNK         0.0000 
     38 H38         4.7419   53.8588   16.5217 H         1 UNK         0.0000 
     39 H39         7.4803   55.9016   22.7349 H         1 UNK         0.0000 
     40 H40         5.4431   52.9023   23.6711 H         1 UNK         0.0000 
     41 H41         5.1052   53.1553   25.9415 H         1 UNK         0.0000 
     42 H42         7.3902   54.6003   27.0736 H         1 UNK         0.0000 
     43 H43         7.3156   52.8958   26.7826 H         1 UNK         0.0000 
     44 H44         5.9002   55.6966   28.5780 H         1 UNK         0.0000 
     45 H45         5.5465   54.9027   30.0738 H         1 UNK         0.0000 
     46 H46         3.6910   55.2151   27.7646 H         1 UNK         0.0000 
     47 H47         3.3023   54.9719   29.4627 H         1 UNK         0.0000 
     48 H48         3.4770   52.9588   27.3514 H         1 UNK         0.0000 
     49 H49         3.0874   52.6690   29.0503 H         1 UNK         0.0000 
     50 H50         2.9979   55.0526   22.5050 H         1 UNK         0.0000 
     51 H51         1.1083   54.8994   24.0815 H         1 UNK         0.0000 
     52 H52         1.0015   50.6452   23.5401 H         1 UNK         0.0000 
     53 H53         2.8928   50.7884   22.0439 H         1 UNK         0.0000 
     54 H54        -0.8227   53.6919   24.6962 H         1 UNK         0.0000 
     55 H55        -1.6554   51.8641   23.2454 H         1 UNK         0.0000 
     56 H56        -1.1085   50.6793   24.4317 H         1 UNK         0.0000 
     57 H57        -2.3475   51.8424   24.8624 H         1 UNK         0.0000 
     58 H58         0.8087   53.1428   26.5977 H         1 UNK         0.0000 
     59 H59        -0.8271   52.5604   26.9094 H         1 UNK         0.0000 
     60 H60         0.4296   51.4429   26.3828 H         1 UNK         0.0000 
     61 H61        -0.1257   51.8780   17.5056 H         1 UNK         0.0000 
     62 H62         1.0538   50.5663   17.4200 H         1 UNK         0.0000 
     63 H63         0.1767   50.8711   18.9266 H         1 UNK         0.0000 
@<TRIPOS>BOND
     1    1    2 1    
     2    1   36 1    
     3    1   37 1    
     4    1   38 1    
     5    2   11 1    
     6    2    3 2    
     7    3    4 1    
     8    3   32 1    
     9    4    5 1    
    10    4    6 1    
    11    4   23 1    
    12    6   10 1    
    13    6    7 1    
    14    7    8 2    
    15    7   12 1    
    16    8    9 1    
    17    8   39 1    
    18    9   10 1    
    19   10   11 2    
    20   12   13 2    
    21   12   40 1    
    22   13   14 1    
    23   13   15 1    
    24   15   16 1    
    25   15   41 1    
    26   16   17 1    
    27   16   42 1    
    28   16   43 1    
    29   17   18 1    
    30   17   22 1    
    31   17   19 1    
    32   19   20 1    
    33   19   44 1    
    34   19   45 1    
    35   20   21 1    
    36   20   46 1    
    37   20   47 1    
    38   21   22 1    
    39   21   48 1    
    40   21   49 1    
    41   23   28 ar   
    42   23   24 ar   
    43   24   25 ar   
    44   24   50 1    
    45   25   26 ar   
    46   25   51 1    
    47   26   27 ar   
    48   26   29 1    
    49   27   28 ar   
    50   27   52 1    
    51   28   53 1    
    52   29   30 1    
    53   29   31 1    
    54   29   54 1    
    55   30   55 1    
    56   30   56 1    
    57   30   57 1    
    58   31   58 1    
    59   31   59 1    
    60   31   60 1    
    61   32   33 2    
    62   32   34 1    
    63   34   35 1    
    64   35   61 1    
    65   35   62 1    
    66   35   63 1    
@<TRIPOS>SUBSTRUCTURE
     1 UNK         1 GROUP             0       ****    0 ROOT    
