ZINC03007134_5423
                    3D
 Schrodinger Suite 2024-2.
 69 72  0  0  1  0            999 V2000
   10.4872   49.2887   14.5369 C   0  0  0  0  0  0
    9.9924   50.7102   14.2182 C   0  0  0  0  0  0
    8.5042   50.8952   14.5860 C   0  0  0  0  0  0
    8.0021   52.3142   14.2516 C   0  0  0  0  0  0
    8.8772   53.3344   14.8852 N   0  0  0  0  0  0
   10.3352   53.2110   14.6218 C   0  0  0  0  0  0
   10.8301   51.7859   14.9462 C   0  0  0  0  0  0
    8.2118   54.9653   15.0688 S   0  0  0  0  0  0
    6.9484   55.0505   14.3257 O   0  0  0  0  0  0
    9.2861   55.9446   14.8506 O   0  0  0  0  0  0
    7.7979   55.0455   16.8067 C   0  0  0  0  0  0
    6.5125   54.7082   17.2353 C   0  0  0  0  0  0
    6.1928   54.7820   18.5887 C   0  0  0  0  0  0
    7.1592   55.1866   19.5230 C   0  0  0  0  0  0
    8.4511   55.5031   19.0767 C   0  0  0  0  0  0
    8.7701   55.4323   17.7267 C   0  0  0  0  0  0
    6.8401   55.3045   20.9945 C   0  0  0  0  0  0
    7.4823   56.0940   21.6831 O   0  0  0  0  0  0
    5.8356   54.5313   21.4558 N   0  0  0  0  0  0
    5.3555   54.4124   22.7611 C   0  0  0  0  0  0
    4.0971   53.8691   23.1067 C   0  0  0  0  0  0
    3.8970   53.9712   24.5219 C   0  0  0  0  0  0
    5.0255   54.4409   25.2103 C   0  0  0  0  0  0
    6.3043   54.8885   24.1477 S   0  0  0  0  0  0
    5.1928   54.4571   26.7207 C   0  0  0  0  0  0
    2.9005   53.3881   26.8129 C   0  0  0  0  0  0
    2.6476   53.5245   25.2965 C   0  0  0  0  0  0
    3.8152   54.6355   28.8772 C   0  0  0  0  0  0
    2.5257   55.3216   29.3729 C   0  0  0  0  0  0
    4.0796   53.2646   29.5409 C   0  0  0  0  0  0
    3.1660   53.3013   22.1022 C   0  0  0  0  0  0
    3.5048   53.0368   20.9449 O   0  0  0  0  0  0
    1.9206   53.1114   22.5857 O   0  0  0  0  0  0
    0.9055   52.5285   21.7796 C   0  0  0  0  0  0
   10.4377   49.0824   15.6076 H   0  0  0  0  0  0
    9.8865   48.5350   14.0266 H   0  0  0  0  0  0
   11.5209   49.1522   14.2148 H   0  0  0  0  0  0
   10.0909   50.8843   13.1450 H   0  0  0  0  0  0
    8.3521   50.6963   15.6476 H   0  0  0  0  0  0
    7.9029   50.1442   14.0711 H   0  0  0  0  0  0
    6.9715   52.4458   14.5864 H   0  0  0  0  0  0
    8.0791   52.4214   13.1680 H   0  0  0  0  0  0
   10.4984   53.3544   13.5534 H   0  0  0  0  0  0
   10.8839   53.9493   15.2084 H   0  0  0  0  0  0
   11.8848   51.6763   14.6834 H   0  0  0  0  0  0
   10.7934   51.6190   16.0252 H   0  0  0  0  0  0
    5.7606   54.3961   16.5249 H   0  0  0  0  0  0
    5.1853   54.5332   18.8861 H   0  0  0  0  0  0
    9.2198   55.8100   19.7732 H   0  0  0  0  0  0
    9.7702   55.6817   17.4018 H   0  0  0  0  0  0
    5.2478   54.0947   20.7588 H   0  0  0  0  0  0
    5.7459   55.3271   27.0780 H   0  0  0  0  0  0
    5.6725   53.5511   27.0925 H   0  0  0  0  0  0
    3.4620   52.4941   27.0611 H   0  0  0  0  0  0
    1.9525   53.3920   27.3527 H   0  0  0  0  0  0
    2.2733   52.5670   24.9361 H   0  0  0  0  0  0
    1.8536   54.2491   25.1158 H   0  0  0  0  0  0
    4.6592   55.2967   29.0934 H   0  0  0  0  0  0
    2.5419   55.4738   30.4502 H   0  0  0  0  0  0
    1.6308   54.7383   29.1529 H   0  0  0  0  0  0
    2.3975   56.3061   28.9183 H   0  0  0  0  0  0
    4.2776   53.3811   30.6063 H   0  0  0  0  0  0
    3.2309   52.5864   29.4409 H   0  0  0  0  0  0
    4.9544   52.7675   29.1186 H   0  0  0  0  0  0
   -0.0226   52.4574   22.3475 H   0  0  0  0  0  0
    0.7110   53.1299   20.8913 H   0  0  0  0  0  0
    1.1830   51.5226   21.4606 H   0  0  0  0  0  0
    3.7676   54.5556   27.3229 N   0  3  1  0  0  0
    3.3453   55.4193   27.0096 H   0  0  0  0  0  0
  1  2  1  0  0  0
  1 35  1  0  0  0
  1 36  1  0  0  0
  1 37  1  0  0  0
  2  7  1  0  0  0
  2  3  1  0  0  0
  2 38  1  0  0  0
  3  4  1  0  0  0
  3 39  1  0  0  0
  3 40  1  0  0  0
  4  5  1  0  0  0
  4 41  1  0  0  0
  4 42  1  0  0  0
  5  6  1  0  0  0
  5  8  1  0  0  0
  6  7  1  0  0  0
  6 43  1  0  0  0
  6 44  1  0  0  0
  7 45  1  0  0  0
  7 46  1  0  0  0
  8  9  2  0  0  0
  8 10  2  0  0  0
  8 11  1  0  0  0
 11 16  2  0  0  0
 11 12  1  0  0  0
 12 13  2  0  0  0
 12 47  1  0  0  0
 13 14  1  0  0  0
 13 48  1  0  0  0
 14 15  2  0  0  0
 14 17  1  0  0  0
 15 16  1  0  0  0
 15 49  1  0  0  0
 16 50  1  0  0  0
 17 18  2  0  0  0
 17 19  1  0  0  0
 19 20  1  0  0  0
 19 51  1  0  0  0
 20 24  1  0  0  0
 20 21  2  0  0  0
 21 22  1  0  0  0
 21 31  1  0  0  0
 22 27  1  0  0  0
 22 23  2  0  0  0
 23 24  1  0  0  0
 23 25  1  0  0  0
 25 52  1  0  0  0
 25 53  1  0  0  0
 25 68  1  0  0  0
 26 27  1  0  0  0
 26 54  1  0  0  0
 26 55  1  0  0  0
 26 68  1  0  0  0
 27 56  1  0  0  0
 27 57  1  0  0  0
 28 29  1  0  0  0
 28 30  1  0  0  0
 28 58  1  0  0  0
 28 68  1  0  0  0
 29 59  1  0  0  0
 29 60  1  0  0  0
 29 61  1  0  0  0
 30 62  1  0  0  0
 30 63  1  0  0  0
 30 64  1  0  0  0
 31 32  2  0  0  0
 31 33  1  0  0  0
 33 34  1  0  0  0
 34 65  1  0  0  0
 34 66  1  0  0  0
 34 67  1  0  0  0
 68 69  1  0  0  0
M  CHG  1  68   1
M  END
> <i_i_glide_confnum>
197

> <i_i_glide_lignum>
5424

> <i_i_glide_posenum>
316

> <i_i_glide_rotatable_bonds>
8

> <i_m_Source_File_Index>
1381

> <b_m_subgroup_collapsed>
0

> <r_i_docking_score>
-5.00383

> <r_i_glide_ecoul>
0.349719

> <r_i_glide_eff_state_penalty>
0

> <r_i_glide_einternal>
3.23194

> <r_i_glide_emodel>
-55.3885

> <r_i_glide_energy>
-40.9963

> <r_i_glide_erotb>
0.45485

> <r_i_glide_esite>
0

> <r_i_glide_evdw>
-41.346

> <r_i_glide_gscore>
-5.00383

> <r_i_glide_hbond>
-0.0581635

> <r_i_glide_ligand_efficiency>
-0.142967

> <r_i_glide_ligand_efficiency_ln>
-1.09845

> <r_i_glide_ligand_efficiency_sa>
-0.467653

> <r_i_glide_lipo>
-2.96723

> <r_i_glide_metal>
0

> <r_i_glide_rewards>
-0.418449

> <s_i_glide_gridfile>
wee1_glide-grid

> <s_m_Source_File>
wee1_decoys_glide_SP.sdf

> <s_m_Source_Path>
/Users/zhangxujun/Desktop

> <s_m_entry_id>
1656

> <s_m_entry_name>
wee1_decoys_glide_SP.1381

> <s_m_subgroup_title>
wee1_decoys_glide_SP

> <s_m_subgroupid>
wee1_decoys_glide_SP


$$$$
