@<TRIPOS>MOLECULE
ZINC34903822_3982
76   79    1
SMALL
USER_CHARGES


@<TRIPOS>ATOM
      1 C1          3.7688   52.3357   29.3023 C.3       1 UNK         0.0000 
      2 C2          2.4392   53.1193   29.4215 C.3       1 UNK         0.0000 
      3 C3          1.7951   52.7447   30.7831 C.3       1 UNK         0.0000 
      4 C4          2.7457   54.6396   29.4458 C.3       1 UNK         0.0000 
      5 C5          1.5374   52.7808   28.2083 C.ar      1 UNK         0.0000 
      6 C6          0.2901   52.1514   28.3473 C.ar      1 UNK         0.0000 
      7 C7         -0.4839   51.8527   27.2318 C.ar      1 UNK         0.0000 
      8 C8         -0.0228   52.1695   25.9476 C.ar      1 UNK         0.0000 
      9 C9          1.2102   52.8086   25.7997 C.ar      1 UNK         0.0000 
     10 C10         1.9806   53.1073   26.9188 C.ar      1 UNK         0.0000 
     11 C11        -0.8681   51.9092   24.7310 C.2       1 UNK         0.0000 
     12 O12        -1.1564   52.8697   24.0096 O.2       1 UNK         0.0000 
     13 N13        -1.2702   50.6343   24.4647 N.am      1 UNK         0.0000 
     14 C14        -0.8878   49.4185   25.1926 C.3       1 UNK         0.0000 
     15 C15        -2.0069   48.4349   24.8909 C.3       1 UNK         0.0000 
     16 C16        -2.3762   48.7701   23.4531 C.3       1 UNK         0.0000 
     17 C17        -2.1273   50.2871   23.3069 C.3       1 UNK         0.0000 
     18 H18        -3.0718   50.8218   23.4243 H         1 UNK         0.0000 
     19 C19        -1.5197   50.6210   21.9282 C.2       1 UNK         0.0000 
     20 O20        -2.2550   51.0171   21.0226 O.2       1 UNK         0.0000 
     21 N21        -0.1926   50.4512   21.8124 N.am      1 UNK         0.0000 
     22 C22         0.6124   50.7082   20.6228 C.3       1 UNK         0.0000 
     23 C23         0.6569   52.1885   20.1505 C.3       1 UNK         0.0000 
     24 C24         1.6518   52.4281   18.9905 C.3       1 UNK         0.0000 
     25 C25         3.0732   51.9083   19.3042 C.3       1 UNK         0.0000 
     26 C26         2.9236   50.3880   19.5161 C.3       1 UNK         0.0000 
     27 C27         2.0004   50.0279   20.6991 C.3       1 UNK         0.0000 
     28 N28         3.6715   52.5470   20.4828 N.am      1 UNK         0.0000 
     29 C29         4.4317   53.6590   20.4733 C.2       1 UNK         0.0000 
     30 O30         4.7140   54.2702   19.4404 O.2       1 UNK         0.0000 
     31 C31         5.0022   54.0939   21.8057 C.ar      1 UNK         0.0000 
     32 C32         6.1499   54.8981   21.8386 C.ar      1 UNK         0.0000 
     33 C33         6.7043   55.2965   23.0518 C.ar      1 UNK         0.0000 
     34 C34         6.1417   54.8897   24.2609 C.ar      1 UNK         0.0000 
     35 C35         4.9855   54.0968   24.2336 C.ar      1 UNK         0.0000 
     36 C36         4.4171   53.7078   23.0207 C.ar      1 UNK         0.0000 
     37 O37         6.7771   55.3033   25.4181 O.3       1 UNK         0.0000 
     38 C38         6.2720   54.8723   26.6785 C.3       1 UNK         0.0000 
     39 H39         4.4300   52.5352   30.1461 H         1 UNK         0.0000 
     40 H40         4.3214   52.5887   28.3963 H         1 UNK         0.0000 
     41 H41         3.5865   51.2616   29.2813 H         1 UNK         0.0000 
     42 H42         0.9002   53.3347   30.9840 H         1 UNK         0.0000 
     43 H43         1.5089   51.6966   30.8221 H         1 UNK         0.0000 
     44 H44         2.4813   52.8925   31.6134 H         1 UNK         0.0000 
     45 H45         1.8362   55.2287   29.5844 H         1 UNK         0.0000 
     46 H46         3.4327   54.8954   30.2512 H         1 UNK         0.0000 
     47 H47         3.2160   54.9854   28.5237 H         1 UNK         0.0000 
     48 H48        -0.1063   51.8785   29.3133 H         1 UNK         0.0000 
     49 H49        -1.4460   51.3763   27.3710 H         1 UNK         0.0000 
     50 H50         1.5738   53.0855   24.8201 H         1 UNK         0.0000 
     51 H51         2.9340   53.5907   26.7759 H         1 UNK         0.0000 
     52 H52         0.0623   49.0578   24.7943 H         1 UNK         0.0000 
     53 H53        -0.7736   49.5310   26.2712 H         1 UNK         0.0000 
     54 H54        -1.7197   47.3954   25.0378 H         1 UNK         0.0000 
     55 H55        -2.8559   48.6415   25.5458 H         1 UNK         0.0000 
     56 H56        -1.7273   48.2032   22.7804 H         1 UNK         0.0000 
     57 H57        -3.4038   48.4923   23.2156 H         1 UNK         0.0000 
     58 H58         0.3158   50.1625   22.6326 H         1 UNK         0.0000 
     59 H59         0.1193   50.1895   19.7945 H         1 UNK         0.0000 
     60 H60        -0.3345   52.5067   19.8332 H         1 UNK         0.0000 
     61 H61         0.9564   52.8307   20.9803 H         1 UNK         0.0000 
     62 H62         1.2798   51.9411   18.0868 H         1 UNK         0.0000 
     63 H63         1.7052   53.4850   18.7320 H         1 UNK         0.0000 
     64 H64         3.7248   52.0796   18.4434 H         1 UNK         0.0000 
     65 H65         2.5658   49.9181   18.5965 H         1 UNK         0.0000 
     66 H66         3.9043   49.9586   19.6871 H         1 UNK         0.0000 
     67 H67         2.5040   50.3386   21.6146 H         1 UNK         0.0000 
     68 H68         1.8906   48.9427   20.7458 H         1 UNK         0.0000 
     69 H69         3.3529   52.2035   21.3731 H         1 UNK         0.0000 
     70 H70         6.6198   55.2210   20.9207 H         1 UNK         0.0000 
     71 H71         7.5878   55.9202   23.0544 H         1 UNK         0.0000 
     72 H72         4.5178   53.7601   25.1462 H         1 UNK         0.0000 
     73 H73         3.5234   53.1028   23.0466 H         1 UNK         0.0000 
     74 H74         6.9056   55.2665   27.4749 H         1 UNK         0.0000 
     75 H75         5.2591   55.2389   26.8516 H         1 UNK         0.0000 
     76 H76         6.2823   53.7845   26.7598 H         1 UNK         0.0000 
@<TRIPOS>BOND
     1    1    2 1    
     2    1   39 1    
     3    1   40 1    
     4    1   41 1    
     5    2    3 1    
     6    2    4 1    
     7    2    5 1    
     8    3   42 1    
     9    3   43 1    
    10    3   44 1    
    11    4   45 1    
    12    4   46 1    
    13    4   47 1    
    14    5   10 ar   
    15    5    6 ar   
    16    6    7 ar   
    17    6   48 1    
    18    7    8 ar   
    19    7   49 1    
    20    8    9 ar   
    21    8   11 1    
    22    9   10 ar   
    23    9   50 1    
    24   10   51 1    
    25   11   12 2    
    26   11   13 am   BACKBONE|DICT|INTERRES
    27   13   17 1    
    28   13   14 1    
    29   14   15 1    
    30   14   52 1    
    31   14   53 1    
    32   15   16 1    
    33   15   54 1    
    34   15   55 1    
    35   16   17 1    
    36   16   56 1    
    37   16   57 1    
    38   17   18 1    
    39   17   19 1    
    40   19   20 2    
    41   19   21 am   BACKBONE|DICT|INTERRES
    42   21   22 1    
    43   21   58 1    
    44   22   27 1    
    45   22   23 1    
    46   22   59 1    
    47   23   24 1    
    48   23   60 1    
    49   23   61 1    
    50   24   25 1    
    51   24   62 1    
    52   24   63 1    
    53   25   26 1    
    54   25   28 1    
    55   25   64 1    
    56   26   27 1    
    57   26   65 1    
    58   26   66 1    
    59   27   67 1    
    60   27   68 1    
    61   28   29 am   BACKBONE|DICT|INTERRES
    62   28   69 1    
    63   29   30 2    
    64   29   31 1    
    65   31   36 ar   
    66   31   32 ar   
    67   32   33 ar   
    68   32   70 1    
    69   33   34 ar   
    70   33   71 1    
    71   34   35 ar   
    72   34   37 1    
    73   35   36 ar   
    74   35   72 1    
    75   36   73 1    
    76   37   38 1    
    77   38   74 1    
    78   38   75 1    
    79   38   76 1    
@<TRIPOS>SUBSTRUCTURE
     1 UNK         1 GROUP             0       ****    0 ROOT    
