@<TRIPOS>MOLECULE
ZINC67246656_1512
43   46    1
SMALL
USER_CHARGES


@<TRIPOS>ATOM
      1 C1          6.6379   55.2227   25.0598 C.3       1 UNK         0.0000 
      2 C2          5.4901   54.6233   24.2581 C.ar      1 UNK         0.0000 
      3 C3          5.2977   54.4966   22.8634 C.ar      1 UNK         0.0000 
      4 N4          4.1119   53.9523   22.6428 N.2       1 UNK         0.0000 
      5 N5          3.5013   53.7012   23.8466 N.2       1 UNK         0.0000 
      6 N6          4.3324   54.0940   24.8244 N.pl3     1 UNK         0.0000 
      7 C7          3.9485   53.8675   26.1850 C.ar      1 UNK         0.0000 
      8 C8          4.9057   53.6965   27.2014 C.ar      1 UNK         0.0000 
      9 C9          4.5216   53.4092   28.5136 C.ar      1 UNK         0.0000 
     10 C10         3.1726   53.2737   28.8321 C.ar      1 UNK         0.0000 
     11 C11         2.2048   53.4161   27.8278 C.ar      1 UNK         0.0000 
     12 C12         2.5881   53.7221   26.5231 C.ar      1 UNK         0.0000 
     13 O13         0.8550   53.2963   28.0906 O.3       1 UNK         0.0000 
     14 C14         0.5656   52.5326   29.2669 C.3       1 UNK         0.0000 
     15 C15         1.4500   53.0174   30.4404 C.3       1 UNK         0.0000 
     16 O16         2.8460   52.9043   30.1245 O.3       1 UNK         0.0000 
     17 C17         6.2254   54.8967   21.8155 C.2       1 UNK         0.0000 
     18 O18         7.3582   55.3001   22.0823 O.2       1 UNK         0.0000 
     19 N19         5.7505   54.7909   20.5511 N.am      1 UNK         0.0000 
     20 N20         6.6128   54.8538   19.4290 N.pl3     1 UNK         0.0000 
     21 C21         7.1995   56.0686   19.0532 C.ar      1 UNK         0.0000 
     22 C22         6.4313   57.2226   18.8772 C.ar      1 UNK         0.0000 
     23 C23         7.0378   58.4083   18.4690 C.ar      1 UNK         0.0000 
     24 C24         8.4124   58.4420   18.2450 C.ar      1 UNK         0.0000 
     25 C25         9.1841   57.2962   18.4225 C.ar      1 UNK         0.0000 
     26 C26         8.5759   56.1085   18.8212 C.ar      1 UNK         0.0000 
     27 F27         9.0080   59.5999   17.8787 F         1 UNK         0.0000 
     28 H28         7.1874   55.9778   24.4961 H         1 UNK         0.0000 
     29 H29         6.2994   55.7282   25.9633 H         1 UNK         0.0000 
     30 H30         7.3661   54.4637   25.3433 H         1 UNK         0.0000 
     31 H31         5.9620   53.7271   26.9935 H         1 UNK         0.0000 
     32 H32         5.2727   53.2585   29.2730 H         1 UNK         0.0000 
     33 H33         1.8135   53.8271   25.7769 H         1 UNK         0.0000 
     34 H34         0.7663   51.4766   29.0754 H         1 UNK         0.0000 
     35 H35        -0.4917   52.6273   29.5143 H         1 UNK         0.0000 
     36 H36         1.2348   52.4448   31.3440 H         1 UNK         0.0000 
     37 H37         1.2140   54.0624   30.6509 H         1 UNK         0.0000 
     38 H38         4.8396   54.4048   20.3430 H         1 UNK         0.0000 
     39 H39         7.2929   54.1146   19.5349 H         1 UNK         0.0000 
     40 H40         5.3641   57.1958   19.0374 H         1 UNK         0.0000 
     41 H41         6.4421   59.2966   18.3203 H         1 UNK         0.0000 
     42 H42        10.2509   57.3285   18.2584 H         1 UNK         0.0000 
     43 H43         9.1844   55.2260   18.9575 H         1 UNK         0.0000 
@<TRIPOS>BOND
     1    1    2 1    
     2    1   28 1    
     3    1   29 1    
     4    1   30 1    
     5    2    6 ar   
     6    2    3 ar   
     7    3    4 ar   
     8    3   17 1    
     9    4    5 ar   
    10    5    6 ar   
    11    6    7 1    
    12    7   12 ar   
    13    7    8 ar   
    14    8    9 ar   
    15    8   31 1    
    16    9   10 ar   
    17    9   32 1    
    18   10   16 1    
    19   10   11 ar   
    20   11   12 ar   
    21   11   13 1    
    22   12   33 1    
    23   13   14 1    
    24   14   15 1    
    25   14   34 1    
    26   14   35 1    
    27   15   16 1    
    28   15   36 1    
    29   15   37 1    
    30   17   18 2    
    31   17   19 am   BACKBONE|DICT|INTERRES
    32   19   20 1    
    33   19   38 1    
    34   20   21 1    
    35   20   39 1    
    36   21   26 ar   
    37   21   22 ar   
    38   22   23 ar   
    39   22   40 1    
    40   23   24 ar   
    41   23   41 1    
    42   24   25 ar   
    43   24   27 1    
    44   25   26 ar   
    45   25   42 1    
    46   26   43 1    
@<TRIPOS>SUBSTRUCTURE
     1 UNK         1 GROUP             0       ****    0 ROOT    
