@<TRIPOS>MOLECULE
ZINC39886749_2638
46   49    1
SMALL
USER_CHARGES


@<TRIPOS>ATOM
      1 C1         -1.0704   48.1958   24.1550 C.3       1 UNK         0.0000 
      2 C2         -0.6015   49.4254   24.9752 C.3       1 UNK         0.0000 
      3 C3         -1.8591   50.0259   25.6591 C.3       1 UNK         0.0000 
      4 C4          0.3709   48.9662   26.0816 C.3       1 UNK         0.0000 
      5 C5          0.1545   50.4297   24.0785 C.ar      1 UNK         0.0000 
      6 C6         -0.1688   51.7929   24.0510 C.ar      1 UNK         0.0000 
      7 C7          0.5962   52.6810   23.3063 C.ar      1 UNK         0.0000 
      8 C8          1.6932   52.2271   22.5709 C.ar      1 UNK         0.0000 
      9 C9          2.0034   50.8661   22.5700 C.ar      1 UNK         0.0000 
     10 C10         1.2359   49.9785   23.3110 C.ar      1 UNK         0.0000 
     11 C11         2.5543   53.2437   21.8154 C.3       1 UNK         0.0000 
     12 H12         1.9032   54.0967   21.6817 H         1 UNK         0.0000 
     13 C13         3.7424   53.7529   22.6242 C.2       1 UNK         0.0000 
     14 C14         5.0034   54.1218   22.1365 C.2       1 UNK         0.0000 
     15 N15         5.9035   54.4856   23.0296 N.2       1 UNK         0.0000 
     16 C16         5.4042   54.4967   24.2402 C.2       1 UNK         0.0000 
     17 S17         6.3046   54.8967   25.6857 S.3       1 UNK         0.0000 
     18 S18         3.7266   54.0842   24.3350 S.3       1 UNK         0.0000 
     19 S19         5.5045   54.0965   20.4359 S.3       1 UNK         0.0000 
     20 C20         3.8850   53.8360   19.7160 C.3       1 UNK         0.0000 
     21 H21         3.5037   54.8482   19.7712 H         1 UNK         0.0000 
     22 C22         3.1044   52.7719   20.4312 C.3       1 UNK         0.0000 
     23 H23         3.7378   51.9011   20.6172 H         1 UNK         0.0000 
     24 C24         2.1199   52.3275   19.3542 C.2       1 UNK         0.0000 
     25 O25         1.0374   51.7747   19.5745 O.2       1 UNK         0.0000 
     26 N26         2.6683   52.6668   18.1483 N.am      1 UNK         0.0000 
     27 C27         3.8245   53.3849   18.2683 C.2       1 UNK         0.0000 
     28 O28         4.6386   53.6957   17.3953 O.2       1 UNK         0.0000 
     29 C29         2.0396   52.4590   16.9686 C.2       1 UNK         0.0000 
     30 O30         1.2509   53.2620   16.4732 O.2       1 UNK         0.0000 
     31 N31         2.3045   51.2967   16.3658 N.am      1 UNK         0.0000 
     32 H32        -1.6284   47.4933   24.7747 H         1 UNK         0.0000 
     33 H33        -0.2364   47.6360   23.7332 H         1 UNK         0.0000 
     34 H34        -1.7197   48.4929   23.3306 H         1 UNK         0.0000 
     35 H35        -1.6036   50.8423   26.3354 H         1 UNK         0.0000 
     36 H36        -2.5752   50.4025   24.9275 H         1 UNK         0.0000 
     37 H37        -2.3789   49.2819   26.2640 H         1 UNK         0.0000 
     38 H38         0.6922   49.8014   26.7052 H         1 UNK         0.0000 
     39 H39        -0.0956   48.2386   26.7363 H         1 UNK         0.0000 
     40 H40         1.2693   48.4974   25.6826 H         1 UNK         0.0000 
     41 H41        -0.9886   52.1937   24.6261 H         1 UNK         0.0000 
     42 H42         0.3515   53.7326   23.3273 H         1 UNK         0.0000 
     43 H43         2.8499   50.4846   22.0211 H         1 UNK         0.0000 
     44 H44         1.5173   48.9361   23.3157 H         1 UNK         0.0000 
     45 H45         3.0166   50.6516   16.7114 H         1 UNK         0.0000 
     46 H46         1.8397   51.0835   15.4992 H         1 UNK         0.0000 
@<TRIPOS>BOND
     1    1    2 1    
     2    1   32 1    
     3    1   33 1    
     4    1   34 1    
     5    2    3 1    
     6    2    4 1    
     7    2    5 1    
     8    3   35 1    
     9    3   36 1    
    10    3   37 1    
    11    4   38 1    
    12    4   39 1    
    13    4   40 1    
    14    5   10 ar   
    15    5    6 ar   
    16    6    7 ar   
    17    6   41 1    
    18    7    8 ar   
    19    7   42 1    
    20    8    9 ar   
    21    8   11 1    
    22    9   10 ar   
    23    9   43 1    
    24   10   44 1    
    25   11   12 1    
    26   11   22 1    
    27   11   13 1    
    28   13   18 1    
    29   13   14 2    
    30   14   15 1    
    31   14   19 1    
    32   15   16 2    
    33   16   17 1    
    34   16   18 1    
    35   19   20 1    
    36   20   21 1    
    37   20   27 1    
    38   20   22 1    
    39   22   23 1    
    40   22   24 1    
    41   24   25 2    
    42   24   26 am   BACKBONE|DICT|INTERRES
    43   26   27 am   BACKBONE|DICT|INTERRES
    44   26   29 am   BACKBONE|DICT|INTERRES
    45   27   28 2    
    46   29   30 2    
    47   29   31 am   BACKBONE|DICT|INTERRES
    48   31   45 1    
    49   31   46 1    
@<TRIPOS>SUBSTRUCTURE
     1 UNK         1 GROUP             0       ****    0 ROOT    
