@<TRIPOS>MOLECULE
ZINC38636922_2201
72   74    1
SMALL
USER_CHARGES


@<TRIPOS>ATOM
      1 C1         -8.4701   50.7234   30.6648 C.3       1 UNK         0.0000 
      2 C2         -7.7793   52.0056   30.1381 C.3       1 UNK         0.0000 
      3 C3         -8.8161   52.7543   29.2598 C.3       1 UNK         0.0000 
      4 C4         -7.4306   52.9256   31.3316 C.3       1 UNK         0.0000 
      5 C5         -6.4830   51.6348   29.3736 C.ar      1 UNK         0.0000 
      6 C6         -5.4890   50.8895   30.0248 C.ar      1 UNK         0.0000 
      7 C7         -4.3186   50.5281   29.3653 C.ar      1 UNK         0.0000 
      8 C8         -4.1065   50.9256   28.0462 C.ar      1 UNK         0.0000 
      9 C9         -5.0875   51.6707   27.3802 C.ar      1 UNK         0.0000 
     10 C10        -6.2635   52.0183   28.0403 C.ar      1 UNK         0.0000 
     11 N11        -2.9062   50.4968   27.4604 N.am      1 UNK         0.0000 
     12 C12        -2.3162   50.8858   26.3165 C.2       1 UNK         0.0000 
     13 O13        -2.6619   51.8216   25.5932 O.2       1 UNK         0.0000 
     14 N14        -1.2620   50.0969   26.0733 N.am      1 UNK         0.0000 
     15 C15        -0.2482   50.2812   25.0267 C.3       1 UNK         0.0000 
     16 C16         0.5687   51.6299   25.0272 C.3       1 UNK         0.0000 
     17 H17        -0.1743   52.3737   24.7310 H         1 UNK         0.0000 
     18 C18         1.0354   52.0611   26.4508 C.ar      1 UNK         0.0000 
     19 C19         1.1043   51.1669   27.5217 C.ar      1 UNK         0.0000 
     20 C20         1.2584   51.6229   28.8308 C.ar      1 UNK         0.0000 
     21 C21         1.3487   52.9871   29.1291 C.ar      1 UNK         0.0000 
     22 C22         1.4124   53.8674   28.0434 C.ar      1 UNK         0.0000 
     23 C23         1.2582   53.3997   26.7402 C.ar      1 UNK         0.0000 
     24 N24         1.3406   53.4626   30.4743 N.pl3     1 UNK         0.0000 
     25 C25         0.8103   54.8102   30.7032 C.3       1 UNK         0.0000 
     26 C26         1.0645   52.5158   31.5605 C.3       1 UNK         0.0000 
     27 N27         1.6502   51.6889   23.9848 N.3       1 UNK         0.0000 
     28 C28         1.4085   50.8293   22.8019 C.3       1 UNK         0.0000 
     29 C29         2.5359   50.8727   21.7461 C.3       1 UNK         0.0000 
     30 N30         2.7391   52.3273   21.2832 N.4       1 UNK         0.0000 
     31 C31         3.0888   53.1986   22.5057 C.3       1 UNK         0.0000 
     32 C32         1.9806   53.0761   23.5809 C.3       1 UNK         0.0000 
     33 C33         3.8436   52.4054   20.2045 C.3       1 UNK         0.0000 
     34 H34        -9.4063   50.9516   31.1763 H         1 UNK         0.0000 
     35 H35        -7.8501   50.1813   31.3785 H         1 UNK         0.0000 
     36 H36        -8.7057   50.0354   29.8516 H         1 UNK         0.0000 
     37 H37        -8.4224   53.6972   28.8822 H         1 UNK         0.0000 
     38 H38        -9.1275   52.1543   28.4040 H         1 UNK         0.0000 
     39 H39        -9.7202   52.9955   29.8213 H         1 UNK         0.0000 
     40 H40        -6.9303   53.8345   30.9958 H         1 UNK         0.0000 
     41 H41        -8.3247   53.2332   31.8755 H         1 UNK         0.0000 
     42 H42        -6.7805   52.4316   32.0540 H         1 UNK         0.0000 
     43 H43        -5.6165   50.5735   31.0498 H         1 UNK         0.0000 
     44 H44        -3.5758   49.9407   29.8899 H         1 UNK         0.0000 
     45 H45        -4.9654   51.9729   26.3516 H         1 UNK         0.0000 
     46 H46        -6.9941   52.5861   27.4868 H         1 UNK         0.0000 
     47 H47        -2.4196   49.7721   27.9837 H         1 UNK         0.0000 
     48 H48        -1.1365   49.3029   26.6937 H         1 UNK         0.0000 
     49 H49         0.4480   49.4481   25.1358 H         1 UNK         0.0000 
     50 H50        -0.7409   50.1211   24.0667 H         1 UNK         0.0000 
     51 H51         0.9883   50.1090   27.3442 H         1 UNK         0.0000 
     52 H52         1.2395   50.8965   29.6178 H         1 UNK         0.0000 
     53 H53         1.5095   54.9314   28.1895 H         1 UNK         0.0000 
     54 H54         1.1706   54.1250   25.9553 H         1 UNK         0.0000 
     55 H55        -0.1836   54.8929   30.2648 H         1 UNK         0.0000 
     56 H56         0.7047   55.0453   31.7632 H         1 UNK         0.0000 
     57 H57         1.4368   55.5760   30.2452 H         1 UNK         0.0000 
     58 H58         1.7835   51.6970   31.5666 H         1 UNK         0.0000 
     59 H59         1.0988   52.9904   32.5414 H         1 UNK         0.0000 
     60 H60         0.0695   52.0837   31.4415 H         1 UNK         0.0000 
     61 H61         1.2894   49.7829   23.0850 H         1 UNK         0.0000 
     62 H62         0.4992   51.1938   22.3184 H         1 UNK         0.0000 
     63 H63         2.2405   50.3122   20.8563 H         1 UNK         0.0000 
     64 H64         3.4909   50.4968   22.1157 H         1 UNK         0.0000 
     65 H65         3.1350   54.2229   22.1301 H         1 UNK         0.0000 
     66 H66         4.0693   52.8959   22.8766 H         1 UNK         0.0000 
     67 H67         1.0753   53.5008   23.1422 H         1 UNK         0.0000 
     68 H68         2.3291   53.6737   24.4163 H         1 UNK         0.0000 
     69 H69         4.7821   52.0537   20.6358 H         1 UNK         0.0000 
     70 H70         3.5426   51.7733   19.3656 H         1 UNK         0.0000 
     71 H71         3.9177   53.4470   19.8875 H         1 UNK         0.0000 
     72 H72         1.8717   52.6675   20.8855 H         1 UNK         0.0000 
@<TRIPOS>BOND
     1    1    2 1    
     2    1   34 1    
     3    1   35 1    
     4    1   36 1    
     5    2    3 1    
     6    2    4 1    
     7    2    5 1    
     8    3   37 1    
     9    3   38 1    
    10    3   39 1    
    11    4   40 1    
    12    4   41 1    
    13    4   42 1    
    14    5   10 ar   
    15    5    6 ar   
    16    6    7 ar   
    17    6   43 1    
    18    7    8 ar   
    19    7   44 1    
    20    8    9 ar   
    21    8   11 1    
    22    9   10 ar   
    23    9   45 1    
    24   10   46 1    
    25   11   12 am   BACKBONE|DICT|INTERRES
    26   11   47 1    
    27   12   13 2    
    28   12   14 am   BACKBONE|DICT|INTERRES
    29   14   15 1    
    30   14   48 1    
    31   15   16 1    
    32   15   49 1    
    33   15   50 1    
    34   16   17 1    
    35   16   18 1    
    36   16   27 1    
    37   18   23 ar   
    38   18   19 ar   
    39   19   20 ar   
    40   19   51 1    
    41   20   21 ar   
    42   20   52 1    
    43   21   22 ar   
    44   21   24 1    
    45   22   23 ar   
    46   22   53 1    
    47   23   54 1    
    48   24   25 1    
    49   24   26 1    
    50   25   55 1    
    51   25   56 1    
    52   25   57 1    
    53   26   58 1    
    54   26   59 1    
    55   26   60 1    
    56   27   32 1    
    57   27   28 1    
    58   28   29 1    
    59   28   61 1    
    60   28   62 1    
    61   29   30 1    
    62   29   63 1    
    63   29   64 1    
    64   30   31 1    
    65   30   33 1    
    66   30   72 1    
    67   31   32 1    
    68   31   65 1    
    69   31   66 1    
    70   32   67 1    
    71   32   68 1    
    72   33   69 1    
    73   33   70 1    
    74   33   71 1    
@<TRIPOS>SUBSTRUCTURE
     1 UNK         1 GROUP             0       ****    0 ROOT    
