@<TRIPOS>MOLECULE
ZINC14664698_2860
54   56    1
SMALL
USER_CHARGES


@<TRIPOS>ATOM
      1 C1         -3.4021   47.0389   23.2872 C.3       1 UNK         0.0000 
      2 C2         -2.4401   47.5785   24.3531 C.3       1 UNK         0.0000 
      3 C3         -1.9468   46.4599   25.2845 C.3       1 UNK         0.0000 
      4 O4         -1.3429   48.1576   23.6447 O.3       1 UNK         0.0000 
      5 C5         -0.6891   49.2787   24.1320 C.ar      1 UNK         0.0000 
      6 C6         -0.7509   49.6508   25.4851 C.ar      1 UNK         0.0000 
      7 C7         -0.0631   50.7610   25.9592 C.ar      1 UNK         0.0000 
      8 C8          0.7028   51.5223   25.0865 C.ar      1 UNK         0.0000 
      9 C9          0.7858   51.1726   23.7404 C.ar      1 UNK         0.0000 
     10 C10         0.0962   50.0513   23.2437 C.ar      1 UNK         0.0000 
     11 C11         0.1475   49.7219   21.7649 C.2       1 UNK         0.0000 
     12 O12        -0.8549   49.2792   21.1953 O.2       1 UNK         0.0000 
     13 N13         1.3145   49.9997   21.1272 N.am      1 UNK         0.0000 
     14 C14         1.8136   49.5100   19.9422 C.2       1 UNK         0.0000 
     15 S15         1.5029   48.0066   19.2815 S.2       1 UNK         0.0000 
     16 N16         2.7045   50.2885   19.2612 N.pl3     1 UNK         0.0000 
     17 N17         2.9437   51.6465   19.4959 N.am      1 UNK         0.0000 
     18 C18         3.7967   52.0462   20.4588 C.2       1 UNK         0.0000 
     19 O19         4.3181   51.2957   21.2818 O.2       1 UNK         0.0000 
     20 C20         4.0994   53.5491   20.4712 C.3       1 UNK         0.0000 
     21 O21         5.0183   53.8958   21.5157 O.3       1 UNK         0.0000 
     22 C22         4.6050   54.0347   22.8302 C.ar      1 UNK         0.0000 
     23 C23         3.2656   54.1687   23.2108 C.ar      1 UNK         0.0000 
     24 C24         2.9135   54.3293   24.5441 C.ar      1 UNK         0.0000 
     25 C25         3.9001   54.3448   25.5562 C.ar      1 UNK         0.0000 
     26 C26         3.5548   54.4867   26.9242 C.ar      1 UNK         0.0000 
     27 C27         4.5437   54.4931   27.9037 C.ar      1 UNK         0.0000 
     28 C28         5.8821   54.3605   27.5556 C.ar      1 UNK         0.0000 
     29 C29         6.2521   54.2128   26.2221 C.ar      1 UNK         0.0000 
     30 C30         5.2726   54.2007   25.1897 C.ar      1 UNK         0.0000 
     31 C31         5.6026   54.0332   23.8119 C.ar      1 UNK         0.0000 
     32 Br32        7.4064   53.6966   23.2829 Br        1 UNK         0.0000 
     33 H33        -4.2831   46.5853   23.7409 H         1 UNK         0.0000 
     34 H34        -3.7447   47.8422   22.6348 H         1 UNK         0.0000 
     35 H35        -2.9192   46.2892   22.6593 H         1 UNK         0.0000 
     36 H36        -2.9869   48.3284   24.9283 H         1 UNK         0.0000 
     37 H37        -2.7800   45.9719   25.7894 H         1 UNK         0.0000 
     38 H38        -1.3900   45.7040   24.7319 H         1 UNK         0.0000 
     39 H39        -1.2963   46.8507   26.0661 H         1 UNK         0.0000 
     40 H40        -1.3195   49.0793   26.2005 H         1 UNK         0.0000 
     41 H41        -0.1216   51.0199   27.0066 H         1 UNK         0.0000 
     42 H42         1.2406   52.3759   25.4637 H         1 UNK         0.0000 
     43 H43         1.3842   51.7963   23.0903 H         1 UNK         0.0000 
     44 H44         1.9929   50.4956   21.6845 H         1 UNK         0.0000 
     45 H45         3.3715   49.8900   18.6068 H         1 UNK         0.0000 
     46 H46         2.5139   52.2514   18.8117 H         1 UNK         0.0000 
     47 H47         3.1662   54.1008   20.5134 H         1 UNK         0.0000 
     48 H48         4.5771   53.8154   19.5277 H         1 UNK         0.0000 
     49 H49         2.4704   54.1739   22.4833 H         1 UNK         0.0000 
     50 H50         1.8738   54.4512   24.8114 H         1 UNK         0.0000 
     51 H51         2.5166   54.5871   27.2058 H         1 UNK         0.0000 
     52 H52         4.2708   54.6055   28.9424 H         1 UNK         0.0000 
     53 H53         6.6398   54.3719   28.3268 H         1 UNK         0.0000 
     54 H54         7.2953   54.0990   25.9758 H         1 UNK         0.0000 
@<TRIPOS>BOND
     1    1    2 1    
     2    1   33 1    
     3    1   34 1    
     4    1   35 1    
     5    2    3 1    
     6    2    4 1    
     7    2   36 1    
     8    3   37 1    
     9    3   38 1    
    10    3   39 1    
    11    4    5 1    
    12    5   10 ar   
    13    5    6 ar   
    14    6    7 ar   
    15    6   40 1    
    16    7    8 ar   
    17    7   41 1    
    18    8    9 ar   
    19    8   42 1    
    20    9   10 ar   
    21    9   43 1    
    22   10   11 1    
    23   11   12 2    
    24   11   13 am   BACKBONE|DICT|INTERRES
    25   13   14 am   BACKBONE|DICT|INTERRES
    26   13   44 1    
    27   14   15 2    
    28   14   16 1    
    29   16   17 1    
    30   16   45 1    
    31   17   18 am   BACKBONE|DICT|INTERRES
    32   17   46 1    
    33   18   19 2    
    34   18   20 1    
    35   20   21 1    
    36   20   47 1    
    37   20   48 1    
    38   21   22 1    
    39   22   31 ar   
    40   22   23 ar   
    41   23   24 ar   
    42   23   49 1    
    43   24   25 ar   
    44   24   50 1    
    45   25   30 ar   
    46   25   26 ar   
    47   26   27 ar   
    48   26   51 1    
    49   27   28 ar   
    50   27   52 1    
    51   28   29 ar   
    52   28   53 1    
    53   29   30 ar   
    54   29   54 1    
    55   30   31 ar   
    56   31   32 1    
@<TRIPOS>SUBSTRUCTURE
     1 UNK         1 GROUP             0       ****    0 ROOT    
