ZINC02086532_4517
                    3D
 Schrodinger Suite 2024-2.
 61 65  0  0  1  0            999 V2000
   -0.4900   47.7747   16.5083 C   0  0  0  0  0  0
    0.3957   46.9525   17.4791 C   0  0  0  0  0  0
   -0.0844   45.4795   17.4403 C   0  0  0  0  0  0
    1.8484   46.9771   16.9388 C   0  0  0  0  0  0
    0.3470   47.5041   18.9575 C   0  0  2  0  0  0
    0.9364   46.8026   19.5539 H   0  0  0  0  0  0
   -1.0823   47.5784   19.5645 C   0  0  0  0  0  0
   -1.0883   47.8170   21.0905 C   0  0  0  0  0  0
   -0.0645   48.8973   21.4750 C   0  0  0  0  0  0
    0.8614   49.3833   20.5384 C   0  0  0  0  0  0
    1.8196   50.6728   21.1627 S   0  0  0  0  0  0
    1.0415   50.5464   22.7180 C   0  0  0  0  0  0
    0.1206   49.4710   22.7628 C   0  0  0  0  0  0
   -0.6521   49.0774   23.9323 C   0  0  0  0  0  0
   -1.8234   48.7161   23.8622 O   0  0  0  0  0  0
   -0.0132   49.1247   25.1055 N   0  0  0  0  0  0
    1.3897   51.3959   23.7658 N   0  0  0  0  0  0
    1.9040   52.6447   23.6906 C   0  0  0  0  0  0
    2.0164   53.3048   22.6574 O   0  0  0  0  0  0
    2.3236   53.2234   25.0234 C   0  0  0  0  0  0
    1.5054   53.0369   26.1445 C   0  0  0  0  0  0
    1.9344   53.4510   27.4048 C   0  0  0  0  0  0
    3.1232   54.0668   27.6060 N   0  0  0  0  0  0
    3.9545   54.2536   26.5452 C   0  0  0  0  0  0
    3.5988   53.8668   25.2111 C   0  0  0  0  0  0
    4.5621   54.0967   24.1784 C   0  0  0  0  0  0
    5.8020   54.6609   24.4642 C   0  0  0  0  0  0
    6.1357   55.0173   25.7613 C   0  0  0  0  0  0
    5.2296   54.8220   26.7985 C   0  0  0  0  0  0
    1.1286   53.2066   28.6399 C   0  0  0  0  0  0
    1.1600   53.8707   29.8685 C   0  0  0  0  0  0
    0.3057   53.3157   30.8262 C   0  0  0  0  0  0
   -0.3886   52.2199   30.3452 C   0  0  0  0  0  0
   -0.0114   51.8820   28.6906 S   0  0  0  0  0  0
    1.0002   48.9107   19.0999 C   0  0  0  0  0  0
   -0.4296   47.3848   15.4898 H   0  0  0  0  0  0
   -0.1885   48.8216   16.4577 H   0  0  0  0  0  0
   -1.5451   47.7519   16.7875 H   0  0  0  0  0  0
    0.4634   44.8606   18.1515 H   0  0  0  0  0  0
   -1.1456   45.3799   17.6640 H   0  0  0  0  0  0
    0.0608   45.0393   16.4517 H   0  0  0  0  0  0
    2.5433   46.4976   17.6280 H   0  0  0  0  0  0
    1.9348   46.4699   15.9794 H   0  0  0  0  0  0
    2.2098   47.9917   16.7784 H   0  0  0  0  0  0
   -1.6855   48.3235   19.0428 H   0  0  0  0  0  0
   -1.6118   46.6406   19.3978 H   0  0  0  0  0  0
   -2.0956   48.1217   21.3752 H   0  0  0  0  0  0
   -0.8940   46.8812   21.6189 H   0  0  0  0  0  0
    0.9967   49.1261   25.1303 H   0  0  0  0  0  0
   -0.5236   48.8826   25.9483 H   0  0  0  0  0  0
    1.0538   51.1135   24.6725 H   0  0  0  0  0  0
    0.5421   52.5526   26.0483 H   0  0  0  0  0  0
    4.3507   53.8197   23.1563 H   0  0  0  0  0  0
    6.5156   54.8219   23.6686 H   0  0  0  0  0  0
    7.1029   55.4494   25.9651 H   0  0  0  0  0  0
    5.4965   55.1029   27.8102 H   0  0  0  0  0  0
    1.7933   54.7252   30.0596 H   0  0  0  0  0  0
    0.1984   53.6879   31.8354 H   0  0  0  0  0  0
   -1.0949   51.6005   30.8806 H   0  0  0  0  0  0
    2.0554   48.8876   18.8252 H   0  0  0  0  0  0
    0.5171   49.6337   18.4393 H   0  0  0  0  0  0
  1  2  1  0  0  0
  1 36  1  0  0  0
  1 37  1  0  0  0
  1 38  1  0  0  0
  2  3  1  0  0  0
  2  4  1  0  0  0
  2  5  1  0  0  0
  3 39  1  0  0  0
  3 40  1  0  0  0
  3 41  1  0  0  0
  4 42  1  0  0  0
  4 43  1  0  0  0
  4 44  1  0  0  0
  5  6  1  0  0  0
  5 35  1  0  0  0
  5  7  1  0  0  0
  7  8  1  0  0  0
  7 45  1  0  0  0
  7 46  1  0  0  0
  8  9  1  0  0  0
  8 47  1  0  0  0
  8 48  1  0  0  0
  9 13  1  0  0  0
  9 10  2  0  0  0
 10 11  1  0  0  0
 10 35  1  0  0  0
 11 12  1  0  0  0
 12 13  2  0  0  0
 12 17  1  0  0  0
 13 14  1  0  0  0
 14 15  2  0  0  0
 14 16  1  0  0  0
 16 49  1  0  0  0
 16 50  1  0  0  0
 17 18  1  0  0  0
 17 51  1  0  0  0
 18 19  2  0  0  0
 18 20  1  0  0  0
 20 25  2  0  0  0
 20 21  1  0  0  0
 21 22  2  0  0  0
 21 52  1  0  0  0
 22 23  1  0  0  0
 22 30  1  0  0  0
 23 24  2  0  0  0
 24 29  1  0  0  0
 24 25  1  0  0  0
 25 26  1  0  0  0
 26 27  2  0  0  0
 26 53  1  0  0  0
 27 28  1  0  0  0
 27 54  1  0  0  0
 28 29  2  0  0  0
 28 55  1  0  0  0
 29 56  1  0  0  0
 30 34  1  0  0  0
 30 31  2  0  0  0
 31 32  1  0  0  0
 31 57  1  0  0  0
 32 33  2  0  0  0
 32 58  1  0  0  0
 33 34  1  0  0  0
 33 59  1  0  0  0
 35 60  1  0  0  0
 35 61  1  0  0  0
M  END
> <i_i_glide_confnum>
32

> <i_i_glide_lignum>
4518

> <i_i_glide_posenum>
159

> <i_i_glide_rotatable_bonds>
6

> <i_m_Source_File_Index>
1776

> <b_m_subgroup_collapsed>
0

> <r_i_docking_score>
-5.30961

> <r_i_glide_ecoul>
-1.93943

> <r_i_glide_eff_state_penalty>
0

> <r_i_glide_einternal>
8.25826

> <r_i_glide_emodel>
-58.7184

> <r_i_glide_energy>
-46.825

> <r_i_glide_erotb>
0.339421

> <r_i_glide_esite>
-0.0627519

> <r_i_glide_evdw>
-44.8856

> <r_i_glide_gscore>
-5.30961

> <r_i_glide_hbond>
0

> <r_i_glide_ligand_efficiency>
-0.156165

> <r_i_glide_ligand_efficiency_ln>
-1.17304

> <r_i_glide_ligand_efficiency_sa>
-0.505914

> <r_i_glide_lipo>
-2.69304

> <r_i_glide_metal>
0

> <r_i_glide_rewards>
-0.358048

> <s_i_glide_gridfile>
wee1_glide-grid

> <s_m_Source_File>
wee1_decoys_glide_SP.sdf

> <s_m_Source_Path>
/Users/zhangxujun/Desktop

> <s_m_entry_id>
2051

> <s_m_entry_name>
wee1_decoys_glide_SP.1776

> <s_m_subgroup_title>
wee1_decoys_glide_SP

> <s_m_subgroupid>
wee1_decoys_glide_SP


$$$$
