@<TRIPOS>MOLECULE
ZINC13022521_5777
59   61    1
SMALL
USER_CHARGES


@<TRIPOS>ATOM
      1 C1          1.7300   49.1986   20.2721 C.3       1 UNK         0.0000 
      2 C2          1.8217   50.1693   21.4544 C.3       1 UNK         0.0000 
      3 O3          2.6997   51.2325   21.1111 O.3       1 UNK         0.0000 
      4 C4          2.8779   52.2896   21.9396 C.2       1 UNK         0.0000 
      5 O5          2.3044   52.4162   23.0230 O.2       1 UNK         0.0000 
      6 C6          3.8555   53.2528   21.3867 C.2       1 UNK         0.0000 
      7 C7          4.7221   54.0946   22.1608 C.2       1 UNK         0.0000 
      8 C8          5.5170   54.8970   21.3517 C.2       1 UNK         0.0000 
      9 S9          5.3098   54.6555   19.6755 S.3       1 UNK         0.0000 
     10 C10         4.0702   53.4751   19.9983 C.2       1 UNK         0.0000 
     11 N11         3.3369   52.8968   18.9605 N.am      1 UNK         0.0000 
     12 C12         3.5033   53.0143   17.6257 C.2       1 UNK         0.0000 
     13 O13         4.4582   53.5560   17.0670 O.2       1 UNK         0.0000 
     14 C14         2.3905   52.4022   16.7710 C.3       1 UNK         0.0000 
     15 S15         0.7623   53.2139   16.9905 S.3       1 UNK         0.0000 
     16 C16         0.8595   54.9408   16.5218 C.ar      1 UNK         0.0000 
     17 C17        -0.2266   55.8433   16.6659 C.ar      1 UNK         0.0000 
     18 C18         0.0035   57.1986   16.3112 C.ar      1 UNK         0.0000 
     19 C19         1.2620   57.5872   15.8423 C.ar      1 UNK         0.0000 
     20 C20         2.2643   56.6323   15.7276 C.ar      1 UNK         0.0000 
     21 N21         2.0672   55.3347   16.0436 N.ar      1 UNK         0.0000 
     22 C22         3.6552   56.9900   15.2425 C.3       1 UNK         0.0000 
     23 C23        -1.0710   58.2798   16.4013 C.3       1 UNK         0.0000 
     24 C24        -1.5647   55.4038   17.1839 C.2       1 UNK         0.0000 
     25 O25        -2.0982   54.3924   16.6784 O.co2     1 UNK         0.0000 
     26 C26         4.8855   54.1892   23.6588 C.ar      1 UNK         0.0000 
     27 C27         3.7809   54.4967   24.4622 C.ar      1 UNK         0.0000 
     28 C28         3.9040   54.5867   25.8484 C.ar      1 UNK         0.0000 
     29 C29         5.1428   54.4020   26.4594 C.ar      1 UNK         0.0000 
     30 C30         6.2593   54.1325   25.6706 C.ar      1 UNK         0.0000 
     31 C31         6.1417   54.0259   24.2806 C.ar      1 UNK         0.0000 
     32 C32         7.3680   53.6161   23.4805 C.3       1 UNK         0.0000 
     33 C33         5.2767   54.4581   27.9702 C.3       1 UNK         0.0000 
     34 H34         1.0514   48.3757   20.4948 H         1 UNK         0.0000 
     35 H35         1.3603   49.7006   19.3770 H         1 UNK         0.0000 
     36 H36         2.7045   48.7722   20.0341 H         1 UNK         0.0000 
     37 H37         2.1928   49.6536   22.3419 H         1 UNK         0.0000 
     38 H38         0.8307   50.5615   21.6897 H         1 UNK         0.0000 
     39 H39         6.2347   55.6340   21.6775 H         1 UNK         0.0000 
     40 H40         2.5857   52.2958   19.2645 H         1 UNK         0.0000 
     41 H41         2.3066   51.3415   17.0094 H         1 UNK         0.0000 
     42 H42         2.6649   52.4550   15.7176 H         1 UNK         0.0000 
     43 H43         1.4617   58.6170   15.5815 H         1 UNK         0.0000 
     44 H44         3.7994   58.0705   15.2007 H         1 UNK         0.0000 
     45 H45         4.4112   56.5785   15.9141 H         1 UNK         0.0000 
     46 H46         3.8245   56.5822   14.2449 H         1 UNK         0.0000 
     47 H47        -0.7710   59.2075   15.9135 H         1 UNK         0.0000 
     48 H48        -1.9920   57.9456   15.9234 H         1 UNK         0.0000 
     49 H49        -1.2956   58.4965   17.4454 H         1 UNK         0.0000 
     50 H50         2.8138   54.6650   24.0113 H         1 UNK         0.0000 
     51 H51         3.0305   54.7976   26.4468 H         1 UNK         0.0000 
     52 H52         7.2132   53.9691   26.1485 H         1 UNK         0.0000 
     53 H53         8.2133   53.2963   24.0817 H         1 UNK         0.0000 
     54 H54         7.0943   52.7551   22.8817 H         1 UNK         0.0000 
     55 H55         7.7031   54.4069   22.8139 H         1 UNK         0.0000 
     56 H56         5.7558   53.5492   28.3377 H         1 UNK         0.0000 
     57 H57         5.9041   55.2970   28.2657 H         1 UNK         0.0000 
     58 H58         4.3102   54.5510   28.4685 H         1 UNK         0.0000 
     59 O59        -2.0957   56.0965   18.0817 O.co2     1 UNK         0.0000 
@<TRIPOS>BOND
     1    1    2 1    
     2    1   34 1    
     3    1   35 1    
     4    1   36 1    
     5    2    3 1    
     6    2   37 1    
     7    2   38 1    
     8    3    4 1    
     9    4    5 2    
    10    4    6 1    
    11    6   10 2    
    12    6    7 1    
    13    7    8 2    
    14    7   26 1    
    15    8    9 1    
    16    8   39 1    
    17    9   10 1    
    18   10   11 am   BACKBONE|DICT|INTERRES
    19   11   12 am   BACKBONE|DICT|INTERRES
    20   11   40 1    
    21   12   13 2    
    22   12   14 1    
    23   14   15 1    
    24   14   41 1    
    25   14   42 1    
    26   15   16 1    
    27   16   21 ar   
    28   16   17 ar   
    29   17   18 ar   
    30   17   24 1    
    31   18   19 ar   
    32   18   23 1    
    33   19   20 ar   
    34   19   43 1    
    35   20   21 ar   
    36   20   22 1    
    37   22   44 1    
    38   22   45 1    
    39   22   46 1    
    40   23   47 1    
    41   23   48 1    
    42   23   49 1    
    43   24   25 2    
    44   24   59 1    
    45   26   31 ar   
    46   26   27 ar   
    47   27   28 ar   
    48   27   50 1    
    49   28   29 ar   
    50   28   51 1    
    51   29   30 ar   
    52   29   33 1    
    53   30   31 ar   
    54   30   52 1    
    55   31   32 1    
    56   32   53 1    
    57   32   54 1    
    58   32   55 1    
    59   33   56 1    
    60   33   57 1    
    61   33   58 1    
@<TRIPOS>SUBSTRUCTURE
     1 UNK         1 GROUP             0       ****    0 ROOT    
