@<TRIPOS>MOLECULE
ZINC17089209_2604
52   54    1
SMALL
USER_CHARGES


@<TRIPOS>ATOM
      1 C1          7.0436   55.7792   23.8002 C.3       1 UNK         0.0000 
      2 C2          6.3953   54.5560   23.1539 C.3       1 UNK         0.0000 
      3 C3          7.3310   53.3673   23.3359 C.3       1 UNK         0.0000 
      4 C4          5.0408   54.2380   23.7500 C.2       1 UNK         0.0000 
      5 C5          3.9120   53.6968   23.1454 C.2       1 UNK         0.0000 
      6 C6          2.7960   53.4919   23.9844 C.2       1 UNK         0.0000 
      7 C7          3.1060   53.8441   25.3164 C.2       1 UNK         0.0000 
      8 S8          4.7270   54.4822   25.4291 S.3       1 UNK         0.0000 
      9 N9          2.3067   53.6967   26.4526 N.am      1 UNK         0.0000 
     10 C10         2.5145   54.2279   27.6808 C.2       1 UNK         0.0000 
     11 O11         3.4944   54.8967   28.0042 O.2       1 UNK         0.0000 
     12 C12         1.3819   54.0299   28.7056 C.3       1 UNK         0.0000 
     13 H13         0.4844   54.1901   28.1059 H         1 UNK         0.0000 
     14 C14         1.3709   55.1154   29.8222 C.3       1 UNK         0.0000 
     15 C15         0.5302   54.6628   31.0031 C.2       1 UNK         0.0000 
     16 C16        -0.0956   53.4803   31.1024 C.2       1 UNK         0.0000 
     17 C17        -0.0301   52.3867   30.0481 C.3       1 UNK         0.0000 
     18 C18         1.2619   52.5548   29.1990 C.3       1 UNK         0.0000 
     19 H19         1.1873   51.8489   28.3694 H         1 UNK         0.0000 
     20 C20         2.5353   52.0967   29.9726 C.2       1 UNK         0.0000 
     21 O21         3.5087   51.7357   29.2817 O.co2     1 UNK         0.0000 
     22 C22         1.5817   52.8734   23.4770 C.2       1 UNK         0.0000 
     23 O23         1.6070   52.2165   22.4354 O.2       1 UNK         0.0000 
     24 N24         0.4798   53.0685   24.2324 N.am      1 UNK         0.0000 
     25 C25        -0.8048   52.5152   24.0817 C.ar      1 UNK         0.0000 
     26 C26        -1.6091   52.4967   25.2248 C.ar      1 UNK         0.0000 
     27 C27        -2.8977   51.9738   25.1679 C.ar      1 UNK         0.0000 
     28 C28        -3.3844   51.4697   23.9649 C.ar      1 UNK         0.0000 
     29 C29        -2.5949   51.4869   22.8179 C.ar      1 UNK         0.0000 
     30 C30        -1.3077   52.0141   22.8709 C.ar      1 UNK         0.0000 
     31 H31         6.3049   56.5549   23.9868 H         1 UNK         0.0000 
     32 H32         7.5039   55.5499   24.7623 H         1 UNK         0.0000 
     33 H33         7.8230   56.1594   23.1423 H         1 UNK         0.0000 
     34 H34         6.2879   54.7453   22.0843 H         1 UNK         0.0000 
     35 H35         6.8797   52.4967   22.8817 H         1 UNK         0.0000 
     36 H36         8.3044   53.5388   22.8817 H         1 UNK         0.0000 
     37 H37         7.5044   53.1631   24.3929 H         1 UNK         0.0000 
     38 H38         3.9023   53.4509   22.0922 H         1 UNK         0.0000 
     39 H39         1.4819   53.1291   26.3464 H         1 UNK         0.0000 
     40 H40         1.1044   56.1024   29.4416 H         1 UNK         0.0000 
     41 H41         2.3701   55.2223   30.2460 H         1 UNK         0.0000 
     42 H42         0.4564   55.2967   31.8656 H         1 UNK         0.0000 
     43 H43        -0.6361   53.2967   32.0180 H         1 UNK         0.0000 
     44 H44        -0.0955   51.4093   30.5194 H         1 UNK         0.0000 
     45 H45        -0.9142   52.4553   29.4150 H         1 UNK         0.0000 
     46 H46         0.5946   53.6699   25.0301 H         1 UNK         0.0000 
     47 H47        -1.2421   52.8761   26.1674 H         1 UNK         0.0000 
     48 H48        -3.5140   51.9516   26.0549 H         1 UNK         0.0000 
     49 H49        -4.3827   51.0590   23.9223 H         1 UNK         0.0000 
     50 H50        -2.9804   51.0932   21.8891 H         1 UNK         0.0000 
     51 H51        -0.7245   52.0287   21.9635 H         1 UNK         0.0000 
     52 O52         2.5623   52.1167   31.2231 O.co2     1 UNK         0.0000 
@<TRIPOS>BOND
     1    1    2 1    
     2    1   31 1    
     3    1   32 1    
     4    1   33 1    
     5    2    3 1    
     6    2    4 1    
     7    2   34 1    
     8    3   35 1    
     9    3   36 1    
    10    3   37 1    
    11    4    8 1    
    12    4    5 2    
    13    5    6 1    
    14    5   38 1    
    15    6    7 2    
    16    6   22 1    
    17    7    8 1    
    18    7    9 am   BACKBONE|DICT|INTERRES
    19    9   10 am   BACKBONE|DICT|INTERRES
    20    9   39 1    
    21   10   11 2    
    22   10   12 1    
    23   12   13 1    
    24   12   18 1    
    25   12   14 1    
    26   14   15 1    
    27   14   40 1    
    28   14   41 1    
    29   15   16 2    
    30   15   42 1    
    31   16   17 1    
    32   16   43 1    
    33   17   18 1    
    34   17   44 1    
    35   17   45 1    
    36   18   19 1    
    37   18   20 1    
    38   20   21 2    
    39   20   52 1    
    40   22   23 2    
    41   22   24 am   BACKBONE|DICT|INTERRES
    42   24   25 1    
    43   24   46 1    
    44   25   30 ar   
    45   25   26 ar   
    46   26   27 ar   
    47   26   47 1    
    48   27   28 ar   
    49   27   48 1    
    50   28   29 ar   
    51   28   49 1    
    52   29   30 ar   
    53   29   50 1    
    54   30   51 1    
@<TRIPOS>SUBSTRUCTURE
     1 UNK         1 GROUP             0       ****    0 ROOT    
