@<TRIPOS>MOLECULE
ZINC09236947_4118
49   53    1
SMALL
USER_CHARGES


@<TRIPOS>ATOM
      1 C1          5.8594   54.4941   26.9731 C.ar      1 UNK         0.0000 
      2 C2          4.7845   54.6017   26.0983 C.ar      1 UNK         0.0000 
      3 C3          3.5443   54.0884   26.4646 C.ar      1 UNK         0.0000 
      4 C4          3.3713   53.4474   27.7019 C.ar      1 UNK         0.0000 
      5 C5          4.4616   53.3661   28.5784 C.ar      1 UNK         0.0000 
      6 C6          5.7018   53.8836   28.2138 C.ar      1 UNK         0.0000 
      7 C7          2.0570   52.8441   28.1197 C.ar      1 UNK         0.0000 
      8 N8          1.6434   52.7864   29.3649 N.2       1 UNK         0.0000 
      9 N9          0.3580   52.2522   29.3669 N.2       1 UNK         0.0000 
     10 C10         0.0253   52.0171   28.1240 C.ar      1 UNK         0.0000 
     11 N11         1.0595   52.3735   27.2858 N.pl3     1 UNK         0.0000 
     12 N12         1.1018   52.2656   25.9036 N.3       1 UNK         0.0000 
     13 C13         0.3256   51.1454   25.3718 C.3       1 UNK         0.0000 
     14 H14         0.6795   50.2305   25.8538 H         1 UNK         0.0000 
     15 C15        -1.1789   51.3287   25.7493 C.3       1 UNK         0.0000 
     16 H16        -1.5482   52.2813   25.3638 H         1 UNK         0.0000 
     17 S17        -1.5088   51.3389   27.5589 S.3       1 UNK         0.0000 
     18 C18        -2.0880   50.2496   25.1048 C.2       1 UNK         0.0000 
     19 O19        -2.7112   50.5775   24.0943 O.2       1 UNK         0.0000 
     20 N20        -2.1716   49.0216   25.6814 N.am      1 UNK         0.0000 
     21 C21        -2.9748   47.9166   25.3198 C.ar      1 UNK         0.0000 
     22 C22        -3.7056   47.8184   24.1230 C.ar      1 UNK         0.0000 
     23 C23        -4.5164   46.7110   23.8863 C.ar      1 UNK         0.0000 
     24 C24        -4.5981   45.6961   24.8351 C.ar      1 UNK         0.0000 
     25 C25        -3.8642   45.7718   26.0143 C.ar      1 UNK         0.0000 
     26 C26        -3.0474   46.8704   26.2465 C.ar      1 UNK         0.0000 
     27 Br27       -5.6964   44.1795   24.5037 Br        1 UNK         0.0000 
     28 C28         0.6068   50.9940   23.8711 C.ar      1 UNK         0.0000 
     29 C29         0.4848   52.0916   23.0108 C.ar      1 UNK         0.0000 
     30 C30         0.8158   51.9671   21.6648 C.ar      1 UNK         0.0000 
     31 C31         1.2589   50.7420   21.1760 C.ar      1 UNK         0.0000 
     32 C32         1.3648   49.6378   22.0186 C.ar      1 UNK         0.0000 
     33 C33         1.0300   49.7599   23.3656 C.ar      1 UNK         0.0000 
     34 H34         6.8206   54.8986   26.6966 H         1 UNK         0.0000 
     35 H35         4.9081   55.0904   25.1419 H         1 UNK         0.0000 
     36 H36         2.7235   54.2086   25.7762 H         1 UNK         0.0000 
     37 H37         4.3555   52.8802   29.5371 H         1 UNK         0.0000 
     38 H38         6.5455   53.8079   28.8826 H         1 UNK         0.0000 
     39 H39         2.0680   52.1017   25.6574 H         1 UNK         0.0000 
     40 H40        -1.6963   48.9033   26.5762 H         1 UNK         0.0000 
     41 H41        -3.6715   48.5806   23.3650 H         1 UNK         0.0000 
     42 H42        -5.0830   46.6466   22.9699 H         1 UNK         0.0000 
     43 H43        -3.9253   44.9878   26.7565 H         1 UNK         0.0000 
     44 H44        -2.4955   46.8965   27.1741 H         1 UNK         0.0000 
     45 H45         0.1566   53.0499   23.3906 H         1 UNK         0.0000 
     46 H46         0.7447   52.8215   21.0062 H         1 UNK         0.0000 
     47 H47         1.5294   50.6478   20.1340 H         1 UNK         0.0000 
     48 H48         1.7153   48.6945   21.6274 H         1 UNK         0.0000 
     49 H49         1.1226   48.8986   24.0126 H         1 UNK         0.0000 
@<TRIPOS>BOND
     1    1    6 ar   
     2    1    2 ar   
     3    1   34 1    
     4    2    3 ar   
     5    2   35 1    
     6    3    4 ar   
     7    3   36 1    
     8    4    5 ar   
     9    4    7 1    
    10    5    6 ar   
    11    5   37 1    
    12    6   38 1    
    13    7   11 ar   
    14    7    8 ar   
    15    8    9 ar   
    16    9   10 ar   
    17   10   17 1    
    18   10   11 ar   
    19   11   12 1    
    20   12   13 1    
    21   12   39 1    
    22   13   14 1    
    23   13   15 1    
    24   13   28 1    
    25   15   16 1    
    26   15   17 1    
    27   15   18 1    
    28   18   19 2    
    29   18   20 am   BACKBONE|DICT|INTERRES
    30   20   21 1    
    31   20   40 1    
    32   21   26 ar   
    33   21   22 ar   
    34   22   23 ar   
    35   22   41 1    
    36   23   24 ar   
    37   23   42 1    
    38   24   25 ar   
    39   24   27 1    
    40   25   26 ar   
    41   25   43 1    
    42   26   44 1    
    43   28   33 ar   
    44   28   29 ar   
    45   29   30 ar   
    46   29   45 1    
    47   30   31 ar   
    48   30   46 1    
    49   31   32 ar   
    50   31   47 1    
    51   32   33 ar   
    52   32   48 1    
    53   33   49 1    
@<TRIPOS>SUBSTRUCTURE
     1 UNK         1 GROUP             0       ****    0 ROOT    
