@<TRIPOS>MOLECULE
ZINC12401671_469
58   62    1
SMALL
USER_CHARGES


@<TRIPOS>ATOM
      1 C1          4.7869   53.7166   26.1766 C.3       1 UNK         0.0000 
      2 C2          5.5884   54.7424   25.3557 C.3       1 UNK         0.0000 
      3 C3          6.7066   55.3424   26.2115 C.3       1 UNK         0.0000 
      4 S4          6.2588   54.1048   23.7806 S.3       1 UNK         0.0000 
      5 C5          4.7706   53.7141   22.9206 C.2       1 UNK         0.0000 
      6 N6          3.5916   54.2454   23.1434 N.2       1 UNK         0.0000 
      7 N7          2.5869   53.6953   22.3634 N.2       1 UNK         0.0000 
      8 C8          3.0322   52.7607   21.5552 C.2       1 UNK         0.0000 
      9 S9          4.7475   52.4979   21.6813 S.3       1 UNK         0.0000 
     10 N10         2.2392   51.9347   20.7641 N.pl3     1 UNK         0.0000 
     11 C11         2.3053   52.0320   19.3570 C.2       1 UNK         0.0000 
     12 C12         1.4581   51.2973   18.5647 C.2       1 UNK         0.0000 
     13 C13         1.5100   51.4193   17.0749 C.2       1 UNK         0.0000 
     14 O14         0.6261   51.0007   16.3283 O.2       1 UNK         0.0000 
     15 C15         2.6732   52.2226   16.4878 C.3       1 UNK         0.0000 
     16 C16         2.9764   53.4967   17.3026 C.3       1 UNK         0.0000 
     17 C17         3.3239   53.0343   18.7454 C.3       1 UNK         0.0000 
     18 C18         1.7542   54.4540   17.2846 C.3       1 UNK         0.0000 
     19 C19         4.2345   54.1462   16.6885 C.3       1 UNK         0.0000 
     20 C20         0.3762   50.3444   19.1783 C.3       1 UNK         0.0000 
     21 C21         0.3012   48.9887   18.5221 C.ar      1 UNK         0.0000 
     22 C22         1.2698   47.9979   18.3358 C.ar      1 UNK         0.0000 
     23 C23         0.9219   46.8186   17.6724 C.ar      1 UNK         0.0000 
     24 C24        -0.3834   46.6314   17.2033 C.ar      1 UNK         0.0000 
     25 C25        -1.3472   47.6275   17.3880 C.ar      1 UNK         0.0000 
     26 C26        -0.9841   48.8024   18.0462 C.ar      1 UNK         0.0000 
     27 N27        -1.7446   49.9328   18.3116 N.am      1 UNK         0.0000 
     28 C28        -1.0557   50.9035   18.9436 C.2       1 UNK         0.0000 
     29 O29        -1.4848   52.0097   19.2796 O.2       1 UNK         0.0000 
     30 C30         0.5573   50.2151   20.7012 C.2       1 UNK         0.0000 
     31 C31         1.4277   50.9763   21.3951 C.2       1 UNK         0.0000 
     32 N32         1.5849   50.8132   22.7618 N.pl3     1 UNK         0.0000 
     33 C33        -0.2405   49.2517   21.4033 C.1       1 UNK         0.0000 
     34 N34        -0.8966   48.4961   21.9842 N.1       1 UNK         0.0000 
     35 H35         4.3642   54.1727   27.0725 H         1 UNK         0.0000 
     36 H36         5.4254   52.8968   26.5001 H         1 UNK         0.0000 
     37 H37         3.9536   53.2974   25.6156 H         1 UNK         0.0000 
     38 H38         4.9122   55.5596   25.0998 H         1 UNK         0.0000 
     39 H39         6.3306   55.6963   27.1721 H         1 UNK         0.0000 
     40 H40         7.4791   54.6012   26.4188 H         1 UNK         0.0000 
     41 H41         7.1576   56.1897   25.6953 H         1 UNK         0.0000 
     42 H42         2.4683   52.4377   15.4389 H         1 UNK         0.0000 
     43 H43         3.5348   51.5542   16.5031 H         1 UNK         0.0000 
     44 H44         3.3734   53.9558   19.3272 H         1 UNK         0.0000 
     45 H45         4.2988   52.5458   18.7973 H         1 UNK         0.0000 
     46 H46         1.3936   54.6143   16.2684 H         1 UNK         0.0000 
     47 H47         0.9142   54.0809   17.8722 H         1 UNK         0.0000 
     48 H48         2.0160   55.4336   17.6840 H         1 UNK         0.0000 
     49 H49         4.0552   54.4635   15.6605 H         1 UNK         0.0000 
     50 H50         4.5368   55.0307   17.2494 H         1 UNK         0.0000 
     51 H51         5.0842   53.4614   16.6775 H         1 UNK         0.0000 
     52 H52         2.2849   48.1419   18.6816 H         1 UNK         0.0000 
     53 H53         1.6696   46.0564   17.5105 H         1 UNK         0.0000 
     54 H54        -0.6434   45.7209   16.6839 H         1 UNK         0.0000 
     55 H55        -2.3487   47.4825   17.0094 H         1 UNK         0.0000 
     56 H56        -2.7054   50.0487   18.0268 H         1 UNK         0.0000 
     57 H57         1.0743   50.1019   23.2667 H         1 UNK         0.0000 
     58 H58         2.2178   51.3977   23.2862 H         1 UNK         0.0000 
@<TRIPOS>BOND
     1    1    2 1    
     2    1   35 1    
     3    1   36 1    
     4    1   37 1    
     5    2    3 1    
     6    2    4 1    
     7    2   38 1    
     8    3   39 1    
     9    3   40 1    
    10    3   41 1    
    11    4    5 1    
    12    5    9 1    
    13    5    6 2    
    14    6    7 1    
    15    7    8 2    
    16    8    9 1    
    17    8   10 1    
    18   10   31 1    
    19   10   11 1    
    20   11   17 1    
    21   11   12 2    
    22   12   13 1    
    23   12   20 1    
    24   13   14 2    
    25   13   15 1    
    26   15   16 1    
    27   15   42 1    
    28   15   43 1    
    29   16   17 1    
    30   16   18 1    
    31   16   19 1    
    32   17   44 1    
    33   17   45 1    
    34   18   46 1    
    35   18   47 1    
    36   18   48 1    
    37   19   49 1    
    38   19   50 1    
    39   19   51 1    
    40   20   28 1    
    41   20   21 1    
    42   20   30 1    
    43   21   26 ar   
    44   21   22 ar   
    45   22   23 ar   
    46   22   52 1    
    47   23   24 ar   
    48   23   53 1    
    49   24   25 ar   
    50   24   54 1    
    51   25   26 ar   
    52   25   55 1    
    53   26   27 1    
    54   27   28 am   BACKBONE|DICT|INTERRES
    55   27   56 1    
    56   28   29 2    
    57   30   31 2    
    58   30   33 1    
    59   31   32 1    
    60   32   57 1    
    61   32   58 1    
    62   33   34 3    
@<TRIPOS>SUBSTRUCTURE
     1 UNK         1 GROUP             0       ****    0 ROOT    
