ZINC46914827_3143
                    3D
 Schrodinger Suite 2024-2.
 59 62  0  0  1  0            999 V2000
    3.4659   52.3530   30.7554 C   0  0  0  0  0  0
    3.4003   53.6955   30.2894 O   0  0  0  0  0  0
    3.8573   53.8726   29.0068 C   0  0  0  0  0  0
    5.1038   54.4673   28.8274 C   0  0  0  0  0  0
    5.6216   54.6433   27.5492 C   0  0  0  0  0  0
    4.8870   54.2674   26.4171 C   0  0  0  0  0  0
    3.6178   53.6978   26.6075 C   0  0  0  0  0  0
    3.0882   53.4952   27.8958 C   0  0  0  0  0  0
    1.8393   52.9510   28.1450 O   0  0  0  0  0  0
    1.0297   52.4961   27.0683 C   0  0  0  0  0  0
    5.4506   54.4975   25.0406 C   0  0  0  0  0  0
    4.8388   54.0966   23.9407 N   0  0  0  0  0  0
    5.6490   54.4971   22.9946 C   0  0  0  0  0  0
    6.7315   55.1516   23.4723 O   0  0  0  0  0  0
    6.5920   55.1314   24.8560 N   0  0  0  0  0  0
    5.4680   54.3955   21.5403 C   0  0  0  0  0  0
    4.4229   53.7556   20.8818 C   0  0  0  0  0  0
    4.6801   53.9227   19.5387 N   0  0  0  0  0  0
    5.8040   54.6118   19.3230 N   0  0  0  0  0  0
    6.2964   54.8965   20.5087 C   0  0  0  0  0  0
    7.8591   55.6968   20.6777 S   0  0  0  0  0  0
    8.6464   55.2522   19.0953 C   0  0  0  0  0  0
    3.9016   53.4595   18.3842 C   0  0  0  0  0  0
    3.1045   54.5703   17.6812 C   0  0  0  0  0  0
    3.5920   55.6964   17.5788 O   0  0  0  0  0  0
    1.8755   54.2248   17.2459 N   0  0  0  0  0  0
    0.8818   55.0421   16.6732 C   0  0  0  0  0  0
   -0.4195   54.5300   16.6723 C   0  0  0  0  0  0
   -1.4734   55.2741   16.1432 C   0  0  0  0  0  0
   -1.2367   56.5361   15.6037 C   0  0  0  0  0  0
    0.0599   57.0573   15.5839 C   0  0  0  0  0  0
    1.1132   56.3130   16.1167 C   0  0  0  0  0  0
    0.4028   58.6508   14.8894 S   0  0  0  0  0  0
   -1.1518   59.4045   14.3374 C   0  0  0  0  0  0
    3.3281   53.0792   21.3527 N   0  0  0  0  0  0
    3.1490   52.3110   31.7970 H   0  0  0  0  0  0
    2.8066   51.6962   30.1847 H   0  0  0  0  0  0
    4.4830   51.9594   30.7010 H   0  0  0  0  0  0
    5.6849   54.7869   29.6820 H   0  0  0  0  0  0
    6.5991   55.0948   27.4548 H   0  0  0  0  0  0
    3.0444   53.4120   25.7401 H   0  0  0  0  0  0
    0.0937   52.1022   27.4643 H   0  0  0  0  0  0
    0.7862   53.2966   26.3746 H   0  0  0  0  0  0
    1.5086   51.6961   26.5136 H   0  0  0  0  0  0
    9.6792   55.6011   19.0861 H   0  0  0  0  0  0
    8.6521   54.1718   18.9407 H   0  0  0  0  0  0
    8.1327   55.7331   18.2606 H   0  0  0  0  0  0
    3.2430   52.6575   18.7149 H   0  0  0  0  0  0
    4.5844   53.0010   17.6683 H   0  0  0  0  0  0
    1.5905   53.2763   17.4333 H   0  0  0  0  0  0
   -0.6252   53.5533   17.0873 H   0  0  0  0  0  0
   -2.4751   54.8712   16.1464 H   0  0  0  0  0  0
   -2.0643   57.0911   15.1945 H   0  0  0  0  0  0
    2.1024   56.7405   16.0743 H   0  0  0  0  0  0
   -0.9579   60.3925   13.9206 H   0  0  0  0  0  0
   -1.6191   58.7961   13.5637 H   0  0  0  0  0  0
   -1.8436   59.5177   15.1714 H   0  0  0  0  0  0
    3.1728   52.9746   22.3449 H   0  0  0  0  0  0
    2.5996   52.7500   20.7407 H   0  0  0  0  0  0
  1  2  1  0  0  0
  1 36  1  0  0  0
  1 37  1  0  0  0
  1 38  1  0  0  0
  2  3  1  0  0  0
  3  8  2  0  0  0
  3  4  1  0  0  0
  4  5  2  0  0  0
  4 39  1  0  0  0
  5  6  1  0  0  0
  5 40  1  0  0  0
  6  7  2  0  0  0
  6 11  1  0  0  0
  7  8  1  0  0  0
  7 41  1  0  0  0
  8  9  1  0  0  0
  9 10  1  0  0  0
 10 42  1  0  0  0
 10 43  1  0  0  0
 10 44  1  0  0  0
 11 15  2  0  0  0
 11 12  1  0  0  0
 12 13  2  0  0  0
 13 14  1  0  0  0
 13 16  1  0  0  0
 14 15  1  0  0  0
 16 20  1  0  0  0
 16 17  2  0  0  0
 17 18  1  0  0  0
 17 35  1  0  0  0
 18 19  1  0  0  0
 18 23  1  0  0  0
 19 20  2  0  0  0
 20 21  1  0  0  0
 21 22  1  0  0  0
 22 45  1  0  0  0
 22 46  1  0  0  0
 22 47  1  0  0  0
 23 24  1  0  0  0
 23 48  1  0  0  0
 23 49  1  0  0  0
 24 25  2  0  0  0
 24 26  1  0  0  0
 26 27  1  0  0  0
 26 50  1  0  0  0
 27 32  2  0  0  0
 27 28  1  0  0  0
 28 29  2  0  0  0
 28 51  1  0  0  0
 29 30  1  0  0  0
 29 52  1  0  0  0
 30 31  2  0  0  0
 30 53  1  0  0  0
 31 32  1  0  0  0
 31 33  1  0  0  0
 32 54  1  0  0  0
 33 34  1  0  0  0
 34 55  1  0  0  0
 34 56  1  0  0  0
 34 57  1  0  0  0
 35 58  1  0  0  0
 35 59  1  0  0  0
M  END
> <i_i_glide_confnum>
79

> <i_i_glide_lignum>
3144

> <i_i_glide_posenum>
243

> <i_i_glide_rotatable_bonds>
10

> <i_m_Source_File_Index>
530

> <b_m_subgroup_collapsed>
0

> <r_i_docking_score>
-5.82184

> <r_i_glide_ecoul>
-3.88142

> <r_i_glide_eff_state_penalty>
0

> <r_i_glide_einternal>
8.28846

> <r_i_glide_emodel>
-68.3902

> <r_i_glide_energy>
-52.2283

> <r_i_glide_erotb>
0.468114

> <r_i_glide_esite>
-0.0229784

> <r_i_glide_evdw>
-48.3469

> <r_i_glide_gscore>
-5.82184

> <r_i_glide_hbond>
-0.32

> <r_i_glide_ligand_efficiency>
-0.166338

> <r_i_glide_ligand_efficiency_ln>
-1.27802

> <r_i_glide_ligand_efficiency_sa>
-0.544104

> <r_i_glide_lipo>
-2.44219

> <r_i_glide_metal>
0

> <r_i_glide_rewards>
-0.50523

> <s_i_glide_gridfile>
wee1_glide-grid

> <s_m_Source_File>
wee1_decoys_glide_SP.sdf

> <s_m_Source_Path>
/Users/zhangxujun/Desktop

> <s_m_entry_id>
805

> <s_m_entry_name>
wee1_decoys_glide_SP.530

> <s_m_subgroup_title>
wee1_decoys_glide_SP

> <s_m_subgroupid>
wee1_decoys_glide_SP


$$$$
