ZINC14461383_4553
                    3D
 Schrodinger Suite 2024-2.
 66 70  0  0  1  0            999 V2000
   -3.3414   50.8989   28.5692 C   0  0  0  0  0  0
   -2.0764   51.3163   27.7923 C   0  0  0  0  0  0
   -1.0174   52.0950   28.6357 N   0  3  0  0  0  0
   -0.5848   51.3028   29.8844 C   0  0  0  0  0  0
    0.1951   52.1842   30.8816 C   0  0  0  0  0  0
    0.1362   52.6350   27.8465 C   0  0  0  0  0  0
    0.7739   53.7999   28.2826 C   0  0  0  0  0  0
    1.8650   54.2883   27.5626 C   0  0  0  0  0  0
    2.2801   53.6509   26.3852 C   0  0  0  0  0  0
    1.6070   52.4967   25.9697 C   0  0  0  0  0  0
    0.5613   51.9660   26.7004 C   0  0  0  0  0  0
    3.4128   54.2157   25.5088 C   0  0  1  0  0  0
    3.3725   55.3002   25.5968 H   0  0  0  0  0  0
    4.8325   53.7403   25.9494 C   0  0  2  0  0  0
    4.7881   52.6711   26.0820 H   0  0  0  0  0  0
    5.3052   54.2648   27.3066 C   0  0  0  0  0  0
    6.3336   55.2967   26.9347 C   0  0  0  0  0  0
    6.6394   55.2752   25.6280 C   0  0  0  0  0  0
    5.9684   54.1067   24.9558 C   0  0  2  0  0  0
    6.6959   53.2971   24.9076 H   0  0  0  0  0  0
    5.5179   54.3373   23.5110 C   0  0  0  0  0  0
    6.4135   54.7311   22.5035 C   0  0  0  0  0  0
    6.0107   54.8356   21.1622 C   0  0  0  0  0  0
    4.7055   54.4965   20.8156 C   0  0  0  0  0  0
    3.7915   54.1587   21.8047 C   0  0  0  0  0  0
    4.1885   54.0968   23.1373 C   0  0  0  0  0  0
    3.1889   53.8967   24.0929 N   0  0  0  0  0  0
    7.1855   55.2969   19.8811 S   0  0  0  0  0  0
    8.4157   55.6971   20.5707 O   0  0  0  0  0  0
    7.2070   54.2253   18.8813 O   0  0  0  0  0  0
    6.5746   56.7726   19.0964 N   0  0  0  0  0  0
    5.7012   56.8499   17.9989 C   0  0  0  0  0  0
    5.5048   58.1183   17.4479 C   0  0  0  0  0  0
    4.6317   58.3026   16.3800 C   0  0  0  0  0  0
    3.9620   57.2073   15.8446 C   0  0  0  0  0  0
    4.1645   55.9321   16.3658 C   0  0  0  0  0  0
    5.0337   55.7525   17.4395 C   0  0  0  0  0  0
   -4.0861   50.5026   27.8774 H   0  0  0  0  0  0
   -3.8068   51.7201   29.1059 H   0  0  0  0  0  0
   -3.1431   50.0960   29.2810 H   0  0  0  0  0  0
   -1.5839   50.4345   27.3853 H   0  0  0  0  0  0
   -2.3256   51.9929   26.9735 H   0  0  0  0  0  0
   -1.4705   50.8974   30.3718 H   0  0  0  0  0  0
   -0.0092   50.4970   29.4328 H   0  0  0  0  0  0
    0.3047   51.6964   31.8496 H   0  0  0  0  0  0
    1.1989   52.4162   30.5292 H   0  0  0  0  0  0
   -0.3274   53.1185   31.0849 H   0  0  0  0  0  0
    0.4390   54.3299   29.1629 H   0  0  0  0  0  0
    2.3450   55.1977   27.8913 H   0  0  0  0  0  0
    1.9052   51.9793   25.0708 H   0  0  0  0  0  0
    0.1112   51.0530   26.3424 H   0  0  0  0  0  0
    4.5125   54.7209   27.8940 H   0  0  0  0  0  0
    5.7536   53.4784   27.9165 H   0  0  0  0  0  0
    6.7045   55.9854   27.6785 H   0  0  0  0  0  0
    7.3390   55.9151   25.1087 H   0  0  0  0  0  0
    7.4441   54.9286   22.7666 H   0  0  0  0  0  0
    4.3686   54.5341   19.7937 H   0  0  0  0  0  0
    2.7652   53.9643   21.5271 H   0  0  0  0  0  0
    2.2218   53.9344   23.8091 H   0  0  0  0  0  0
    6.9811   57.6407   19.3994 H   0  0  0  0  0  0
    6.0096   58.9844   17.8524 H   0  0  0  0  0  0
    4.4766   59.2937   15.9771 H   0  0  0  0  0  0
    3.2856   57.3487   15.0148 H   0  0  0  0  0  0
    3.6522   55.0824   15.9390 H   0  0  0  0  0  0
    5.1716   54.7496   17.8038 H   0  0  0  0  0  0
   -1.5393   52.8795   28.9964 H   0  0  0  0  0  0
  1  2  1  0  0  0
  1 38  1  0  0  0
  1 39  1  0  0  0
  1 40  1  0  0  0
  2  3  1  0  0  0
  2 41  1  0  0  0
  2 42  1  0  0  0
  3  4  1  0  0  0
  3  6  1  0  0  0
  3 66  1  0  0  0
  4  5  1  0  0  0
  4 43  1  0  0  0
  4 44  1  0  0  0
  5 45  1  0  0  0
  5 46  1  0  0  0
  5 47  1  0  0  0
  6 11  2  0  0  0
  6  7  1  0  0  0
  7  8  2  0  0  0
  7 48  1  0  0  0
  8  9  1  0  0  0
  8 49  1  0  0  0
  9 10  2  0  0  0
  9 12  1  0  0  0
 10 11  1  0  0  0
 10 50  1  0  0  0
 11 51  1  0  0  0
 12 13  1  0  0  0
 12 27  1  0  0  0
 12 14  1  0  0  0
 14 15  1  0  0  0
 14 19  1  0  0  0
 14 16  1  0  0  0
 16 17  1  0  0  0
 16 52  1  0  0  0
 16 53  1  0  0  0
 17 18  2  0  0  0
 17 54  1  0  0  0
 18 19  1  0  0  0
 18 55  1  0  0  0
 19 20  1  0  0  0
 19 21  1  0  0  0
 21 26  2  0  0  0
 21 22  1  0  0  0
 22 23  2  0  0  0
 22 56  1  0  0  0
 23 24  1  0  0  0
 23 28  1  0  0  0
 24 25  2  0  0  0
 24 57  1  0  0  0
 25 26  1  0  0  0
 25 58  1  0  0  0
 26 27  1  0  0  0
 27 59  1  0  0  0
 28 29  2  0  0  0
 28 30  2  0  0  0
 28 31  1  0  0  0
 31 32  1  0  0  0
 31 60  1  0  0  0
 32 37  2  0  0  0
 32 33  1  0  0  0
 33 34  2  0  0  0
 33 61  1  0  0  0
 34 35  1  0  0  0
 34 62  1  0  0  0
 35 36  2  0  0  0
 35 63  1  0  0  0
 36 37  1  0  0  0
 36 64  1  0  0  0
 37 65  1  0  0  0
M  CHG  1   3   1
M  END
> <i_i_glide_confnum>
21

> <i_i_glide_lignum>
4554

> <i_i_glide_posenum>
221

> <i_i_glide_rotatable_bonds>
7

> <i_m_Source_File_Index>
2318

> <b_m_subgroup_collapsed>
0

> <r_i_docking_score>
-4.66235

> <r_i_glide_ecoul>
-1.67495

> <r_i_glide_eff_state_penalty>
0

> <r_i_glide_einternal>
4.91098

> <r_i_glide_emodel>
-46.6425

> <r_i_glide_energy>
-37.2845

> <r_i_glide_erotb>
0.449136

> <r_i_glide_esite>
-0.0407896

> <r_i_glide_evdw>
-35.6095

> <r_i_glide_gscore>
-4.66235

> <r_i_glide_hbond>
0

> <r_i_glide_ligand_efficiency>
-0.137128

> <r_i_glide_ligand_efficiency_ln>
-1.03004

> <r_i_glide_ligand_efficiency_sa>
-0.444242

> <r_i_glide_lipo>
-3.4535

> <r_i_glide_metal>
0

> <r_i_glide_rewards>
0.414522

> <s_i_glide_gridfile>
wee1_glide-grid

> <s_m_Source_File>
wee1_decoys_glide_SP.sdf

> <s_m_Source_Path>
/Users/zhangxujun/Desktop

> <s_m_entry_id>
2593

> <s_m_entry_name>
wee1_decoys_glide_SP.2318

> <s_m_subgroup_title>
wee1_decoys_glide_SP

> <s_m_subgroupid>
wee1_decoys_glide_SP


$$$$
