ZINC09281352_2740
                    3D
 Schrodinger Suite 2024-2.
 52 56  0  0  1  0            999 V2000
   -5.0665   48.1704   22.0654 C   0  0  0  0  0  0
   -5.2426   49.6925   21.9275 C   0  0  0  0  0  0
   -5.3597   50.3731   23.3022 C   0  0  0  0  0  0
   -4.1890   50.3108   21.0024 C   0  0  0  0  0  0
   -2.8450   50.7501   21.2202 C   0  0  0  0  0  0
   -2.4745   51.2069   19.9683 C   0  0  0  0  0  0
   -3.5170   51.0429   19.1193 N   0  0  0  0  0  0
   -3.5155   51.2672   18.1346 H   0  0  0  0  0  0
   -4.5572   50.4918   19.7405 N   0  0  0  0  0  0
   -1.2737   51.7158   19.5544 O   0  0  0  0  0  0
   -0.3051   51.6732   20.5079 C   0  0  0  0  0  0
   -0.4499   51.2557   21.7926 C   0  0  0  0  0  0
   -1.8171   50.8017   22.3772 C   0  0  2  0  0  0
   -1.7374   49.5163   23.1403 C   0  0  0  0  0  0
   -1.4931   48.2058   22.7257 C   0  0  0  0  0  0
   -1.4807   47.1809   23.6738 C   0  0  0  0  0  0
   -1.6900   47.4652   25.0255 C   0  0  0  0  0  0
   -1.9220   48.7787   25.4321 C   0  0  0  0  0  0
   -1.9363   49.7959   24.4796 C   0  0  0  0  0  0
   -2.2043   51.1526   24.6487 N   0  0  0  0  0  0
   -2.2246   51.8194   23.4672 C   0  0  0  0  0  0
   -2.4922   53.0077   23.2815 O   0  0  0  0  0  0
   -2.4114   51.8348   25.9342 C   0  0  0  0  0  0
   -1.1722   51.9287   26.8238 C   0  0  0  0  0  0
   -1.2956   51.6953   28.1957 C   0  0  0  0  0  0
   -0.1828   51.7859   29.0271 C   0  0  0  0  0  0
    1.0610   52.1002   28.4842 C   0  0  0  0  0  0
    1.1951   52.3277   27.1162 C   0  0  0  0  0  0
    0.0803   52.2414   26.2868 C   0  0  0  0  0  0
    2.4450   52.2062   29.5112 Cl  0  0  0  0  0  0
    0.7081   51.2433   22.6319 C   0  0  0  0  0  0
    1.6628   51.2509   23.2839 N   0  0  0  0  0  0
    0.8541   52.0969   19.9178 N   0  0  0  0  0  0
   -5.0523   47.6811   21.0908 H   0  0  0  0  0  0
   -5.8834   47.7318   22.6401 H   0  0  0  0  0  0
   -4.1441   47.9158   22.5816 H   0  0  0  0  0  0
   -6.2253   49.8326   21.4702 H   0  0  0  0  0  0
   -5.3655   51.4605   23.2259 H   0  0  0  0  0  0
   -6.2843   50.0791   23.8003 H   0  0  0  0  0  0
   -4.5526   50.0810   23.9668 H   0  0  0  0  0  0
   -1.3242   47.9764   21.6838 H   0  0  0  0  0  0
   -1.2989   46.1659   23.3579 H   0  0  0  0  0  0
   -1.6642   46.6793   25.7668 H   0  0  0  0  0  0
   -2.0923   48.9868   26.4800 H   0  0  0  0  0  0
   -2.7900   52.8477   25.7871 H   0  0  0  0  0  0
   -3.1868   51.2885   26.4728 H   0  0  0  0  0  0
   -2.2507   51.4285   28.6251 H   0  0  0  0  0  0
   -0.2898   51.6022   30.0869 H   0  0  0  0  0  0
    2.1609   52.5673   26.6961 H   0  0  0  0  0  0
    0.1914   52.4278   25.2296 H   0  0  0  0  0  0
    1.6806   52.2873   20.4664 H   0  0  0  0  0  0
    0.9600   52.0684   18.9142 H   0  0  0  0  0  0
  1  2  1  0  0  0
  1 34  1  0  0  0
  1 35  1  0  0  0
  1 36  1  0  0  0
  2  3  1  0  0  0
  2  4  1  0  0  0
  2 37  1  0  0  0
  3 38  1  0  0  0
  3 39  1  0  0  0
  3 40  1  0  0  0
  4  9  2  0  0  0
  4  5  1  0  0  0
  5 13  1  0  0  0
  5  6  2  0  0  0
  6  7  1  0  0  0
  6 10  1  0  0  0
  7  8  1  0  0  0
  7  9  1  0  0  0
 10 11  1  0  0  0
 11 12  2  0  0  0
 11 33  1  0  0  0
 12 13  1  0  0  0
 12 31  1  0  0  0
 13 21  1  0  0  0
 13 14  1  0  0  0
 14 19  2  0  0  0
 14 15  1  0  0  0
 15 16  2  0  0  0
 15 41  1  0  0  0
 16 17  1  0  0  0
 16 42  1  0  0  0
 17 18  2  0  0  0
 17 43  1  0  0  0
 18 19  1  0  0  0
 18 44  1  0  0  0
 19 20  1  0  0  0
 20 21  1  0  0  0
 20 23  1  0  0  0
 21 22  2  0  0  0
 23 24  1  0  0  0
 23 45  1  0  0  0
 23 46  1  0  0  0
 24 29  2  0  0  0
 24 25  1  0  0  0
 25 26  2  0  0  0
 25 47  1  0  0  0
 26 27  1  0  0  0
 26 48  1  0  0  0
 27 28  2  0  0  0
 27 30  1  0  0  0
 28 29  1  0  0  0
 28 49  1  0  0  0
 29 50  1  0  0  0
 31 32  3  0  0  0
 33 51  1  0  0  0
 33 52  1  0  0  0
M  END
> <i_i_glide_confnum>
5

> <i_i_glide_lignum>
2741

> <i_i_glide_posenum>
394

> <i_i_glide_rotatable_bonds>
4

> <i_m_Source_File_Index>
1020

> <b_m_subgroup_collapsed>
0

> <r_i_docking_score>
-2.73245

> <r_i_glide_ecoul>
-4.14299

> <r_i_glide_eff_state_penalty>
0

> <r_i_glide_einternal>
2.91393

> <r_i_glide_emodel>
-37.1313

> <r_i_glide_energy>
-32.595

> <r_i_glide_erotb>
0.2013

> <r_i_glide_esite>
-0.0347105

> <r_i_glide_evdw>
-28.452

> <r_i_glide_gscore>
-2.73245

> <r_i_glide_hbond>
0

> <r_i_glide_ligand_efficiency>
-0.085389

> <r_i_glide_ligand_efficiency_ln>
-0.611869

> <r_i_glide_ligand_efficiency_sa>
-0.271093

> <r_i_glide_lipo>
-0.392012

> <r_i_glide_metal>
0

> <r_i_glide_rewards>
-0.462977

> <s_i_glide_gridfile>
wee1_glide-grid

> <s_m_Source_File>
wee1_decoys_glide_SP.sdf

> <s_m_Source_Path>
/Users/zhangxujun/Desktop

> <s_m_entry_id>
1295

> <s_m_entry_name>
wee1_decoys_glide_SP.1020

> <s_m_subgroup_title>
wee1_decoys_glide_SP

> <s_m_subgroupid>
wee1_decoys_glide_SP


$$$$
