@<TRIPOS>MOLECULE
ZINC15550730_159
62   65    1
SMALL
USER_CHARGES


@<TRIPOS>ATOM
      1 C1          7.1044   54.9126   23.1122 C.3       1 UNK         0.0000 
      2 O2          5.8949   54.5852   23.7620 O.3       1 UNK         0.0000 
      3 C3          5.7806   54.5858   25.1113 C.2       1 UNK         0.0000 
      4 O4          6.6993   54.9030   25.8730 O.2       1 UNK         0.0000 
      5 C5          4.4228   54.1617   25.5486 C.2       1 UNK         0.0000 
      6 C6          4.0188   54.0451   26.9138 C.2       1 UNK         0.0000 
      7 C7          2.6924   53.6080   27.0655 C.2       1 UNK         0.0000 
      8 S8          1.9198   53.2971   25.5623 S.3       1 UNK         0.0000 
      9 C9          3.3563   53.7656   24.6952 C.2       1 UNK         0.0000 
     10 N10         3.4303   53.6871   23.3037 N.am      1 UNK         0.0000 
     11 C11         2.5466   53.2089   22.4078 C.2       1 UNK         0.0000 
     12 O12         1.3911   52.8642   22.6568 O.2       1 UNK         0.0000 
     13 C13         3.0987   53.1063   20.9745 C.3       1 UNK         0.0000 
     14 C14         2.2720   52.5884   18.6074 C.3       1 UNK         0.0000 
     15 C15         1.2806   51.7080   17.8218 C.3       1 UNK         0.0000 
     16 C16         1.6852   50.2365   18.0427 C.3       1 UNK         0.0000 
     17 C17         1.5625   49.8383   19.5291 C.3       1 UNK         0.0000 
     18 C18         2.5349   50.7064   20.3405 C.3       1 UNK         0.0000 
     19 C19         0.8172   49.2860   17.1943 C.2       1 UNK         0.0000 
     20 O20        -0.4100   49.3412   17.2860 O.2       1 UNK         0.0000 
     21 N21         1.5044   48.4150   16.4249 N.am      1 UNK         0.0000 
     22 C22         1.0310   47.3876   15.5895 C.ar      1 UNK         0.0000 
     23 C23         1.9711   46.4300   15.1972 C.ar      1 UNK         0.0000 
     24 C24         1.5876   45.3696   14.3784 C.ar      1 UNK         0.0000 
     25 C25         0.2708   45.2773   13.9370 C.ar      1 UNK         0.0000 
     26 C26        -0.6699   46.2337   14.3102 C.ar      1 UNK         0.0000 
     27 C27        -0.2928   47.2910   15.1340 C.ar      1 UNK         0.0000 
     28 C28         1.9524   53.4454   28.3838 C.3       1 UNK         0.0000 
     29 C29         2.9751   53.3742   29.5321 C.3       1 UNK         0.0000 
     30 C30         4.0173   54.4962   29.4197 C.3       1 UNK         0.0000 
     31 C31         4.8821   54.3628   28.1462 C.3       1 UNK         0.0000 
     32 H32         6.9389   55.0116   22.0412 H         1 UNK         0.0000 
     33 H33         7.5065   55.8570   23.4817 H         1 UNK         0.0000 
     34 H34         7.8386   54.1199   23.2682 H         1 UNK         0.0000 
     35 H35         4.3264   53.9819   22.9406 H         1 UNK         0.0000 
     36 H36         3.1044   54.0958   20.5208 H         1 UNK         0.0000 
     37 H37         4.1124   52.7085   20.9156 H         1 UNK         0.0000 
     38 H38         1.9931   53.6404   18.5146 H         1 UNK         0.0000 
     39 H39         3.3090   52.4506   18.2885 H         1 UNK         0.0000 
     40 H40         0.2788   51.9238   18.2004 H         1 UNK         0.0000 
     41 H41         1.3798   51.9991   16.7746 H         1 UNK         0.0000 
     42 H42         2.7043   50.0967   17.6894 H         1 UNK         0.0000 
     43 H43         1.8764   48.8062   19.6951 H         1 UNK         0.0000 
     44 H44         0.5597   50.0135   19.9223 H         1 UNK         0.0000 
     45 H45         3.5732   50.5543   20.0415 H         1 UNK         0.0000 
     46 H46         2.4189   50.5070   21.4073 H         1 UNK         0.0000 
     47 H47         2.5175   48.4990   16.4815 H         1 UNK         0.0000 
     48 H48         2.9950   46.4965   15.5390 H         1 UNK         0.0000 
     49 H49         2.3048   44.6196   14.0830 H         1 UNK         0.0000 
     50 H50        -0.0242   44.4576   13.2992 H         1 UNK         0.0000 
     51 H51        -1.6890   46.1576   13.9603 H         1 UNK         0.0000 
     52 H52        -1.0403   48.0239   15.3946 H         1 UNK         0.0000 
     53 H53         1.3253   52.5519   28.3846 H         1 UNK         0.0000 
     54 H54         1.2863   54.2941   28.5406 H         1 UNK         0.0000 
     55 H55         3.4768   52.4044   29.5245 H         1 UNK         0.0000 
     56 H56         2.4488   53.4357   30.4842 H         1 UNK         0.0000 
     57 H57         4.6647   54.4965   30.2975 H         1 UNK         0.0000 
     58 H58         3.5088   55.4627   29.4121 H         1 UNK         0.0000 
     59 H59         5.4556   55.2794   28.0176 H         1 UNK         0.0000 
     60 H60         5.6136   53.5656   28.2843 H         1 UNK         0.0000 
     61 N61         2.1841   52.1997   20.1073 N.4       1 UNK         0.0000 
     62 H62         1.2334   52.3667   20.4169 H         1 UNK         0.0000 
@<TRIPOS>BOND
     1    1    2 1    
     2    1   32 1    
     3    1   33 1    
     4    1   34 1    
     5    2    3 1    
     6    3    4 2    
     7    3    5 1    
     8    5    9 2    
     9    5    6 1    
    10    6   31 1    
    11    6    7 2    
    12    7    8 1    
    13    7   28 1    
    14    8    9 1    
    15    9   10 am   BACKBONE|DICT|INTERRES
    16   10   11 am   BACKBONE|DICT|INTERRES
    17   10   35 1    
    18   11   12 2    
    19   11   13 1    
    20   13   36 1    
    21   13   37 1    
    22   13   61 1    
    23   14   15 1    
    24   14   38 1    
    25   14   39 1    
    26   14   61 1    
    27   15   16 1    
    28   15   40 1    
    29   15   41 1    
    30   16   17 1    
    31   16   19 1    
    32   16   42 1    
    33   17   18 1    
    34   17   43 1    
    35   17   44 1    
    36   18   45 1    
    37   18   46 1    
    38   18   61 1    
    39   19   20 2    
    40   19   21 am   BACKBONE|DICT|INTERRES
    41   21   22 1    
    42   21   47 1    
    43   22   27 ar   
    44   22   23 ar   
    45   23   24 ar   
    46   23   48 1    
    47   24   25 ar   
    48   24   49 1    
    49   25   26 ar   
    50   25   50 1    
    51   26   27 ar   
    52   26   51 1    
    53   27   52 1    
    54   28   29 1    
    55   28   53 1    
    56   28   54 1    
    57   29   30 1    
    58   29   55 1    
    59   29   56 1    
    60   30   31 1    
    61   30   57 1    
    62   30   58 1    
    63   31   59 1    
    64   31   60 1    
    65   61   62 1    
@<TRIPOS>SUBSTRUCTURE
     1 UNK         1 GROUP             0       ****    0 ROOT    
