@<TRIPOS>MOLECULE
ZINC63752745_146
55   58    1
SMALL
USER_CHARGES


@<TRIPOS>ATOM
      1 C1         -1.9960   46.7890   22.4256 C.3       1 UNK         0.0000 
      2 C2         -1.2957   47.9475   21.7405 C.2       1 UNK         0.0000 
      3 C3         -1.1835   48.0219   20.2845 C.2       1 UNK         0.0000 
      4 C4         -0.5213   49.0177   19.6391 C.2       1 UNK         0.0000 
      5 C5          0.0877   50.0438   20.3665 C.2       1 UNK         0.0000 
      6 N6          0.7710   51.0846   19.9375 N.pl3     1 UNK         0.0000 
      7 C7          1.2219   51.9155   21.0763 C.3       1 UNK         0.0000 
      8 H8          0.7548   52.8970   20.9777 H         1 UNK         0.0000 
      9 C9          0.6804   51.0979   22.2494 C.2       1 UNK         0.0000 
     10 C10         0.0219   50.0330   21.7613 C.2       1 UNK         0.0000 
     11 C11        -0.6881   48.9358   22.4350 C.2       1 UNK         0.0000 
     12 N12         0.8851   51.4195   23.5630 N.am      1 UNK         0.0000 
     13 C13         1.0673   52.6427   24.1043 C.2       1 UNK         0.0000 
     14 O14         1.1044   53.6916   23.4571 O.2       1 UNK         0.0000 
     15 C15         1.2723   52.6637   25.6029 C.ar      1 UNK         0.0000 
     16 C16         0.6870   51.6965   26.4393 C.ar      1 UNK         0.0000 
     17 C17         0.9110   51.7246   27.8136 C.ar      1 UNK         0.0000 
     18 C18         1.7152   52.7182   28.3640 C.ar      1 UNK         0.0000 
     19 C19         2.2853   53.6948   27.5522 C.ar      1 UNK         0.0000 
     20 C20         2.0598   53.6716   26.1781 C.ar      1 UNK         0.0000 
     21 F21         1.9444   52.7365   29.6968 F         1 UNK         0.0000 
     22 C22         2.7536   52.0536   21.0182 C.2       1 UNK         0.0000 
     23 O23         3.4803   51.0990   21.2971 O.2       1 UNK         0.0000 
     24 N24         3.2254   53.2677   20.6903 N.am      1 UNK         0.0000 
     25 C25         4.6382   53.6481   20.6857 C.3       1 UNK         0.0000 
     26 C26         5.2047   54.0960   22.0361 C.ar      1 UNK         0.0000 
     27 C27         4.6380   53.6967   23.2515 C.ar      1 UNK         0.0000 
     28 C28         5.1932   54.0968   24.4611 C.ar      1 UNK         0.0000 
     29 C29         6.3042   54.9456   24.4789 C.ar      1 UNK         0.0000 
     30 C30         6.8279   55.3856   23.2652 C.ar      1 UNK         0.0000 
     31 C31         6.3042   54.9531   22.0522 C.ar      1 UNK         0.0000 
     32 O32         6.9246   55.3879   25.6317 O.3       1 UNK         0.0000 
     33 C33         6.4766   54.8915   26.8898 C.3       1 UNK         0.0000 
     34 H34        -1.8436   46.7832   23.5053 H         1 UNK         0.0000 
     35 H35        -3.0613   46.8014   22.1960 H         1 UNK         0.0000 
     36 H36        -1.6096   45.8495   22.0297 H         1 UNK         0.0000 
     37 H37        -1.6460   47.2455   19.6919 H         1 UNK         0.0000 
     38 H38        -0.4766   49.0008   18.5593 H         1 UNK         0.0000 
     39 H39        -0.7361   48.8935   23.5143 H         1 UNK         0.0000 
     40 H40         0.8856   50.6385   24.1999 H         1 UNK         0.0000 
     41 H41         0.0513   50.9151   26.0469 H         1 UNK         0.0000 
     42 H42         0.4608   50.9764   28.4513 H         1 UNK         0.0000 
     43 H43         2.9014   54.4662   27.9893 H         1 UNK         0.0000 
     44 H44         2.5098   54.4375   25.5613 H         1 UNK         0.0000 
     45 H45         2.5610   54.0102   20.4914 H         1 UNK         0.0000 
     46 H46         4.7450   54.4659   19.9712 H         1 UNK         0.0000 
     47 H47         5.2565   52.8296   20.3083 H         1 UNK         0.0000 
     48 H48         3.7833   53.0430   23.2799 H         1 UNK         0.0000 
     49 H49         4.7553   53.7269   25.3742 H         1 UNK         0.0000 
     50 H50         7.6628   56.0716   23.2654 H         1 UNK         0.0000 
     51 H51         6.7500   55.2960   21.1292 H         1 UNK         0.0000 
     52 H52         7.1036   55.2966   27.6810 H         1 UNK         0.0000 
     53 H53         6.5490   53.8037   26.9423 H         1 UNK         0.0000 
     54 H54         5.4489   55.1936   27.0965 H         1 UNK         0.0000 
     55 H55         0.9778   51.2939   18.9637 H         1 UNK         0.0000 
@<TRIPOS>BOND
     1    1    2 1    
     2    1   34 1    
     3    1   35 1    
     4    1   36 1    
     5    2   11 2    
     6    2    3 1    
     7    3    4 2    
     8    3   37 1    
     9    4    5 1    
    10    4   38 1    
    11    5   10 1    
    12    5    6 2    
    13    6    7 1    
    14    6   55 1    
    15    7    8 1    
    16    7    9 1    
    17    7   22 1    
    18    9   10 2    
    19    9   12 1    
    20   10   11 1    
    21   11   39 1    
    22   12   13 am   BACKBONE|DICT|INTERRES
    23   12   40 1    
    24   13   14 2    
    25   13   15 1    
    26   15   20 ar   
    27   15   16 ar   
    28   16   17 ar   
    29   16   41 1    
    30   17   18 ar   
    31   17   42 1    
    32   18   19 ar   
    33   18   21 1    
    34   19   20 ar   
    35   19   43 1    
    36   20   44 1    
    37   22   23 2    
    38   22   24 am   BACKBONE|DICT|INTERRES
    39   24   25 1    
    40   24   45 1    
    41   25   26 1    
    42   25   46 1    
    43   25   47 1    
    44   26   31 ar   
    45   26   27 ar   
    46   27   28 ar   
    47   27   48 1    
    48   28   29 ar   
    49   28   49 1    
    50   29   30 ar   
    51   29   32 1    
    52   30   31 ar   
    53   30   50 1    
    54   31   51 1    
    55   32   33 1    
    56   33   52 1    
    57   33   53 1    
    58   33   54 1    
@<TRIPOS>SUBSTRUCTURE
     1 UNK         1 GROUP             0       ****    0 ROOT    
