@<TRIPOS>MOLECULE
ZINC10797490_11
48   51    1
SMALL
USER_CHARGES


@<TRIPOS>ATOM
      1 C1          0.6693   54.8745   31.0077 C.ar      1 UNK         0.0000 
      2 C2          0.0572   53.6934   31.4214 C.ar      1 UNK         0.0000 
      3 C3          0.0069   52.5990   30.5622 C.ar      1 UNK         0.0000 
      4 C4          0.6070   52.6827   29.3089 C.ar      1 UNK         0.0000 
      5 C5          1.2607   53.8591   28.8982 C.ar      1 UNK         0.0000 
      6 C6          1.2655   54.9593   29.7565 C.ar      1 UNK         0.0000 
      7 C7          1.9419   53.9025   27.5395 C.3       1 UNK         0.0000 
      8 C8          1.4006   52.8240   26.5990 C.ar      1 UNK         0.0000 
      9 C9          1.5070   52.9142   25.2057 C.ar      1 UNK         0.0000 
     10 C10         0.9686   51.9274   24.3772 C.ar      1 UNK         0.0000 
     11 C11         0.3042   50.8332   24.9352 C.ar      1 UNK         0.0000 
     12 C12         0.1709   50.7300   26.3192 C.ar      1 UNK         0.0000 
     13 C13         0.7152   51.7180   27.1395 C.ar      1 UNK         0.0000 
     14 O14         0.5173   51.5742   28.4956 O.3       1 UNK         0.0000 
     15 C15         3.4562   53.6966   27.7482 C.2       1 UNK         0.0000 
     16 O16         3.9224   52.8913   28.5548 O.2       1 UNK         0.0000 
     17 O17         4.1729   54.5266   26.9731 O.3       1 UNK         0.0000 
     18 C18         5.6027   54.5013   26.9519 C.3       1 UNK         0.0000 
     19 C19         6.0784   54.7058   25.5098 C.2       1 UNK         0.0000 
     20 O20         7.1044   55.3571   25.3176 O.2       1 UNK         0.0000 
     21 N21         5.3374   54.1078   24.5488 N.am      1 UNK         0.0000 
     22 C22         5.5579   54.0968   23.2197 C.2       1 UNK         0.0000 
     23 O23         6.6171   54.4144   22.6718 O.2       1 UNK         0.0000 
     24 N24         4.4439   53.6975   22.5805 N.am      1 UNK         0.0000 
     25 C25         4.2706   53.4548   21.2083 C.ar      1 UNK         0.0000 
     26 C26         3.4498   52.3702   20.8772 C.ar      1 UNK         0.0000 
     27 C27         3.1493   52.0901   19.5464 C.ar      1 UNK         0.0000 
     28 C28         3.6627   52.8969   18.5327 C.ar      1 UNK         0.0000 
     29 C29         4.4636   53.9910   18.8493 C.ar      1 UNK         0.0000 
     30 C30         4.7639   54.2834   20.1806 C.ar      1 UNK         0.0000 
     31 F31         5.5061   55.3858   20.4412 F         1 UNK         0.0000 
     32 H32         0.7060   55.7162   31.6770 H         1 UNK         0.0000 
     33 H33        -0.3947   53.6280   32.4015 H         1 UNK         0.0000 
     34 H34        -0.4974   51.6946   30.8752 H         1 UNK         0.0000 
     35 H35         1.7533   55.8773   29.4625 H         1 UNK         0.0000 
     36 H36         1.7774   54.8951   27.1189 H         1 UNK         0.0000 
     37 H37         2.0025   53.7649   24.7593 H         1 UNK         0.0000 
     38 H38         1.0550   52.0128   23.3031 H         1 UNK         0.0000 
     39 H39        -0.1152   50.0686   24.2962 H         1 UNK         0.0000 
     40 H40        -0.3547   49.8915   26.7584 H         1 UNK         0.0000 
     41 H41         6.0212   53.5632   27.3259 H         1 UNK         0.0000 
     42 H42         5.9982   55.2962   27.5853 H         1 UNK         0.0000 
     43 H43         4.4968   53.6557   24.8707 H         1 UNK         0.0000 
     44 H44         3.7031   53.3328   23.1584 H         1 UNK         0.0000 
     45 H45         3.0384   51.7335   21.6458 H         1 UNK         0.0000 
     46 H46         2.5372   51.2372   19.2917 H         1 UNK         0.0000 
     47 H47         3.4486   52.6629   17.5011 H         1 UNK         0.0000 
     48 H48         4.8471   54.6225   18.0617 H         1 UNK         0.0000 
@<TRIPOS>BOND
     1    1    6 ar   
     2    1    2 ar   
     3    1   32 1    
     4    2    3 ar   
     5    2   33 1    
     6    3    4 ar   
     7    3   34 1    
     8    4   14 1    
     9    4    5 ar   
    10    5    6 ar   
    11    5    7 1    
    12    6   35 1    
    13    7    8 1    
    14    7   15 1    
    15    7   36 1    
    16    8   13 ar   
    17    8    9 ar   
    18    9   10 ar   
    19    9   37 1    
    20   10   11 ar   
    21   10   38 1    
    22   11   12 ar   
    23   11   39 1    
    24   12   13 ar   
    25   12   40 1    
    26   13   14 1    
    27   15   16 2    
    28   15   17 1    
    29   17   18 1    
    30   18   19 1    
    31   18   41 1    
    32   18   42 1    
    33   19   20 2    
    34   19   21 am   BACKBONE|DICT|INTERRES
    35   21   22 am   BACKBONE|DICT|INTERRES
    36   21   43 1    
    37   22   23 2    
    38   22   24 am   BACKBONE|DICT|INTERRES
    39   24   25 1    
    40   24   44 1    
    41   25   30 ar   
    42   25   26 ar   
    43   26   27 ar   
    44   26   45 1    
    45   27   28 ar   
    46   27   46 1    
    47   28   29 ar   
    48   28   47 1    
    49   29   30 ar   
    50   29   48 1    
    51   30   31 1    
@<TRIPOS>SUBSTRUCTURE
     1 UNK         1 GROUP             0       ****    0 ROOT    
