@<TRIPOS>MOLECULE
ZINC09941960_2698
41   44    1
SMALL
USER_CHARGES


@<TRIPOS>ATOM
      1 C1          3.9193   54.4475   17.5995 C.3       1 UNK         0.0000 
      2 C2          4.1757   53.9827   19.0323 C.2       1 UNK         0.0000 
      3 C3          3.6198   52.8970   19.6510 C.2       1 UNK         0.0000 
      4 C4          3.9860   52.5123   21.1170 C.3       1 UNK         0.0000 
      5 H5          4.4731   51.5357   21.1432 H         1 UNK         0.0000 
      6 N6          5.0013   53.4638   21.6087 N.pl3     1 UNK         0.0000 
      7 C7          5.5018   54.5617   20.9429 C.ar      1 UNK         0.0000 
      8 N8          6.3657   55.2122   21.6795 N.2       1 UNK         0.0000 
      9 N9          6.4198   54.5007   22.8757 N.2       1 UNK         0.0000 
     10 N10         5.5738   53.4079   22.8204 N.2       1 UNK         0.0000 
     11 N11         5.1076   54.8018   19.6474 N.pl3     1 UNK         0.0000 
     12 C12         2.7928   52.4102   22.0856 C.ar      1 UNK         0.0000 
     13 C13         2.2221   53.5681   22.6288 C.ar      1 UNK         0.0000 
     14 C14         1.1699   53.4744   23.5345 C.ar      1 UNK         0.0000 
     15 C15         0.6791   52.2222   23.8942 C.ar      1 UNK         0.0000 
     16 C16         1.2358   51.0628   23.3593 C.ar      1 UNK         0.0000 
     17 C17         2.2932   51.1562   22.4585 C.ar      1 UNK         0.0000 
     18 Br18       -0.7648   52.0962   25.1267 Br        1 UNK         0.0000 
     19 C19         2.5615   52.1174   19.0141 C.2       1 UNK         0.0000 
     20 O20         1.6453   52.6546   18.3899 O.2       1 UNK         0.0000 
     21 N21         2.6507   50.7870   19.2284 N.am      1 UNK         0.0000 
     22 C22         1.7620   49.7581   18.8578 C.ar      1 UNK         0.0000 
     23 C23         0.7624   49.8894   17.8798 C.ar      1 UNK         0.0000 
     24 C24        -0.0568   48.8070   17.5682 C.ar      1 UNK         0.0000 
     25 C25         0.1218   47.5911   18.2234 C.ar      1 UNK         0.0000 
     26 C26         1.1158   47.4490   19.1872 C.ar      1 UNK         0.0000 
     27 C27         1.9342   48.5301   19.5024 C.ar      1 UNK         0.0000 
     28 Cl28       -0.8895   46.2476   17.8346 Cl        1 UNK         0.0000 
     29 H29         3.4469   53.6859   16.9810 H         1 UNK         0.0000 
     30 H30         3.2743   55.3268   17.6029 H         1 UNK         0.0000 
     31 H31         4.8515   54.7064   17.0949 H         1 UNK         0.0000 
     32 H32         5.5279   55.5528   19.1212 H         1 UNK         0.0000 
     33 H33         2.5944   54.5425   22.3455 H         1 UNK         0.0000 
     34 H34         0.7348   54.3701   23.9525 H         1 UNK         0.0000 
     35 H35         0.8538   50.0942   23.6476 H         1 UNK         0.0000 
     36 H36         2.7222   50.2495   22.0584 H         1 UNK         0.0000 
     37 H37         3.5339   50.4726   19.5954 H         1 UNK         0.0000 
     38 H38         0.6160   50.8070   17.3332 H         1 UNK         0.0000 
     39 H39        -0.8207   48.9106   16.8115 H         1 UNK         0.0000 
     40 H40         1.2576   46.5005   19.6815 H         1 UNK         0.0000 
     41 H41         2.7044   48.4035   20.2489 H         1 UNK         0.0000 
@<TRIPOS>BOND
     1    1    2 1    
     2    1   29 1    
     3    1   30 1    
     4    1   31 1    
     5    2   11 1    
     6    2    3 2    
     7    3    4 1    
     8    3   19 1    
     9    4    5 1    
    10    4    6 1    
    11    4   12 1    
    12    6   10 ar   
    13    6    7 ar   
    14    7    8 ar   
    15    7   11 1    
    16    8    9 ar   
    17    9   10 ar   
    18   11   32 1    
    19   12   17 ar   
    20   12   13 ar   
    21   13   14 ar   
    22   13   33 1    
    23   14   15 ar   
    24   14   34 1    
    25   15   16 ar   
    26   15   18 1    
    27   16   17 ar   
    28   16   35 1    
    29   17   36 1    
    30   19   20 2    
    31   19   21 am   BACKBONE|DICT|INTERRES
    32   21   22 1    
    33   21   37 1    
    34   22   27 ar   
    35   22   23 ar   
    36   23   24 ar   
    37   23   38 1    
    38   24   25 ar   
    39   24   39 1    
    40   25   26 ar   
    41   25   28 1    
    42   26   27 ar   
    43   26   40 1    
    44   27   41 1    
@<TRIPOS>SUBSTRUCTURE
     1 UNK         1 GROUP             0       ****    0 ROOT    
