@<TRIPOS>MOLECULE
ZINC44452746_2734
54   57    1
SMALL
USER_CHARGES


@<TRIPOS>ATOM
      1 C1          1.4997   49.8264   17.5269 C.3       1 UNK         0.0000 
      2 N2          0.7444   49.0540   18.5211 N.am      1 UNK         0.0000 
      3 C3         -0.1089   48.0395   17.8930 C.3       1 UNK         0.0000 
      4 C4          0.7678   49.2342   19.8714 C.2       1 UNK         0.0000 
      5 O5          0.1258   48.4955   20.6258 O.2       1 UNK         0.0000 
      6 N6          1.4830   50.3053   20.3043 N.am      1 UNK         0.0000 
      7 C7          1.6625   50.7217   21.5843 C.2       1 UNK         0.0000 
      8 O8          1.2589   50.1180   22.5815 O.2       1 UNK         0.0000 
      9 C9          2.3903   51.9778   21.7307 C.2       1 UNK         0.0000 
     10 C10         3.2456   52.5616   20.7678 C.2       1 UNK         0.0000 
     11 C11         3.9070   53.6916   21.1950 C.2       1 UNK         0.0000 
     12 S12         3.5487   54.0969   22.8227 S.3       1 UNK         0.0000 
     13 C13         2.4760   52.7362   22.9178 C.2       1 UNK         0.0000 
     14 N14         1.9231   52.5381   24.1589 N.am      1 UNK         0.0000 
     15 C15         0.6139   52.6274   24.4525 C.2       1 UNK         0.0000 
     16 O16        -0.2680   52.8959   23.6341 O.2       1 UNK         0.0000 
     17 C17         0.3120   52.4327   25.9207 C.ar      1 UNK         0.0000 
     18 C18         1.2472   52.8654   26.8738 C.ar      1 UNK         0.0000 
     19 C19         1.0150   52.7148   28.2518 C.ar      1 UNK         0.0000 
     20 C20         1.9842   53.1040   29.2050 C.ar      1 UNK         0.0000 
     21 C21         1.7211   52.9521   30.5591 C.ar      1 UNK         0.0000 
     22 C22         0.4952   52.4726   30.9967 C.ar      1 UNK         0.0000 
     23 C23        -0.4636   52.0502   30.0802 C.ar      1 UNK         0.0000 
     24 C24        -0.2147   52.1464   28.6899 C.ar      1 UNK         0.0000 
     25 C25        -1.1447   51.6977   27.7239 C.ar      1 UNK         0.0000 
     26 C26        -0.8919   51.8532   26.3589 C.ar      1 UNK         0.0000 
     27 O27        -1.8343   51.4000   25.4678 O.3       1 UNK         0.0000 
     28 C28        -2.9532   52.2626   25.3103 C.3       1 UNK         0.0000 
     29 C29         4.8235   54.2785   20.1567 C.3       1 UNK         0.0000 
     30 C30         4.9184   53.1129   19.1648 C.3       1 UNK         0.0000 
     31 C31         3.6608   52.2523   19.3606 C.3       1 UNK         0.0000 
     32 H32         0.8483   50.5429   17.0255 H         1 UNK         0.0000 
     33 H33         1.9011   49.1589   16.7641 H         1 UNK         0.0000 
     34 H34         2.3518   50.3608   17.9431 H         1 UNK         0.0000 
     35 H35        -0.7217   47.4844   18.6046 H         1 UNK         0.0000 
     36 H36        -0.7840   48.5090   17.1784 H         1 UNK         0.0000 
     37 H37         0.5051   47.3172   17.3530 H         1 UNK         0.0000 
     38 H38         1.9359   50.8548   19.5926 H         1 UNK         0.0000 
     39 H39         2.5669   52.5109   24.9332 H         1 UNK         0.0000 
     40 H40         2.1774   53.3315   26.5793 H         1 UNK         0.0000 
     41 H41         2.9337   53.5028   28.8761 H         1 UNK         0.0000 
     42 H42         2.4759   53.2057   31.2805 H         1 UNK         0.0000 
     43 H43         0.3042   52.3695   32.0560 H         1 UNK         0.0000 
     44 H44        -1.3826   51.6065   30.4327 H         1 UNK         0.0000 
     45 H45        -2.0607   51.2270   28.0528 H         1 UNK         0.0000 
     46 H46        -3.5836   51.8914   24.5036 H         1 UNK         0.0000 
     47 H47        -3.5582   52.2934   26.2157 H         1 UNK         0.0000 
     48 H48        -2.6525   53.2798   25.0543 H         1 UNK         0.0000 
     49 H49         4.4054   55.1692   19.6853 H         1 UNK         0.0000 
     50 H50         5.8097   54.5348   20.5454 H         1 UNK         0.0000 
     51 H51         5.0299   53.4500   18.1335 H         1 UNK         0.0000 
     52 H52         5.8020   52.5095   19.3875 H         1 UNK         0.0000 
     53 H53         3.9043   51.1975   19.2814 H         1 UNK         0.0000 
     54 H54         2.8964   52.5141   18.6277 H         1 UNK         0.0000 
@<TRIPOS>BOND
     1    1    2 1    
     2    1   32 1    
     3    1   33 1    
     4    1   34 1    
     5    2    3 1    
     6    2    4 am   BACKBONE|DICT|INTERRES
     7    3   35 1    
     8    3   36 1    
     9    3   37 1    
    10    4    5 2    
    11    4    6 am   BACKBONE|DICT|INTERRES
    12    6    7 am   BACKBONE|DICT|INTERRES
    13    6   38 1    
    14    7    8 2    
    15    7    9 1    
    16    9   13 2    
    17    9   10 1    
    18   10   31 1    
    19   10   11 2    
    20   11   12 1    
    21   11   29 1    
    22   12   13 1    
    23   13   14 am   BACKBONE|DICT|INTERRES
    24   14   15 am   BACKBONE|DICT|INTERRES
    25   14   39 1    
    26   15   16 2    
    27   15   17 1    
    28   17   26 ar   
    29   17   18 ar   
    30   18   19 ar   
    31   18   40 1    
    32   19   24 ar   
    33   19   20 ar   
    34   20   21 ar   
    35   20   41 1    
    36   21   22 ar   
    37   21   42 1    
    38   22   23 ar   
    39   22   43 1    
    40   23   24 ar   
    41   23   44 1    
    42   24   25 ar   
    43   25   26 ar   
    44   25   45 1    
    45   26   27 1    
    46   27   28 1    
    47   28   46 1    
    48   28   47 1    
    49   28   48 1    
    50   29   30 1    
    51   29   49 1    
    52   29   50 1    
    53   30   31 1    
    54   30   51 1    
    55   30   52 1    
    56   31   53 1    
    57   31   54 1    
@<TRIPOS>SUBSTRUCTURE
     1 UNK         1 GROUP             0       ****    0 ROOT    
