@<TRIPOS>MOLECULE
ZINC50650660_4301
28   29    1
SMALL
USER_CHARGES


@<TRIPOS>ATOM
      1 C1          4.0574   53.6013   19.5772 C.ar      1 UNK         0.0000 
      2 C2          3.3788   52.8982   18.5796 C.ar      1 UNK         0.0000 
      3 N3          2.8529   51.6902   18.8667 N.pl3     1 UNK         0.0000 
      4 C4          2.9495   51.1084   20.0782 C.ar      1 UNK         0.0000 
      5 C5          3.6261   51.7737   21.1017 C.ar      1 UNK         0.0000 
      6 C6          4.1839   53.0356   20.8547 C.ar      1 UNK         0.0000 
      7 S7          5.0415   53.9267   22.1580 S.o2      1 UNK         0.0000 
      8 O8          5.8159   54.9608   21.4637 O.2       1 UNK         0.0000 
      9 O9          5.7959   52.8972   22.8797 O.2       1 UNK         0.0000 
     10 N10         3.8037   54.4967   22.9306 N.2       1 UNK         0.0000 
     11 C11         3.4868   54.0970   24.2040 C.ar      1 UNK         0.0000 
     12 C12         4.2846   54.4454   25.3196 C.ar      1 UNK         0.0000 
     13 C13         3.9066   54.0740   26.6106 C.ar      1 UNK         0.0000 
     14 C14         2.7248   53.3731   26.8256 C.ar      1 UNK         0.0000 
     15 C15         1.9103   53.0464   25.7468 C.ar      1 UNK         0.0000 
     16 C16         2.2828   53.4042   24.4501 C.ar      1 UNK         0.0000 
     17 Br17        1.0731   52.9507   23.0406 Br        1 UNK         0.0000 
     18 Br18        2.2283   52.8610   28.5911 Br        1 UNK         0.0000 
     19 Br19        5.9012   55.4572   25.1513 Br        1 UNK         0.0000 
     20 N20         2.3839   49.8360   20.2808 N.pl3     1 UNK         0.0000 
     21 H21         4.4766   54.5753   19.3643 H         1 UNK         0.0000 
     22 H22         3.2513   53.2461   17.5642 H         1 UNK         0.0000 
     23 H23         3.7127   51.3294   22.0815 H         1 UNK         0.0000 
     24 H24         4.5350   54.3351   27.4499 H         1 UNK         0.0000 
     25 H25         0.9873   52.5112   25.9152 H         1 UNK         0.0000 
     26 H26         2.4673   49.3818   21.1782 H         1 UNK         0.0000 
     27 H27         1.9798   49.3297   19.5043 H         1 UNK         0.0000 
     28 H28         2.4227   51.1634   18.1203 H         1 UNK         0.0000 
@<TRIPOS>BOND
     1    1    6 ar   
     2    1    2 ar   
     3    1   21 1    
     4    2    3 ar   
     5    2   22 1    
     6    3    4 ar   
     7    3   28 1    
     8    4    5 ar   
     9    4   20 1    
    10    5    6 ar   
    11    5   23 1    
    12    6    7 1    
    13    7    8 2    
    14    7    9 2    
    15    7   10 1    
    16   10   11 1    
    17   11   16 ar   
    18   11   12 ar   
    19   12   13 ar   
    20   12   19 1    
    21   13   14 ar   
    22   13   24 1    
    23   14   15 ar   
    24   14   18 1    
    25   15   16 ar   
    26   15   25 1    
    27   16   17 1    
    28   20   26 1    
    29   20   27 1    
@<TRIPOS>SUBSTRUCTURE
     1 UNK         1 GROUP             0       ****    0 ROOT    
