ZINC28676923_2911
                    3D
 Schrodinger Suite 2024-2.
 54 57  0  0  1  0            999 V2000
    6.7051   54.1050   24.1639 C   0  0  0  0  0  0
    6.5266   55.3151   25.0934 C   0  0  0  0  0  0
    6.6886   54.9772   26.4757 O   0  0  0  0  0  0
    5.7230   54.4250   27.2774 C   0  0  0  0  0  0
    5.9034   54.2087   28.4741 O   0  0  0  0  0  0
    4.5078   54.0806   26.5841 N   0  3  0  0  0  0
    3.3156   53.7466   27.0985 C   0  0  0  0  0  0
    2.3536   53.2940   26.1781 C   0  0  0  0  0  0
    1.1813   52.7391   26.5771 C   0  0  0  0  0  0
    0.8084   52.6527   27.9829 C   0  0  0  0  0  0
   -0.3007   52.0533   28.4942 C   0  0  0  0  0  0
   -0.4745   52.0979   29.9486 C   0  0  0  0  0  0
    0.4011   52.7623   30.7327 C   0  0  0  0  0  0
    0.3046   52.8971   32.0816 O   0  0  0  0  0  0
    1.4941   53.4021   30.2225 O   0  0  0  0  0  0
    1.7631   53.2891   28.8908 C   0  0  0  0  0  0
    2.9512   53.7918   28.4637 C   0  0  0  0  0  0
   -1.3095   51.3070   27.6286 C   0  0  0  0  0  0
   -2.2704   52.3567   26.4793 S   0  0  0  0  0  0
   -3.5193   51.2279   25.9476 C   0  0  0  0  0  0
   -4.6456   51.6041   25.3912 N   0  0  0  0  0  0
   -5.5002   50.5436   25.1089 N   0  0  0  0  0  0
   -5.0028   49.3815   25.4531 C   0  0  0  0  0  0
   -3.3799   49.4968   26.0806 S   0  0  0  0  0  0
   -5.6926   48.1978   25.3050 N   0  0  0  0  0  0
   -5.4358   46.9157   25.8312 C   0  0  0  0  0  0
   -4.7306   46.7336   27.0313 C   0  0  0  0  0  0
   -4.4957   45.4589   27.5330 C   0  0  0  0  0  0
   -4.9876   44.3443   26.8612 C   0  0  0  0  0  0
   -5.7161   44.5073   25.6847 C   0  0  0  0  0  0
   -5.9533   45.7906   25.1577 C   0  0  0  0  0  0
   -6.6758   46.0128   23.9939 O   0  0  0  0  0  0
   -7.2731   44.9124   23.3101 C   0  0  0  0  0  0
    6.6123   54.4116   23.1208 H   0  0  0  0  0  0
    5.9629   53.3268   24.3446 H   0  0  0  0  0  0
    7.6924   53.6588   24.2804 H   0  0  0  0  0  0
    7.2878   56.0578   24.8484 H   0  0  0  0  0  0
    5.5673   55.8058   24.9231 H   0  0  0  0  0  0
    4.6180   54.0316   25.5783 H   0  0  0  0  0  0
    2.5753   53.3357   25.1211 H   0  0  0  0  0  0
    0.4986   52.3826   25.8165 H   0  0  0  0  0  0
   -1.3030   51.5821   30.4106 H   0  0  0  0  0  0
    3.6106   54.2454   29.1887 H   0  0  0  0  0  0
   -0.7912   50.5252   27.0693 H   0  0  0  0  0  0
   -2.0056   50.7683   28.2744 H   0  0  0  0  0  0
   -6.4192   48.1562   24.6030 H   0  0  0  0  0  0
   -4.3593   47.5666   27.6091 H   0  0  0  0  0  0
   -3.9274   45.3319   28.4451 H   0  0  0  0  0  0
   -4.7973   43.3569   27.2597 H   0  0  0  0  0  0
   -6.0935   43.6234   25.1959 H   0  0  0  0  0  0
   -7.8189   45.2906   22.4442 H   0  0  0  0  0  0
   -6.5192   44.2090   22.9458 H   0  0  0  0  0  0
   -7.9854   44.3806   23.9473 H   0  0  0  0  0  0
   -0.4472   52.3792   32.4401 H   0  0  0  0  0  0
  1  2  1  0  0  0
  1 34  1  0  0  0
  1 35  1  0  0  0
  1 36  1  0  0  0
  2  3  1  0  0  0
  2 37  1  0  0  0
  2 38  1  0  0  0
  3  4  1  0  0  0
  4  5  2  0  0  0
  4  6  1  0  0  0
  6  7  2  3  0  0
  6 39  1  0  0  0
  7 17  1  0  0  0
  7  8  1  0  0  0
  8  9  2  0  0  0
  8 40  1  0  0  0
  9 10  1  0  0  0
  9 41  1  0  0  0
 10 16  1  0  0  0
 10 11  2  0  0  0
 11 12  1  0  0  0
 11 18  1  0  0  0
 12 13  2  0  0  0
 12 42  1  0  0  0
 13 14  1  0  0  0
 13 15  1  0  0  0
 14 54  1  0  0  0
 15 16  1  0  0  0
 16 17  2  0  0  0
 17 43  1  0  0  0
 18 19  1  0  0  0
 18 44  1  0  0  0
 18 45  1  0  0  0
 19 20  1  0  0  0
 20 24  1  0  0  0
 20 21  2  0  0  0
 21 22  1  0  0  0
 22 23  2  0  0  0
 23 24  1  0  0  0
 23 25  1  0  0  0
 25 26  1  0  0  0
 25 46  1  0  0  0
 26 31  2  0  0  0
 26 27  1  0  0  0
 27 28  2  0  0  0
 27 47  1  0  0  0
 28 29  1  0  0  0
 28 48  1  0  0  0
 29 30  2  0  0  0
 29 49  1  0  0  0
 30 31  1  0  0  0
 30 50  1  0  0  0
 31 32  1  0  0  0
 32 33  1  0  0  0
 33 51  1  0  0  0
 33 52  1  0  0  0
 33 53  1  0  0  0
M  CHG  1   6   1
M  END
> <i_i_glide_confnum>
40

> <i_i_glide_lignum>
2912

> <i_i_glide_posenum>
111

> <i_i_glide_rotatable_bonds>
10

> <i_m_Source_File_Index>
3756

> <b_m_subgroup_collapsed>
0

> <r_i_docking_score>
-4.63909

> <r_i_glide_ecoul>
-10.4428

> <r_i_glide_eff_state_penalty>
0

> <r_i_glide_einternal>
5.22362

> <r_i_glide_emodel>
-64.644

> <r_i_glide_energy>
-50.5053

> <r_i_glide_erotb>
0.603189

> <r_i_glide_esite>
-0.000235959

> <r_i_glide_evdw>
-40.0625

> <r_i_glide_gscore>
-4.63909

> <r_i_glide_hbond>
-0.243263

> <r_i_glide_ligand_efficiency>
-0.140579

> <r_i_glide_ligand_efficiency_ln>
-1.03171

> <r_i_glide_ligand_efficiency_sa>
-0.45091

> <r_i_glide_lipo>
-1.58807

> <r_i_glide_metal>
0

> <r_i_glide_rewards>
0.158835

> <s_i_glide_gridfile>
wee1_glide-grid

> <s_m_Source_File>
wee1_decoys_glide_SP.sdf

> <s_m_Source_Path>
/Users/zhangxujun/Desktop

> <s_m_entry_id>
4031

> <s_m_entry_name>
wee1_decoys_glide_SP.3756

> <s_m_subgroup_title>
wee1_decoys_glide_SP

> <s_m_subgroupid>
wee1_decoys_glide_SP


$$$$
