@<TRIPOS>MOLECULE
ZINC22748005_4536
57   61    1
SMALL
USER_CHARGES


@<TRIPOS>ATOM
      1 C1          2.1973   49.4470   22.4812 C.3       1 UNK         0.0000 
      2 C2          2.0100   50.5359   21.4173 C.3       1 UNK         0.0000 
      3 C3          3.2658   50.7357   20.5496 C.3       1 UNK         0.0000 
      4 C4          3.1042   51.8280   19.5133 C.ar      1 UNK         0.0000 
      5 C5          3.8618   53.0101   19.3585 C.ar      1 UNK         0.0000 
      6 C6          3.2959   53.5965   18.2474 C.ar      1 UNK         0.0000 
      7 N7          2.3001   52.7865   17.8029 N.pl3     1 UNK         0.0000 
      8 H8          1.7167   52.9597   16.9973 H         1 UNK         0.0000 
      9 N9          2.1780   51.7045   18.5744 N.2       1 UNK         0.0000 
     10 O10         3.6104   54.7937   17.6592 O.3       1 UNK         0.0000 
     11 C11         4.6236   55.4534   18.2887 C.2       1 UNK         0.0000 
     12 C12         5.2930   55.0376   19.3964 C.2       1 UNK         0.0000 
     13 C13         4.9983   53.7088   20.1228 C.3       1 UNK         0.0000 
     14 H14         5.8912   53.0862   20.0293 H         1 UNK         0.0000 
     15 C15         4.8004   53.8899   21.6370 C.ar      1 UNK         0.0000 
     16 C16         5.9041   54.0642   22.4824 C.ar      1 UNK         0.0000 
     17 C17         5.7393   54.2290   23.8551 C.ar      1 UNK         0.0000 
     18 C18         4.4578   54.2430   24.4224 C.ar      1 UNK         0.0000 
     19 C19         3.3469   54.1024   23.5749 C.ar      1 UNK         0.0000 
     20 C20         3.5226   53.9253   22.1997 C.ar      1 UNK         0.0000 
     21 C21         1.9365   54.1106   24.1305 C.3       1 UNK         0.0000 
     22 S22         1.4770   52.4448   24.7038 S.3       1 UNK         0.0000 
     23 C23         1.1927   52.6590   26.4301 C.2       1 UNK         0.0000 
     24 N24         1.5332   53.7104   27.1168 N.2       1 UNK         0.0000 
     25 C25         1.0943   53.6488   28.3973 C.ar      1 UNK         0.0000 
     26 C26         1.2437   54.6780   29.3374 C.ar      1 UNK         0.0000 
     27 C27         0.7036   54.4892   30.6101 C.ar      1 UNK         0.0000 
     28 C28         0.0686   53.2973   30.9550 C.ar      1 UNK         0.0000 
     29 C29        -0.0956   52.2599   30.0356 C.ar      1 UNK         0.0000 
     30 C30         0.4196   52.4521   28.7461 C.ar      1 UNK         0.0000 
     31 S31         0.3660   51.4071   27.3347 S.3       1 UNK         0.0000 
     32 O32         4.2233   54.4102   25.7756 O.3       1 UNK         0.0000 
     33 C33         5.3207   54.4434   26.6824 C.3       1 UNK         0.0000 
     34 C34         6.3035   55.8602   19.9579 C.1       1 UNK         0.0000 
     35 N35         7.1083   56.4984   20.4803 N.1       1 UNK         0.0000 
     36 N36         4.8114   56.6339   17.6225 N.pl3     1 UNK         0.0000 
     37 H37         1.2860   49.3070   23.0626 H         1 UNK         0.0000 
     38 H38         2.9941   49.6967   23.1808 H         1 UNK         0.0000 
     39 H39         2.4492   48.4930   22.0233 H         1 UNK         0.0000 
     40 H40         1.1623   50.2704   20.7852 H         1 UNK         0.0000 
     41 H41         1.7464   51.4735   21.9034 H         1 UNK         0.0000 
     42 H42         4.1204   50.9491   21.1897 H         1 UNK         0.0000 
     43 H43         3.5042   49.8013   20.0404 H         1 UNK         0.0000 
     44 H44         6.9037   54.0971   22.0815 H         1 UNK         0.0000 
     45 H45         6.6248   54.3533   24.4583 H         1 UNK         0.0000 
     46 H46         2.6572   53.8139   21.5658 H         1 UNK         0.0000 
     47 H47         1.8464   54.8946   24.8789 H         1 UNK         0.0000 
     48 H48         1.2371   54.4043   23.3476 H         1 UNK         0.0000 
     49 H49         1.7377   55.6012   29.0763 H         1 UNK         0.0000 
     50 H50         0.7858   55.2757   31.3483 H         1 UNK         0.0000 
     51 H51        -0.3261   53.1838   31.9538 H         1 UNK         0.0000 
     52 H52        -0.6193   51.3516   30.3085 H         1 UNK         0.0000 
     53 H53         4.9410   54.5304   27.7007 H         1 UNK         0.0000 
     54 H54         5.9114   53.5272   26.6262 H         1 UNK         0.0000 
     55 H55         5.9700   55.3011   26.4966 H         1 UNK         0.0000 
     56 H56         5.5881   57.2398   17.8435 H         1 UNK         0.0000 
     57 H57         4.0917   56.9981   17.0146 H         1 UNK         0.0000 
@<TRIPOS>BOND
     1    1    2 1    
     2    1   37 1    
     3    1   38 1    
     4    1   39 1    
     5    2    3 1    
     6    2   40 1    
     7    2   41 1    
     8    3    4 1    
     9    3   42 1    
    10    3   43 1    
    11    4    9 ar   
    12    4    5 ar   
    13    5   13 1    
    14    5    6 ar   
    15    6    7 ar   
    16    6   10 1    
    17    7    8 1    
    18    7    9 ar   
    19   10   11 1    
    20   11   12 2    
    21   11   36 1    
    22   12   13 1    
    23   12   34 1    
    24   13   14 1    
    25   13   15 1    
    26   15   20 ar   
    27   15   16 ar   
    28   16   17 ar   
    29   16   44 1    
    30   17   18 ar   
    31   17   45 1    
    32   18   19 ar   
    33   18   32 1    
    34   19   20 ar   
    35   19   21 1    
    36   20   46 1    
    37   21   22 1    
    38   21   47 1    
    39   21   48 1    
    40   22   23 1    
    41   23   31 1    
    42   23   24 2    
    43   24   25 1    
    44   25   30 ar   
    45   25   26 ar   
    46   26   27 ar   
    47   26   49 1    
    48   27   28 ar   
    49   27   50 1    
    50   28   29 ar   
    51   28   51 1    
    52   29   30 ar   
    53   29   52 1    
    54   30   31 1    
    55   32   33 1    
    56   33   53 1    
    57   33   54 1    
    58   33   55 1    
    59   34   35 3    
    60   36   56 1    
    61   36   57 1    
@<TRIPOS>SUBSTRUCTURE
     1 UNK         1 GROUP             0       ****    0 ROOT    
