@<TRIPOS>MOLECULE
ZINC38904841_1100
60   63    1
SMALL
USER_CHARGES


@<TRIPOS>ATOM
      1 C1          3.3615   54.0487   25.3254 C.ar      1 UNK         0.0000 
      2 C2          3.6433   54.0974   23.9588 C.ar      1 UNK         0.0000 
      3 C3          4.9529   54.3141   23.5060 C.ar      1 UNK         0.0000 
      4 C4          5.9746   54.4789   24.4538 C.ar      1 UNK         0.0000 
      5 C5          5.6960   54.4083   25.8197 C.ar      1 UNK         0.0000 
      6 C6          4.3876   54.1977   26.2541 C.ar      1 UNK         0.0000 
      7 Br7         7.1010   54.5621   27.0917 Br        1 UNK         0.0000 
      8 C8          5.2498   54.3923   22.0373 C.2       1 UNK         0.0000 
      9 N9          4.4423   53.8826   21.1222 N.2       1 UNK         0.0000 
     10 C10         5.0664   54.1670   20.0058 C.2       1 UNK         0.0000 
     11 O11         6.2165   54.8547   20.1949 O.3       1 UNK         0.0000 
     12 N12         6.3255   54.9962   21.5738 N.2       1 UNK         0.0000 
     13 C13         4.6483   53.9001   18.5662 C.3       1 UNK         0.0000 
     14 N14         3.1507   53.5017   18.4826 N.4       1 UNK         0.0000 
     15 C15         2.5403   53.9162   17.1182 C.3       1 UNK         0.0000 
     16 C16         1.0322   53.6071   17.1447 C.3       1 UNK         0.0000 
     17 C17         0.7383   52.1186   17.4343 C.3       1 UNK         0.0000 
     18 C18         1.4487   51.6853   18.7415 C.3       1 UNK         0.0000 
     19 H19         0.9954   52.2002   19.5947 H         1 UNK         0.0000 
     20 C20         2.9705   51.9826   18.7250 C.3       1 UNK         0.0000 
     21 C21         1.1295   50.1973   18.9980 C.2       1 UNK         0.0000 
     22 O22         0.1162   49.9052   19.6321 O.2       1 UNK         0.0000 
     23 N23         1.9531   49.2657   18.4819 N.am      1 UNK         0.0000 
     24 C24         1.7400   47.8216   18.5596 C.3       1 UNK         0.0000 
     25 C25         0.8098   47.3177   17.4408 C.3       1 UNK         0.0000 
     26 C26         0.5559   45.8051   17.4645 C.3       1 UNK         0.0000 
     27 S27        -0.4225   45.2293   18.8813 S.3       1 UNK         0.0000 
     28 C28        -0.5485   43.4573   18.5038 C.3       1 UNK         0.0000 
     29 C29         0.5451   42.6417   19.1487 C.2       1 UNK         0.0000 
     30 C30         1.6254   41.9140   18.6664 C.2       1 UNK         0.0000 
     31 C31         2.2368   41.3115   19.7672 C.2       1 UNK         0.0000 
     32 C32         1.5039   41.6979   20.8761 C.2       1 UNK         0.0000 
     33 O33         0.4748   42.4965   20.4981 O.3       1 UNK         0.0000 
     34 H34         2.3474   53.8816   25.6595 H         1 UNK         0.0000 
     35 H35         2.8335   53.9749   23.2536 H         1 UNK         0.0000 
     36 H36         6.9961   54.6438   24.1378 H         1 UNK         0.0000 
     37 H37         4.1730   54.1408   27.3122 H         1 UNK         0.0000 
     38 H38         5.2255   53.1072   18.0812 H         1 UNK         0.0000 
     39 H39         4.7613   54.8112   17.9748 H         1 UNK         0.0000 
     40 H40         3.0770   53.3825   16.3309 H         1 UNK         0.0000 
     41 H41         2.6956   54.9932   17.0126 H         1 UNK         0.0000 
     42 H42         0.5873   53.8924   16.1892 H         1 UNK         0.0000 
     43 H43         0.5457   54.2344   17.8975 H         1 UNK         0.0000 
     44 H44         1.1278   51.5643   16.5744 H         1 UNK         0.0000 
     45 H45        -0.3463   52.0166   17.5097 H         1 UNK         0.0000 
     46 H46         3.4333   51.7528   19.6871 H         1 UNK         0.0000 
     47 H47         3.5035   51.4834   17.9113 H         1 UNK         0.0000 
     48 H48         2.7751   49.5514   17.9510 H         1 UNK         0.0000 
     49 H49         1.3609   47.5283   19.5428 H         1 UNK         0.0000 
     50 H50         2.7051   47.3170   18.4819 H         1 UNK         0.0000 
     51 H51         1.2346   47.5957   16.4746 H         1 UNK         0.0000 
     52 H52        -0.1480   47.8349   17.5084 H         1 UNK         0.0000 
     53 H53         1.5033   45.2646   17.4510 H         1 UNK         0.0000 
     54 H54         0.0337   45.5203   16.5520 H         1 UNK         0.0000 
     55 H55        -0.6072   43.3052   17.4260 H         1 UNK         0.0000 
     56 H56        -1.5158   43.1466   18.8971 H         1 UNK         0.0000 
     57 H57         1.9337   41.8309   17.6346 H         1 UNK         0.0000 
     58 H58         3.1049   40.6683   19.7557 H         1 UNK         0.0000 
     59 H59         1.5634   41.4866   21.9343 H         1 UNK         0.0000 
     60 H60         2.6619   54.0219   19.2068 H         1 UNK         0.0000 
@<TRIPOS>BOND
     1    1    6 ar   
     2    1    2 ar   
     3    1   34 1    
     4    2    3 ar   
     5    2   35 1    
     6    3    4 ar   
     7    3    8 1    
     8    4    5 ar   
     9    4   36 1    
    10    5    6 ar   
    11    5    7 1    
    12    6   37 1    
    13    8   12 2    
    14    8    9 1    
    15    9   10 2    
    16   10   11 1    
    17   10   13 1    
    18   11   12 1    
    19   13   14 1    
    20   13   38 1    
    21   13   39 1    
    22   14   20 1    
    23   14   15 1    
    24   14   60 1    
    25   15   16 1    
    26   15   40 1    
    27   15   41 1    
    28   16   17 1    
    29   16   42 1    
    30   16   43 1    
    31   17   18 1    
    32   17   44 1    
    33   17   45 1    
    34   18   19 1    
    35   18   20 1    
    36   18   21 1    
    37   20   46 1    
    38   20   47 1    
    39   21   22 2    
    40   21   23 am   BACKBONE|DICT|INTERRES
    41   23   24 1    
    42   23   48 1    
    43   24   25 1    
    44   24   49 1    
    45   24   50 1    
    46   25   26 1    
    47   25   51 1    
    48   25   52 1    
    49   26   27 1    
    50   26   53 1    
    51   26   54 1    
    52   27   28 1    
    53   28   29 1    
    54   28   55 1    
    55   28   56 1    
    56   29   33 1    
    57   29   30 2    
    58   30   31 1    
    59   30   57 1    
    60   31   32 2    
    61   31   58 1    
    62   32   33 1    
    63   32   59 1    
@<TRIPOS>SUBSTRUCTURE
     1 UNK         1 GROUP             0       ****    0 ROOT    
