ZINC16443065_262
                    3D
 Schrodinger Suite 2024-2.
 60 63  0  0  1  0            999 V2000
    4.7963   53.4388   16.6971 C   0  0  0  0  0  0
    6.1061   54.2377   16.8311 C   0  0  1  0  0  0
    5.9611   55.2211   16.3803 H   0  0  0  0  0  0
    6.5139   54.5536   18.2993 C   0  0  0  0  0  0
    7.6833   54.8575   18.5481 O   0  0  0  0  0  0
    5.5475   54.4613   19.2381 N   0  0  0  0  0  0
    5.6606   54.5701   20.6314 C   0  0  0  0  0  0
    4.7042   53.8722   21.3638 C   0  0  0  0  0  0
    4.7657   53.8533   22.7498 C   0  0  0  0  0  0
    5.7749   54.5505   23.4354 C   0  0  0  0  0  0
    6.7189   55.2737   22.6886 C   0  0  0  0  0  0
    6.6594   55.2966   21.2963 C   0  0  0  0  0  0
    5.8223   54.5854   24.9506 C   0  0  0  0  0  0
    6.8302   54.9841   25.5382 O   0  0  0  0  0  0
    4.6807   54.1931   25.5583 N   0  0  0  0  0  0
    4.3337   54.0964   26.9160 C   0  0  0  0  0  0
    5.1377   54.5735   27.9630 C   0  0  0  0  0  0
    4.7042   54.4735   29.2815 C   0  0  0  0  0  0
    3.5057   53.8281   29.5685 C   0  0  0  0  0  0
    2.7024   53.3462   28.5407 C   0  0  0  0  0  0
    3.0932   53.4930   27.2003 C   0  0  0  0  0  0
    2.3118   53.0687   26.1339 O   0  0  0  0  0  0
    1.0815   52.3983   26.3868 C   0  0  0  0  0  0
    7.1720   53.8740   14.5311 C   0  0  0  0  0  0
    8.5334   53.6153   13.8689 C   0  0  0  0  0  0
    9.1784   52.3086   14.3216 C   0  0  0  0  0  0
   10.1585   51.7036   13.5262 C   0  0  0  0  0  0
   10.8052   50.5415   13.9349 C   0  0  0  0  0  0
   10.4877   49.9711   15.1630 C   0  0  0  0  0  0
    9.5065   50.5549   15.9600 C   0  0  0  0  0  0
    8.8225   51.7067   15.5504 C   0  0  0  0  0  0
    7.6757   52.2425   16.4121 C   0  0  0  0  0  0
    3.9477   54.0156   17.0694 H   0  0  0  0  0  0
    4.5961   53.2079   15.6508 H   0  0  0  0  0  0
    4.8496   52.4979   17.2484 H   0  0  0  0  0  0
    4.6540   54.1188   18.9206 H   0  0  0  0  0  0
    3.9195   53.3180   20.8664 H   0  0  0  0  0  0
    4.0066   53.2894   23.2700 H   0  0  0  0  0  0
    7.5044   55.8260   23.1841 H   0  0  0  0  0  0
    7.4039   55.8587   20.7529 H   0  0  0  0  0  0
    3.9355   53.8878   24.9521 H   0  0  0  0  0  0
    6.0800   55.0663   27.7855 H   0  0  0  0  0  0
    5.3111   54.8962   30.0706 H   0  0  0  0  0  0
    3.1852   53.6969   30.5857 H   0  0  0  0  0  0
    1.7719   52.8692   28.8064 H   0  0  0  0  0  0
    0.6151   52.1343   25.4383 H   0  0  0  0  0  0
    1.2359   51.4736   26.9461 H   0  0  0  0  0  0
    0.3800   53.0299   26.9334 H   0  0  0  0  0  0
    6.3969   53.1784   14.1995 H   0  0  0  0  0  0
    6.8534   54.8992   14.3305 H   0  0  0  0  0  0
    9.2145   54.4347   14.1078 H   0  0  0  0  0  0
    8.4215   53.6290   12.7832 H   0  0  0  0  0  0
   10.4355   52.1424   12.5780 H   0  0  0  0  0  0
   11.5550   50.0955   13.2944 H   0  0  0  0  0  0
   10.9921   49.0738   15.4908 H   0  0  0  0  0  0
    9.2601   50.0939   16.9064 H   0  0  0  0  0  0
    6.7701   51.6620   16.2347 H   0  0  0  0  0  0
    7.9106   52.2172   17.4780 H   0  0  0  0  0  0
    7.3554   53.7175   16.0570 N   0  3  2  0  0  0
    8.1334   54.2979   16.3481 H   0  0  0  0  0  0
  1  2  1  0  0  0
  1 33  1  0  0  0
  1 34  1  0  0  0
  1 35  1  0  0  0
  2  3  1  0  0  0
  2  4  1  0  0  0
  2 59  1  0  0  0
  4  5  2  0  0  0
  4  6  1  0  0  0
  6  7  1  0  0  0
  6 36  1  0  0  0
  7 12  2  0  0  0
  7  8  1  0  0  0
  8  9  2  0  0  0
  8 37  1  0  0  0
  9 10  1  0  0  0
  9 38  1  0  0  0
 10 11  2  0  0  0
 10 13  1  0  0  0
 11 12  1  0  0  0
 11 39  1  0  0  0
 12 40  1  0  0  0
 13 14  2  0  0  0
 13 15  1  0  0  0
 15 16  1  0  0  0
 15 41  1  0  0  0
 16 21  2  0  0  0
 16 17  1  0  0  0
 17 18  2  0  0  0
 17 42  1  0  0  0
 18 19  1  0  0  0
 18 43  1  0  0  0
 19 20  2  0  0  0
 19 44  1  0  0  0
 20 21  1  0  0  0
 20 45  1  0  0  0
 21 22  1  0  0  0
 22 23  1  0  0  0
 23 46  1  0  0  0
 23 47  1  0  0  0
 23 48  1  0  0  0
 24 25  1  0  0  0
 24 49  1  0  0  0
 24 50  1  0  0  0
 24 59  1  0  0  0
 25 26  1  0  0  0
 25 51  1  0  0  0
 25 52  1  0  0  0
 26 31  2  0  0  0
 26 27  1  0  0  0
 27 28  2  0  0  0
 27 53  1  0  0  0
 28 29  1  0  0  0
 28 54  1  0  0  0
 29 30  2  0  0  0
 29 55  1  0  0  0
 30 31  1  0  0  0
 30 56  1  0  0  0
 31 32  1  0  0  0
 32 57  1  0  0  0
 32 58  1  0  0  0
 32 59  1  0  0  0
 59 60  1  0  0  0
M  CHG  1  59   1
M  END
> <i_i_glide_confnum>
1

> <i_i_glide_lignum>
263

> <i_i_glide_posenum>
348

> <i_i_glide_rotatable_bonds>
8

> <i_m_Source_File_Index>
3200

> <b_m_subgroup_collapsed>
0

> <r_i_docking_score>
-5.8988

> <r_i_glide_ecoul>
-4.31399

> <r_i_glide_eff_state_penalty>
0

> <r_i_glide_einternal>
3.55546

> <r_i_glide_emodel>
-61.416

> <r_i_glide_energy>
-45.6231

> <r_i_glide_erotb>
0.643612

> <r_i_glide_esite>
-0.00606672

> <r_i_glide_evdw>
-41.3091

> <r_i_glide_gscore>
-5.8988

> <r_i_glide_hbond>
-0.29779

> <r_i_glide_ligand_efficiency>
-0.184338

> <r_i_glide_ligand_efficiency_ln>
-1.3209

> <r_i_glide_ligand_efficiency_sa>
-0.585235

> <r_i_glide_lipo>
-2.63497

> <r_i_glide_metal>
0

> <r_i_glide_rewards>
-0.891034

> <s_i_glide_gridfile>
wee1_glide-grid

> <s_m_Source_File>
wee1_decoys_glide_SP.sdf

> <s_m_Source_Path>
/Users/zhangxujun/Desktop

> <s_m_entry_id>
3475

> <s_m_entry_name>
wee1_decoys_glide_SP.3200

> <s_m_subgroup_title>
wee1_decoys_glide_SP

> <s_m_subgroupid>
wee1_decoys_glide_SP


$$$$
