@<TRIPOS>MOLECULE
ZINC08833107_4518
64   69    1
SMALL
USER_CHARGES


@<TRIPOS>ATOM
      1 C1          0.3261   54.6374   31.0488 C.ar      1 UNK         0.0000 
      2 C2          1.1032   55.7901   30.8740 C.ar      1 UNK         0.0000 
      3 C3          1.9046   55.9624   29.7473 C.ar      1 UNK         0.0000 
      4 C4          1.8996   54.9216   28.8189 C.ar      1 UNK         0.0000 
      5 C5          1.1044   53.7580   28.9514 C.ar      1 UNK         0.0000 
      6 C6          0.3083   53.6140   30.0967 C.ar      1 UNK         0.0000 
      7 C7          1.3572   53.0004   27.7675 C.2       1 UNK         0.0000 
      8 C8          2.2907   53.7291   27.0330 C.2       1 UNK         0.0000 
      9 O9          2.6393   54.8824   27.6816 O.3       1 UNK         0.0000 
     10 C10         2.8320   53.5059   25.7248 C.2       1 UNK         0.0000 
     11 O11         2.2178   52.8269   24.9030 O.2       1 UNK         0.0000 
     12 N12         4.0037   54.1487   25.5286 N.am      1 UNK         0.0000 
     13 C13         4.7476   54.3158   24.3547 C.ar      1 UNK         0.0000 
     14 C14         5.9504   55.0130   24.4717 C.ar      1 UNK         0.0000 
     15 C15         6.7043   55.2959   23.3335 C.ar      1 UNK         0.0000 
     16 C16         6.2859   54.8642   22.0762 C.ar      1 UNK         0.0000 
     17 C17         5.0903   54.1399   21.9518 C.ar      1 UNK         0.0000 
     18 C18         4.3311   53.8765   23.0902 C.ar      1 UNK         0.0000 
     19 N19         4.5290   53.6169   20.7764 N.pl3     1 UNK         0.0000 
     20 C20         4.7943   53.6514   19.4347 C.2       1 UNK         0.0000 
     21 S21         6.0105   54.4962   18.6746 S.2       1 UNK         0.0000 
     22 N22         3.9720   52.8969   18.6360 N.am      1 UNK         0.0000 
     23 C23         2.8760   52.1512   18.9424 C.2       1 UNK         0.0000 
     24 O24         2.3595   52.1023   20.0639 O.2       1 UNK         0.0000 
     25 C25         2.2690   51.3479   17.7758 C.3       1 UNK         0.0000 
     26 C26         1.3977   50.0856   18.1014 C.3       1 UNK         0.0000 
     27 C27         0.0658   50.4444   18.8490 C.3       1 UNK         0.0000 
     28 C28        -0.7851   49.1734   19.1210 C.3       1 UNK         0.0000 
     29 C29         0.0290   48.1931   20.0049 C.3       1 UNK         0.0000 
     30 C30         1.3335   47.7904   19.2700 C.3       1 UNK         0.0000 
     31 C31         2.1804   49.0596   18.9904 C.3       1 UNK         0.0000 
     32 C32         0.9809   47.1078   17.9239 C.3       1 UNK         0.0000 
     33 C33         0.1676   48.0908   17.0406 C.3       1 UNK         0.0000 
     34 C34        -1.1383   48.4892   17.7759 C.3       1 UNK         0.0000 
     35 C35         1.0111   49.3654   16.7689 C.3       1 UNK         0.0000 
     36 H36        -0.2606   54.5236   31.9496 H         1 UNK         0.0000 
     37 H37         1.1049   56.5560   31.6386 H         1 UNK         0.0000 
     38 H38         2.5113   56.8474   29.6121 H         1 UNK         0.0000 
     39 H39        -0.3009   52.7325   30.2453 H         1 UNK         0.0000 
     40 H40         0.9156   52.0608   27.4666 H         1 UNK         0.0000 
     41 H41         4.3648   54.6318   26.3355 H         1 UNK         0.0000 
     42 H42         6.2897   55.3714   25.4329 H         1 UNK         0.0000 
     43 H43         7.6057   55.8808   23.4218 H         1 UNK         0.0000 
     44 H44         6.9090   55.1039   21.2304 H         1 UNK         0.0000 
     45 H45         3.4037   53.3409   22.9669 H         1 UNK         0.0000 
     46 H46         3.6944   53.0806   20.9827 H         1 UNK         0.0000 
     47 H47         4.2697   52.8317   17.6762 H         1 UNK         0.0000 
     48 H48         3.0977   51.0482   17.1316 H         1 UNK         0.0000 
     49 H49         1.6720   52.0454   17.1888 H         1 UNK         0.0000 
     50 H50        -0.5115   51.1584   18.2583 H         1 UNK         0.0000 
     51 H51         0.2510   50.9357   19.8038 H         1 UNK         0.0000 
     52 H52        -1.7019   49.4507   19.6422 H         1 UNK         0.0000 
     53 H53        -0.5658   47.3076   20.2330 H         1 UNK         0.0000 
     54 H54         0.2617   48.6566   20.9637 H         1 UNK         0.0000 
     55 H55         1.9067   47.1026   19.8938 H         1 UNK         0.0000 
     56 H56         2.4859   49.5070   19.9379 H         1 UNK         0.0000 
     57 H57         3.1028   48.7661   18.4857 H         1 UNK         0.0000 
     58 H58         0.4113   46.1934   18.1004 H         1 UNK         0.0000 
     59 H59         1.8933   46.8013   17.4077 H         1 UNK         0.0000 
     60 H60        -0.0786   47.6091   16.0936 H         1 UNK         0.0000 
     61 H61        -1.7327   49.1610   17.1530 H         1 UNK         0.0000 
     62 H62        -1.7578   47.6070   17.9525 H         1 UNK         0.0000 
     63 H63         1.9048   49.0908   16.2075 H         1 UNK         0.0000 
     64 H64         0.4573   50.0479   16.1218 H         1 UNK         0.0000 
@<TRIPOS>BOND
     1    1    6 ar   
     2    1    2 ar   
     3    1   36 1    
     4    2    3 ar   
     5    2   37 1    
     6    3    4 ar   
     7    3   38 1    
     8    4    9 1    
     9    4    5 ar   
    10    5    6 ar   
    11    5    7 1    
    12    6   39 1    
    13    7    8 2    
    14    7   40 1    
    15    8    9 1    
    16    8   10 1    
    17   10   11 2    
    18   10   12 am   BACKBONE|DICT|INTERRES
    19   12   13 1    
    20   12   41 1    
    21   13   18 ar   
    22   13   14 ar   
    23   14   15 ar   
    24   14   42 1    
    25   15   16 ar   
    26   15   43 1    
    27   16   17 ar   
    28   16   44 1    
    29   17   18 ar   
    30   17   19 1    
    31   18   45 1    
    32   19   20 1    
    33   19   46 1    
    34   20   21 2    
    35   20   22 am   BACKBONE|DICT|INTERRES
    36   22   23 am   BACKBONE|DICT|INTERRES
    37   22   47 1    
    38   23   24 2    
    39   23   25 1    
    40   25   26 1    
    41   25   48 1    
    42   25   49 1    
    43   26   31 1    
    44   26   35 1    
    45   26   27 1    
    46   27   28 1    
    47   27   50 1    
    48   27   51 1    
    49   28   34 1    
    50   28   29 1    
    51   28   52 1    
    52   29   30 1    
    53   29   53 1    
    54   29   54 1    
    55   30   31 1    
    56   30   32 1    
    57   30   55 1    
    58   31   56 1    
    59   31   57 1    
    60   32   33 1    
    61   32   58 1    
    62   32   59 1    
    63   33   34 1    
    64   33   35 1    
    65   33   60 1    
    66   34   61 1    
    67   34   62 1    
    68   35   63 1    
    69   35   64 1    
@<TRIPOS>SUBSTRUCTURE
     1 UNK         1 GROUP             0       ****    0 ROOT    
