@<TRIPOS>MOLECULE
ZINC22783320_2429
65   70    1
SMALL
USER_CHARGES


@<TRIPOS>ATOM
      1 C1         -4.3845   51.2593   23.3244 C.3       1 UNK         0.0000 
      2 C2         -2.9468   50.7441   23.4283 C.3       1 UNK         0.0000 
      3 H3         -3.0183   49.6552   23.3776 H         1 UNK         0.0000 
      4 C4         -2.0521   51.2057   22.2398 C.2       1 UNK         0.0000 
      5 O5         -2.4135   52.0720   21.4419 O.2       1 UNK         0.0000 
      6 N6         -0.8688   50.5806   22.1527 N.am      1 UNK         0.0000 
      7 C7          0.2283   50.7381   21.2043 C.3       1 UNK         0.0000 
      8 C8         -0.1313   50.1764   19.7952 C.3       1 UNK         0.0000 
      9 C9          1.0943   50.2284   18.8452 C.3       1 UNK         0.0000 
     10 C10         2.2439   49.3803   19.4505 C.3       1 UNK         0.0000 
     11 C11         2.6367   49.9598   20.8307 C.3       1 UNK         0.0000 
     12 C12         1.4180   49.9118   21.7697 C.3       1 UNK         0.0000 
     13 C13         3.1154   51.4206   20.6707 C.3       1 UNK         0.0000 
     14 C14         1.9627   52.2672   20.0781 C.3       1 UNK         0.0000 
     15 C15         1.5670   51.6974   18.6913 C.3       1 UNK         0.0000 
     16 C16         0.7318   52.2098   21.0288 C.3       1 UNK         0.0000 
     17 N17        -2.3375   51.0749   24.7384 N.3       1 UNK         0.0000 
     18 C18        -2.3121   52.4933   25.1434 C.3       1 UNK         0.0000 
     19 C19        -1.9649   52.6483   26.6386 C.3       1 UNK         0.0000 
     20 N20        -0.6417   51.9186   26.9329 N.4       1 UNK         0.0000 
     21 C21        -0.8538   50.4229   26.6410 C.3       1 UNK         0.0000 
     22 C22        -1.1926   50.2400   25.1545 C.3       1 UNK         0.0000 
     23 C23        -0.1311   52.1399   28.3853 C.3       1 UNK         0.0000 
     24 C24         1.3389   52.5774   28.3295 C.ar      1 UNK         0.0000 
     25 N25         2.0452   52.2178   29.3507 N.2       1 UNK         0.0000 
     26 C26         3.3574   52.4801   29.4756 C.ar      1 UNK         0.0000 
     27 O27         4.0392   52.1043   30.4261 O.2       1 UNK         0.0000 
     28 C28         3.9207   53.2403   28.3454 C.ar      1 UNK         0.0000 
     29 C29         3.0691   53.5869   27.2884 C.ar      1 UNK         0.0000 
     30 N30         1.7416   53.2476   27.2871 N.ar      1 UNK         0.0000 
     31 C31         3.7472   54.2848   26.2802 C.2       1 UNK         0.0000 
     32 C32         5.0997   54.4548   26.5616 C.2       1 UNK         0.0000 
     33 S33         5.5589   53.7464   28.0828 S.3       1 UNK         0.0000 
     34 H34        -4.8641   50.8570   22.4304 H         1 UNK         0.0000 
     35 H35        -4.9561   50.9297   24.1915 H         1 UNK         0.0000 
     36 H36        -4.4190   52.3446   23.2821 H         1 UNK         0.0000 
     37 H37        -0.6906   49.8964   22.8699 H         1 UNK         0.0000 
     38 H38        -0.9572   50.7413   19.3637 H         1 UNK         0.0000 
     39 H39        -0.4851   49.1473   19.8799 H         1 UNK         0.0000 
     40 H40         0.8227   49.8270   17.8665 H         1 UNK         0.0000 
     41 H41         1.9405   48.3347   19.5457 H         1 UNK         0.0000 
     42 H42         3.1044   49.3815   18.7829 H         1 UNK         0.0000 
     43 H43         3.4222   49.3632   21.2831 H         1 UNK         0.0000 
     44 H44         1.1215   48.8730   21.9269 H         1 UNK         0.0000 
     45 H45         1.7058   50.2868   22.7559 H         1 UNK         0.0000 
     46 H46         3.9900   51.4640   20.0189 H         1 UNK         0.0000 
     47 H47         3.4328   51.8292   21.6304 H         1 UNK         0.0000 
     48 H48         2.3053   53.2967   19.9631 H         1 UNK         0.0000 
     49 H49         0.7831   52.3045   18.2420 H         1 UNK         0.0000 
     50 H50         2.4170   51.7465   18.0073 H         1 UNK         0.0000 
     51 H51         0.9898   52.6428   21.9961 H         1 UNK         0.0000 
     52 H52        -0.0624   52.8387   20.6271 H         1 UNK         0.0000 
     53 H53        -1.5025   52.9627   24.5780 H         1 UNK         0.0000 
     54 H54        -3.2466   53.0138   24.9384 H         1 UNK         0.0000 
     55 H55        -2.7403   52.2296   27.2844 H         1 UNK         0.0000 
     56 H56        -1.8024   53.6966   26.8817 H         1 UNK         0.0000 
     57 H57        -1.6690   50.0969   27.2821 H         1 UNK         0.0000 
     58 H58         0.0711   49.9041   26.8935 H         1 UNK         0.0000 
     59 H59        -1.3626   49.1837   24.9454 H         1 UNK         0.0000 
     60 H60        -0.3124   50.5909   24.6126 H         1 UNK         0.0000 
     61 H61        -0.7333   52.9243   28.8412 H         1 UNK         0.0000 
     62 H62        -0.2846   51.2192   28.9511 H         1 UNK         0.0000 
     63 H63         3.2653   54.6402   25.3801 H         1 UNK         0.0000 
     64 H64         5.8435   54.9478   25.9511 H         1 UNK         0.0000 
     65 H65         0.0952   52.2951   26.3440 H         1 UNK         0.0000 
@<TRIPOS>BOND
     1    1    2 1    
     2    1   34 1    
     3    1   35 1    
     4    1   36 1    
     5    2    3 1    
     6    2    4 1    
     7    2   17 1    
     8    4    5 2    
     9    4    6 am   BACKBONE|DICT|INTERRES
    10    6    7 1    
    11    6   37 1    
    12    7   12 1    
    13    7   16 1    
    14    7    8 1    
    15    8    9 1    
    16    8   38 1    
    17    8   39 1    
    18    9   15 1    
    19    9   10 1    
    20    9   40 1    
    21   10   11 1    
    22   10   41 1    
    23   10   42 1    
    24   11   12 1    
    25   11   13 1    
    26   11   43 1    
    27   12   44 1    
    28   12   45 1    
    29   13   14 1    
    30   13   46 1    
    31   13   47 1    
    32   14   15 1    
    33   14   16 1    
    34   14   48 1    
    35   15   49 1    
    36   15   50 1    
    37   16   51 1    
    38   16   52 1    
    39   17   22 1    
    40   17   18 1    
    41   18   19 1    
    42   18   53 1    
    43   18   54 1    
    44   19   20 1    
    45   19   55 1    
    46   19   56 1    
    47   20   21 1    
    48   20   23 1    
    49   20   65 1    
    50   21   22 1    
    51   21   57 1    
    52   21   58 1    
    53   22   59 1    
    54   22   60 1    
    55   23   24 1    
    56   23   61 1    
    57   23   62 1    
    58   24   30 ar   
    59   24   25 ar   
    60   25   26 ar   
    61   26   27 2    
    62   26   28 ar   
    63   28   33 1    
    64   28   29 ar   
    65   29   30 ar   
    66   29   31 1    
    67   31   32 2    
    68   31   63 1    
    69   32   33 1    
    70   32   64 1    
@<TRIPOS>SUBSTRUCTURE
     1 UNK         1 GROUP             0       ****    0 ROOT    
