@<TRIPOS>MOLECULE
ZINC32127134_4067
61   65    1
SMALL
USER_CHARGES


@<TRIPOS>ATOM
      1 C1          1.1636   53.8704   17.2863 C.ar      1 UNK         0.0000 
      2 C2         -0.0418   54.5344   17.0685 C.ar      1 UNK         0.0000 
      3 C3         -1.2248   53.8045   16.9513 C.ar      1 UNK         0.0000 
      4 C4         -1.2039   52.4131   17.0089 C.ar      1 UNK         0.0000 
      5 C5          0.0019   51.7481   17.2237 C.ar      1 UNK         0.0000 
      6 C6          1.1828   52.4766   17.4043 C.ar      1 UNK         0.0000 
      7 C7          2.4955   51.7560   17.7092 C.3       1 UNK         0.0000 
      8 N8          2.7046   51.2919   19.1760 N.4       1 UNK         0.0000 
      9 C9          1.7640   50.1396   19.5782 C.3       1 UNK         0.0000 
     10 C10         2.0714   49.6928   21.0229 C.3       1 UNK         0.0000 
     11 N11         1.9925   50.7838   22.0144 N.pl3     1 UNK         0.0000 
     12 C12         2.8525   51.9174   21.6252 C.3       1 UNK         0.0000 
     13 C13         2.5849   52.4483   20.1947 C.3       1 UNK         0.0000 
     14 C14         1.1782   50.7482   23.1527 C.ar      1 UNK         0.0000 
     15 C15         0.8132   49.5266   23.7381 C.ar      1 UNK         0.0000 
     16 C16        -0.0334   49.4734   24.8429 C.ar      1 UNK         0.0000 
     17 C17        -0.5525   50.6489   25.3813 C.ar      1 UNK         0.0000 
     18 C18        -0.1546   51.8813   24.8484 C.ar      1 UNK         0.0000 
     19 C19         0.6891   51.9261   23.7377 C.ar      1 UNK         0.0000 
     20 N20        -1.4587   50.5248   26.4572 N.pl3     1 UNK         0.0000 
     21 C21        -2.7083   51.0579   26.6453 C.2       1 UNK         0.0000 
     22 S22        -3.4320   52.1626   25.5907 S.2       1 UNK         0.0000 
     23 N23        -3.2959   50.4967   27.7529 N.am      1 UNK         0.0000 
     24 C24        -4.5135   50.6712   28.3293 C.2       1 UNK         0.0000 
     25 O25        -5.1942   51.6964   28.2427 O.2       1 UNK         0.0000 
     26 C26        -5.0224   49.5104   29.1543 C.ar      1 UNK         0.0000 
     27 C27        -4.4954   48.2090   28.9881 C.ar      1 UNK         0.0000 
     28 C28        -4.9516   47.1300   29.7481 C.ar      1 UNK         0.0000 
     29 C29        -5.9650   47.3744   30.6630 C.ar      1 UNK         0.0000 
     30 C30        -6.5025   48.6175   30.8273 C.ar      1 UNK         0.0000 
     31 C31        -6.0594   49.7096   30.0890 C.ar      1 UNK         0.0000 
     32 O32        -7.4915   48.5580   31.7560 O.3       1 UNK         0.0000 
     33 C33        -7.3926   47.2820   32.3252 C.3       1 UNK         0.0000 
     34 O34        -6.5977   46.4965   31.4816 O.3       1 UNK         0.0000 
     35 Cl35       -2.7246   54.6343   16.7419 Cl        1 UNK         0.0000 
     36 H36         2.0702   54.4473   17.4029 H         1 UNK         0.0000 
     37 H37        -0.0577   55.6152   17.0084 H         1 UNK         0.0000 
     38 H38        -2.1200   51.8509   16.8942 H         1 UNK         0.0000 
     39 H39         0.0161   50.6688   17.2732 H         1 UNK         0.0000 
     40 H40         3.3566   52.3965   17.5112 H         1 UNK         0.0000 
     41 H41         2.6131   50.8613   17.0988 H         1 UNK         0.0000 
     42 H42         0.7341   50.4860   19.4665 H         1 UNK         0.0000 
     43 H43         1.9804   49.3362   18.8744 H         1 UNK         0.0000 
     44 H44         3.0889   49.3013   21.0964 H         1 UNK         0.0000 
     45 H45         1.4026   48.8681   21.2704 H         1 UNK         0.0000 
     46 H46         2.8046   52.7387   22.3382 H         1 UNK         0.0000 
     47 H47         3.8750   51.5402   21.6911 H         1 UNK         0.0000 
     48 H48         1.5937   52.8946   20.0929 H         1 UNK         0.0000 
     49 H49         3.3463   53.1757   19.9103 H         1 UNK         0.0000 
     50 H50         1.1872   48.5916   23.3511 H         1 UNK         0.0000 
     51 H51        -0.2990   48.5118   25.2633 H         1 UNK         0.0000 
     52 H52        -0.5199   52.8035   25.2727 H         1 UNK         0.0000 
     53 H53         0.9318   52.8925   23.3247 H         1 UNK         0.0000 
     54 H54        -1.2199   49.7773   27.1016 H         1 UNK         0.0000 
     55 H55        -2.8137   49.6657   28.0827 H         1 UNK         0.0000 
     56 H56        -3.6993   48.0096   28.2848 H         1 UNK         0.0000 
     57 H57        -4.5063   46.1566   29.6153 H         1 UNK         0.0000 
     58 H58        -6.5090   50.6815   30.2329 H         1 UNK         0.0000 
     59 H59        -6.8919   47.3618   33.2880 H         1 UNK         0.0000 
     60 H60        -8.3774   46.8314   32.4535 H         1 UNK         0.0000 
     61 H61         3.6535   50.9273   19.2101 H         1 UNK         0.0000 
@<TRIPOS>BOND
     1    1    6 ar   
     2    1    2 ar   
     3    1   36 1    
     4    2    3 ar   
     5    2   37 1    
     6    3    4 ar   
     7    3   35 1    
     8    4    5 ar   
     9    4   38 1    
    10    5    6 ar   
    11    5   39 1    
    12    6    7 1    
    13    7    8 1    
    14    7   40 1    
    15    7   41 1    
    16    8   13 1    
    17    8    9 1    
    18    8   61 1    
    19    9   10 1    
    20    9   42 1    
    21    9   43 1    
    22   10   11 1    
    23   10   44 1    
    24   10   45 1    
    25   11   12 1    
    26   11   14 1    
    27   12   13 1    
    28   12   46 1    
    29   12   47 1    
    30   13   48 1    
    31   13   49 1    
    32   14   19 ar   
    33   14   15 ar   
    34   15   16 ar   
    35   15   50 1    
    36   16   17 ar   
    37   16   51 1    
    38   17   18 ar   
    39   17   20 1    
    40   18   19 ar   
    41   18   52 1    
    42   19   53 1    
    43   20   21 1    
    44   20   54 1    
    45   21   22 2    
    46   21   23 am   BACKBONE|DICT|INTERRES
    47   23   24 am   BACKBONE|DICT|INTERRES
    48   23   55 1    
    49   24   25 2    
    50   24   26 1    
    51   26   31 ar   
    52   26   27 ar   
    53   27   28 ar   
    54   27   56 1    
    55   28   29 ar   
    56   28   57 1    
    57   29   34 1    
    58   29   30 ar   
    59   30   31 ar   
    60   30   32 1    
    61   31   58 1    
    62   32   33 1    
    63   33   34 1    
    64   33   59 1    
    65   33   60 1    
@<TRIPOS>SUBSTRUCTURE
     1 UNK         1 GROUP             0       ****    0 ROOT    
