@<TRIPOS>MOLECULE
ZINC22801116_618
57   59    1
SMALL
USER_CHARGES


@<TRIPOS>ATOM
      1 C1          2.5801   51.9780   17.4247 C.3       1 UNK         0.0000 
      2 C2          3.1287   53.3904   17.6391 C.3       1 UNK         0.0000 
      3 H3          2.3224   54.0570   17.9576 H         1 UNK         0.0000 
      4 C4          3.7151   53.8638   16.2867 C.2       1 UNK         0.0000 
      5 O5          4.9111   53.7032   16.0398 O.2       1 UNK         0.0000 
      6 N6          2.8384   54.4322   15.4321 N.am      1 UNK         0.0000 
      7 C7          3.0681   54.9739   14.0840 C.3       1 UNK         0.0000 
      8 C8          4.3650   55.6756   13.7324 C.3       1 UNK         0.0000 
      9 C9          4.0533   54.3214   13.1361 C.3       1 UNK         0.0000 
     10 N10         4.2190   53.5406   18.7460 N.4       1 UNK         0.0000 
     11 C11         4.5314   55.0317   19.0424 C.3       1 UNK         0.0000 
     12 C12         5.5800   55.1395   20.1742 C.3       1 UNK         0.0000 
     13 N13         5.1158   54.4968   21.4148 N.3       1 UNK         0.0000 
     14 C14         4.9169   53.0603   21.1277 C.3       1 UNK         0.0000 
     15 C15         3.8183   52.8358   20.0646 C.3       1 UNK         0.0000 
     16 C16         6.1192   54.7164   22.4874 C.3       1 UNK         0.0000 
     17 C17         5.5842   54.4897   23.9212 C.2       1 UNK         0.0000 
     18 O18         6.3888   54.5424   24.8495 O.2       1 UNK         0.0000 
     19 N19         4.2639   54.2282   24.0654 N.am      1 UNK         0.0000 
     20 C20         3.5257   53.9053   25.2185 C.ar      1 UNK         0.0000 
     21 C21         2.2802   53.3062   25.0066 C.ar      1 UNK         0.0000 
     22 C22         1.4879   52.8966   26.0845 C.ar      1 UNK         0.0000 
     23 C23         1.9467   53.1134   27.3884 C.ar      1 UNK         0.0000 
     24 C24         3.1822   53.7267   27.6230 C.ar      1 UNK         0.0000 
     25 C25         3.9660   54.1218   26.5329 C.ar      1 UNK         0.0000 
     26 C26         3.6482   53.9423   29.0596 C.3       1 UNK         0.0000 
     27 F27         3.6903   52.7762   29.7074 F         1 UNK         0.0000 
     28 F28         4.8570   54.4996   29.1263 F         1 UNK         0.0000 
     29 F29         2.7883   54.7496   29.6822 F         1 UNK         0.0000 
     30 C30         0.1384   52.2170   25.8438 C.3       1 UNK         0.0000 
     31 F31        -0.7248   52.4965   26.8226 F         1 UNK         0.0000 
     32 F32        -0.4061   52.6032   24.6867 F         1 UNK         0.0000 
     33 F33         0.3150   50.8961   25.8048 F         1 UNK         0.0000 
     34 H34         1.8852   51.9411   16.5838 H         1 UNK         0.0000 
     35 H35         3.4083   51.2967   17.2254 H         1 UNK         0.0000 
     36 H36         2.0445   51.6287   18.3075 H         1 UNK         0.0000 
     37 H37         1.8822   54.4957   15.7441 H         1 UNK         0.0000 
     38 H38         2.1542   55.3779   13.6402 H         1 UNK         0.0000 
     39 H39         5.1509   55.7620   14.4847 H         1 UNK         0.0000 
     40 H40         4.3150   56.5612   13.0959 H         1 UNK         0.0000 
     41 H41         3.7894   54.2590   12.0803 H         1 UNK         0.0000 
     42 H42         4.6104   53.4445   13.4701 H         1 UNK         0.0000 
     43 H43         4.9471   55.4621   18.1275 H         1 UNK         0.0000 
     44 H44         3.5827   55.5139   19.2812 H         1 UNK         0.0000 
     45 H45         6.5127   54.6651   19.8550 H         1 UNK         0.0000 
     46 H46         5.7806   56.1985   20.3476 H         1 UNK         0.0000 
     47 H47         4.6422   52.5155   22.0322 H         1 UNK         0.0000 
     48 H48         5.8511   52.6332   20.7593 H         1 UNK         0.0000 
     49 H49         2.8424   53.2185   20.3658 H         1 UNK         0.0000 
     50 H50         3.7630   51.7713   19.8301 H         1 UNK         0.0000 
     51 H51         7.0041   54.0980   22.3337 H         1 UNK         0.0000 
     52 H52         6.4945   55.7395   22.4471 H         1 UNK         0.0000 
     53 H53         3.7517   54.2160   23.1936 H         1 UNK         0.0000 
     54 H54         1.9379   53.1316   23.9952 H         1 UNK         0.0000 
     55 H55         1.3398   52.7992   28.2268 H         1 UNK         0.0000 
     56 H56         4.9179   54.5954   26.7204 H         1 UNK         0.0000 
     57 H57         5.0681   53.0977   18.4094 H         1 UNK         0.0000 
@<TRIPOS>BOND
     1    1    2 1    
     2    1   34 1    
     3    1   35 1    
     4    1   36 1    
     5    2    3 1    
     6    2    4 1    
     7    2   10 1    
     8    4    5 2    
     9    4    6 am   BACKBONE|DICT|INTERRES
    10    6    7 1    
    11    6   37 1    
    12    7    9 1    
    13    7    8 1    
    14    7   38 1    
    15    8    9 1    
    16    8   39 1    
    17    8   40 1    
    18    9   41 1    
    19    9   42 1    
    20   10   15 1    
    21   10   11 1    
    22   10   57 1    
    23   11   12 1    
    24   11   43 1    
    25   11   44 1    
    26   12   13 1    
    27   12   45 1    
    28   12   46 1    
    29   13   14 1    
    30   13   16 1    
    31   14   15 1    
    32   14   47 1    
    33   14   48 1    
    34   15   49 1    
    35   15   50 1    
    36   16   17 1    
    37   16   51 1    
    38   16   52 1    
    39   17   18 2    
    40   17   19 am   BACKBONE|DICT|INTERRES
    41   19   20 1    
    42   19   53 1    
    43   20   25 ar   
    44   20   21 ar   
    45   21   22 ar   
    46   21   54 1    
    47   22   23 ar   
    48   22   30 1    
    49   23   24 ar   
    50   23   55 1    
    51   24   25 ar   
    52   24   26 1    
    53   25   56 1    
    54   26   27 1    
    55   26   28 1    
    56   26   29 1    
    57   30   31 1    
    58   30   32 1    
    59   30   33 1    
@<TRIPOS>SUBSTRUCTURE
     1 UNK         1 GROUP             0       ****    0 ROOT    
