ZINC31637082_3226
                    3D
 Schrodinger Suite 2024-2.
 69 72  0  0  1  0            999 V2000
   -1.6039   51.8273   25.1823 C   0  0  0  0  0  0
   -0.2185   52.3971   24.9386 C   0  0  0  0  0  0
    0.7177   52.4088   25.9711 C   0  0  0  0  0  0
    1.9940   52.9151   25.7444 C   0  0  0  0  0  0
    2.3545   53.4016   24.4776 C   0  0  0  0  0  0
    1.3957   53.4123   23.4559 C   0  0  0  0  0  0
    0.1217   52.8966   23.6822 C   0  0  0  0  0  0
    3.6793   53.8727   24.2392 N   0  0  0  0  0  0
    4.4541   53.7962   23.0889 C   0  0  0  0  0  0
    5.6276   54.4968   23.4040 C   0  0  0  0  0  0
    5.5329   54.7785   24.7695 C   0  0  0  0  0  0
    4.3579   54.4516   25.2474 N   0  0  0  0  0  0
    6.5621   55.4155   25.6649 C   0  0  0  0  0  0
    6.7047   54.8696   22.6028 N   0  0  0  0  0  0
    6.5892   55.2920   21.3269 C   0  0  0  0  0  0
    5.5155   55.3462   20.7243 O   0  0  0  0  0  0
    7.9095   55.6944   20.6281 C   0  0  0  0  0  0
    7.6863   56.1118   19.2221 N   0  0  0  0  0  0
    7.0225   57.2398   18.8815 C   0  0  0  0  0  0
    6.7044   58.1699   19.6229 O   0  0  0  0  0  0
    6.7324   57.1299   17.3905 C   0  0  2  0  0  0
    7.5061   55.9503   17.0944 N   0  0  0  0  0  0
    7.9733   55.3062   18.1694 C   0  0  0  0  0  0
    8.4536   54.1767   18.1858 O   0  0  0  0  0  0
    7.3655   58.3621   16.6895 C   0  0  0  0  0  0
    5.2173   56.9178   17.1135 C   0  0  0  0  0  0
    4.6073   55.6860   17.3961 C   0  0  0  0  0  0
    3.2639   55.4665   17.1135 C   0  0  0  0  0  0
    2.4761   56.4728   16.5371 C   0  0  0  0  0  0
    3.0707   57.7220   16.3055 C   0  0  0  0  0  0
    4.4156   57.9456   16.5968 C   0  0  0  0  0  0
    0.9915   56.2326   16.1500 C   0  0  0  0  0  0
    0.8557   56.3154   14.6112 C   0  0  0  0  0  0
    0.0680   57.2976   16.7903 C   0  0  0  0  0  0
    0.4555   54.8468   16.6000 C   0  0  0  0  0  0
    4.0298   53.0639   21.8250 C   0  0  0  0  0  0
   -1.5648   51.0066   25.8999 H   0  0  0  0  0  0
   -2.2706   52.5966   25.5715 H   0  0  0  0  0  0
   -2.0302   51.4193   24.2652 H   0  0  0  0  0  0
    0.4618   52.0190   26.9460 H   0  0  0  0  0  0
    2.7101   52.8974   26.5538 H   0  0  0  0  0  0
    1.6174   53.8190   22.4807 H   0  0  0  0  0  0
   -0.6029   52.8937   22.8817 H   0  0  0  0  0  0
    7.5572   55.2048   25.2837 H   0  0  0  0  0  0
    6.4501   56.4955   25.6813 H   0  0  0  0  0  0
    6.5193   55.0521   26.6930 H   0  0  0  0  0  0
    7.6174   54.9031   23.0385 H   0  0  0  0  0  0
    8.6214   54.8727   20.6696 H   0  0  0  0  0  0
    8.3762   56.4962   21.1932 H   0  0  0  0  0  0
    7.8883   55.8063   16.1721 H   0  0  0  0  0  0
    6.9522   59.3003   17.0631 H   0  0  0  0  0  0
    8.4466   58.4139   16.8323 H   0  0  0  0  0  0
    7.1859   58.3359   15.6143 H   0  0  0  0  0  0
    5.1729   54.8748   17.8307 H   0  0  0  0  0  0
    2.8617   54.4919   17.3419 H   0  0  0  0  0  0
    2.4967   58.5356   15.8872 H   0  0  0  0  0  0
    4.8185   58.9290   16.4001 H   0  0  0  0  0  0
   -0.1698   56.1354   14.2857 H   0  0  0  0  0  0
    1.4871   55.5759   14.1168 H   0  0  0  0  0  0
    1.1439   57.2951   14.2286 H   0  0  0  0  0  0
    0.1147   57.2760   17.8778 H   0  0  0  0  0  0
    0.3210   58.3091   16.4742 H   0  0  0  0  0  0
   -0.9757   57.1397   16.5152 H   0  0  0  0  0  0
    0.5272   54.7186   17.6813 H   0  0  0  0  0  0
   -0.5939   54.7154   16.3329 H   0  0  0  0  0  0
    1.0007   54.0277   16.1292 H   0  0  0  0  0  0
    4.8934   52.7459   21.2407 H   0  0  0  0  0  0
    3.4613   52.1580   22.0362 H   0  0  0  0  0  0
    3.4261   53.6919   21.1688 H   0  0  0  0  0  0
  1  2  1  0  0  0
  1 37  1  0  0  0
  1 38  1  0  0  0
  1 39  1  0  0  0
  2  7  2  0  0  0
  2  3  1  0  0  0
  3  4  2  0  0  0
  3 40  1  0  0  0
  4  5  1  0  0  0
  4 41  1  0  0  0
  5  6  2  0  0  0
  5  8  1  0  0  0
  6  7  1  0  0  0
  6 42  1  0  0  0
  7 43  1  0  0  0
  8 12  1  0  0  0
  8  9  1  0  0  0
  9 10  2  0  0  0
  9 36  1  0  0  0
 10 11  1  0  0  0
 10 14  1  0  0  0
 11 12  2  0  0  0
 11 13  1  0  0  0
 13 44  1  0  0  0
 13 45  1  0  0  0
 13 46  1  0  0  0
 14 15  1  0  0  0
 14 47  1  0  0  0
 15 16  2  0  0  0
 15 17  1  0  0  0
 17 18  1  0  0  0
 17 48  1  0  0  0
 17 49  1  0  0  0
 18 23  1  0  0  0
 18 19  1  0  0  0
 19 20  2  0  0  0
 19 21  1  0  0  0
 21 22  1  0  0  0
 21 25  1  0  0  0
 21 26  1  0  0  0
 22 23  1  0  0  0
 22 50  1  0  0  0
 23 24  2  0  0  0
 25 51  1  0  0  0
 25 52  1  0  0  0
 25 53  1  0  0  0
 26 31  2  0  0  0
 26 27  1  0  0  0
 27 28  2  0  0  0
 27 54  1  0  0  0
 28 29  1  0  0  0
 28 55  1  0  0  0
 29 30  2  0  0  0
 29 32  1  0  0  0
 30 31  1  0  0  0
 30 56  1  0  0  0
 31 57  1  0  0  0
 32 33  1  0  0  0
 32 34  1  0  0  0
 32 35  1  0  0  0
 33 58  1  0  0  0
 33 59  1  0  0  0
 33 60  1  0  0  0
 34 61  1  0  0  0
 34 62  1  0  0  0
 34 63  1  0  0  0
 35 64  1  0  0  0
 35 65  1  0  0  0
 35 66  1  0  0  0
 36 67  1  0  0  0
 36 68  1  0  0  0
 36 69  1  0  0  0
M  END
> <i_i_glide_confnum>
42

> <i_i_glide_lignum>
3227

> <i_i_glide_posenum>
340

> <i_i_glide_rotatable_bonds>
7

> <i_m_Source_File_Index>
3064

> <b_m_subgroup_collapsed>
0

> <r_i_docking_score>
-6.09305

> <r_i_glide_ecoul>
-4.78858

> <r_i_glide_eff_state_penalty>
0

> <r_i_glide_einternal>
4.80099

> <r_i_glide_emodel>
-63.3636

> <r_i_glide_energy>
-47.3797

> <r_i_glide_erotb>
0.513077

> <r_i_glide_esite>
-0.0165635

> <r_i_glide_evdw>
-42.5912

> <r_i_glide_gscore>
-6.09305

> <r_i_glide_hbond>
-0.476009

> <r_i_glide_ligand_efficiency>
-0.169251

> <r_i_glide_ligand_efficiency_ln>
-1.32934

> <r_i_glide_ligand_efficiency_sa>
-0.558856

> <r_i_glide_lipo>
-2.37507

> <r_i_glide_metal>
0

> <r_i_glide_rewards>
-0.890638

> <s_i_glide_gridfile>
wee1_glide-grid

> <s_m_Source_File>
wee1_decoys_glide_SP.sdf

> <s_m_Source_Path>
/Users/zhangxujun/Desktop

> <s_m_entry_id>
3339

> <s_m_entry_name>
wee1_decoys_glide_SP.3064

> <s_m_subgroup_title>
wee1_decoys_glide_SP

> <s_m_subgroupid>
wee1_decoys_glide_SP


$$$$
