ZINC45936509_2268
                    3D
 Schrodinger Suite 2024-2.
 49 53  0  0  1  0            999 V2000
    4.8002   54.6142   29.6497 C   0  0  0  0  0  0
    3.6708   54.1067   28.7925 C   0  0  0  0  0  0
    3.6334   53.9666   27.4048 C   0  0  0  0  0  0
    2.0828   53.2967   26.9854 S   0  0  0  0  0  0
    1.6479   53.2723   28.6584 C   0  0  0  0  0  0
    2.5834   53.7357   29.4436 N   0  0  0  0  0  0
    0.3176   52.7714   29.1669 C   0  0  0  0  0  0
    4.6233   54.2541   26.3770 C   0  0  0  0  0  0
    5.8648   54.6566   26.5184 N   0  0  0  0  0  0
    6.4042   54.7121   25.2342 N   0  0  0  0  0  0
    5.4340   54.3671   24.4242 C   0  0  0  0  0  0
    4.2883   54.0646   25.0779 O   0  0  0  0  0  0
    5.5039   54.0698   22.6876 S   0  0  0  0  0  0
    3.7793   54.4754   22.2366 C   0  0  0  0  0  0
    2.7973   53.3348   22.4284 C   0  0  0  0  0  0
    3.0086   52.2297   21.6766 N   0  0  0  0  0  0
    2.1718   51.1858   21.8806 C   0  0  0  0  0  0
    1.1417   51.2389   22.8545 C   0  0  0  0  0  0
    0.2068   50.2766   23.3472 C   0  0  0  0  0  0
   -0.6553   50.8111   24.3028 C   0  0  0  0  0  0
   -0.3608   52.4970   24.6181 S   0  0  0  0  0  0
    1.0005   52.4897   23.5161 C   0  0  0  0  0  0
    1.7989   53.5433   23.3285 N   0  0  0  0  0  0
   -1.7081   50.0152   25.0730 C   0  0  0  0  0  0
   -1.9539   48.6616   24.3625 C   0  0  2  0  0  0
   -2.4092   48.0031   25.1057 H   0  0  0  0  0  0
   -0.6075   48.0017   23.9892 C   0  0  0  0  0  0
    0.1654   48.8216   22.9298 C   0  0  0  0  0  0
   -2.9557   48.7606   23.1947 C   0  0  0  0  0  0
    2.3904   50.0747   21.0672 N   0  0  0  0  0  0
    4.8371   55.6965   29.6810 H   0  0  0  0  0  0
    4.7043   54.2833   30.6808 H   0  0  0  0  0  0
    5.7701   54.2801   29.2809 H   0  0  0  0  0  0
   -0.4964   53.3731   28.7675 H   0  0  0  0  0  0
    0.2386   52.8072   30.2548 H   0  0  0  0  0  0
    0.1340   51.7387   28.8670 H   0  0  0  0  0  0
    3.4575   55.2969   22.8610 H   0  0  0  0  0  0
    3.7349   54.8340   21.2089 H   0  0  0  0  0  0
   -1.3700   49.8274   26.0946 H   0  0  0  0  0  0
   -2.6388   50.5782   25.1596 H   0  0  0  0  0  0
    0.0115   47.8814   24.8820 H   0  0  0  0  0  0
   -0.7877   47.0019   23.5932 H   0  0  0  0  0  0
   -0.2706   48.7033   21.9366 H   0  0  0  0  0  0
    1.2006   48.4966   22.8816 H   0  0  0  0  0  0
   -2.6063   49.4434   22.4191 H   0  0  0  0  0  0
   -3.1162   47.7869   22.7302 H   0  0  0  0  0  0
   -3.9254   49.1228   23.5387 H   0  0  0  0  0  0
    1.7948   49.2650   21.1472 H   0  0  0  0  0  0
    3.1102   50.1195   20.3587 H   0  0  0  0  0  0
  1  2  1  0  0  0
  1 31  1  0  0  0
  1 32  1  0  0  0
  1 33  1  0  0  0
  2  6  1  0  0  0
  2  3  2  0  0  0
  3  4  1  0  0  0
  3  8  1  0  0  0
  4  5  1  0  0  0
  5  6  2  0  0  0
  5  7  1  0  0  0
  7 34  1  0  0  0
  7 35  1  0  0  0
  7 36  1  0  0  0
  8 12  1  0  0  0
  8  9  2  0  0  0
  9 10  1  0  0  0
 10 11  2  0  0  0
 11 12  1  0  0  0
 11 13  1  0  0  0
 13 14  1  0  0  0
 14 15  1  0  0  0
 14 37  1  0  0  0
 14 38  1  0  0  0
 15 23  2  0  0  0
 15 16  1  0  0  0
 16 17  2  0  0  0
 17 18  1  0  0  0
 17 30  1  0  0  0
 18 22  2  0  0  0
 18 19  1  0  0  0
 19 28  1  0  0  0
 19 20  2  0  0  0
 20 21  1  0  0  0
 20 24  1  0  0  0
 21 22  1  0  0  0
 22 23  1  0  0  0
 24 25  1  0  0  0
 24 39  1  0  0  0
 24 40  1  0  0  0
 25 26  1  0  0  0
 25 27  1  0  0  0
 25 29  1  0  0  0
 27 28  1  0  0  0
 27 41  1  0  0  0
 27 42  1  0  0  0
 28 43  1  0  0  0
 28 44  1  0  0  0
 29 45  1  0  0  0
 29 46  1  0  0  0
 29 47  1  0  0  0
 30 48  1  0  0  0
 30 49  1  0  0  0
M  END
> <i_i_glide_confnum>
28

> <i_i_glide_lignum>
2269

> <i_i_glide_posenum>
63

> <i_i_glide_rotatable_bonds>
4

> <i_m_Source_File_Index>
4938

> <b_m_subgroup_collapsed>
0

> <r_i_docking_score>
-4.79651

> <r_i_glide_ecoul>
-1.41511

> <r_i_glide_eff_state_penalty>
0

> <r_i_glide_einternal>
0.635381

> <r_i_glide_emodel>
-60.0337

> <r_i_glide_energy>
-45.9226

> <r_i_glide_erotb>
0.404743

> <r_i_glide_esite>
0

> <r_i_glide_evdw>
-44.5075

> <r_i_glide_gscore>
-4.79651

> <r_i_glide_hbond>
0

> <r_i_glide_ligand_efficiency>
-0.165397

> <r_i_glide_ligand_efficiency_ln>
-1.09828

> <r_i_glide_ligand_efficiency_sa>
-0.508152

> <r_i_glide_lipo>
-2.24411

> <r_i_glide_metal>
0

> <r_i_glide_rewards>
-0.519503

> <s_i_glide_gridfile>
wee1_glide-grid

> <s_m_Source_File>
wee1_decoys_glide_SP.sdf

> <s_m_Source_Path>
/Users/zhangxujun/Desktop

> <s_m_entry_id>
5213

> <s_m_entry_name>
wee1_decoys_glide_SP.4938

> <s_m_subgroup_title>
wee1_decoys_glide_SP

> <s_m_subgroupid>
wee1_decoys_glide_SP


$$$$
