@<TRIPOS>MOLECULE
ZINC21463952_432
57   60    1
SMALL
USER_CHARGES


@<TRIPOS>ATOM
      1 C1          0.8443   52.3745   25.1795 C.3       1 UNK         0.0000 
      2 C2          1.6393   53.5410   25.8112 C.3       1 UNK         0.0000 
      3 H3          1.1045   54.4420   25.5204 H         1 UNK         0.0000 
      4 C4          1.7350   53.5082   27.3866 C.3       1 UNK         0.0000 
      5 C5          2.2939   54.8686   27.9277 C.3       1 UNK         0.0000 
      6 C6          2.4822   54.8422   29.4652 C.3       1 UNK         0.0000 
      7 C7          3.4808   53.7111   29.8198 C.3       1 UNK         0.0000 
      8 C8          2.8962   52.3503   29.3753 C.3       1 UNK         0.0000 
      9 C9          2.7046   52.3743   27.8451 C.3       1 UNK         0.0000 
     10 C10         1.5193   52.0992   30.0380 C.3       1 UNK         0.0000 
     11 C11         0.5381   53.2333   29.6567 C.3       1 UNK         0.0000 
     12 C12         1.1093   54.5868   30.1422 C.3       1 UNK         0.0000 
     13 C13         0.3652   53.2603   28.1115 C.3       1 UNK         0.0000 
     14 N14         2.9695   53.6632   25.1966 N.am      1 UNK         0.0000 
     15 C15         3.2478   54.0995   23.9575 C.2       1 UNK         0.0000 
     16 O16         2.3790   54.4960   23.1821 O.2       1 UNK         0.0000 
     17 C17         4.7399   54.1845   23.5992 C.3       1 UNK         0.0000 
     18 O18         4.9136   54.1830   22.1777 O.3       1 UNK         0.0000 
     19 C19         5.9039   54.8967   21.5713 C.2       1 UNK         0.0000 
     20 O20         6.7046   55.5902   22.2011 O.2       1 UNK         0.0000 
     21 C21         5.9053   54.7591   20.0727 C.ar      1 UNK         0.0000 
     22 C22         4.7499   54.2892   19.4194 C.ar      1 UNK         0.0000 
     23 C23         4.7196   54.1250   18.0335 C.ar      1 UNK         0.0000 
     24 C24         5.8485   54.4275   17.2745 C.ar      1 UNK         0.0000 
     25 C25         6.9985   54.8962   17.9015 C.ar      1 UNK         0.0000 
     26 C26         7.0418   55.0675   19.2854 C.ar      1 UNK         0.0000 
     27 Br27        8.7038   55.6958   20.0030 Br        1 UNK         0.0000 
     28 S28         3.2300   53.5481   17.2271 S.o2      1 UNK         0.0000 
     29 O29         2.4488   52.7898   18.2094 O.2       1 UNK         0.0000 
     30 O30         3.6187   52.9737   15.9349 O.2       1 UNK         0.0000 
     31 N31         2.3452   55.0078   16.8850 N.pl3     1 UNK         0.0000 
     32 H32        -0.1620   52.3084   25.5867 H         1 UNK         0.0000 
     33 H33         0.7279   52.5044   24.1037 H         1 UNK         0.0000 
     34 H34         1.3164   51.4111   25.3584 H         1 UNK         0.0000 
     35 H35         3.2428   55.1177   27.4512 H         1 UNK         0.0000 
     36 H36         1.6116   55.6801   27.6818 H         1 UNK         0.0000 
     37 H37         2.8750   55.8049   29.7863 H         1 UNK         0.0000 
     38 H38         3.7028   53.6919   30.8807 H         1 UNK         0.0000 
     39 H39         4.4401   53.8918   29.3281 H         1 UNK         0.0000 
     40 H40         3.5876   51.5498   29.6410 H         1 UNK         0.0000 
     41 H41         2.3038   51.4097   27.5332 H         1 UNK         0.0000 
     42 H42         3.6825   52.4965   27.3783 H         1 UNK         0.0000 
     43 H43         1.1157   51.1514   29.6809 H         1 UNK         0.0000 
     44 H44         1.6150   52.0226   31.1225 H         1 UNK         0.0000 
     45 H45        -0.4279   53.0524   30.1318 H         1 UNK         0.0000 
     46 H46         1.1871   54.5897   31.2289 H         1 UNK         0.0000 
     47 H47         0.4165   55.3927   29.9082 H         1 UNK         0.0000 
     48 H48        -0.3637   54.0262   27.8596 H         1 UNK         0.0000 
     49 H49        -0.0752   52.3120   27.7983 H         1 UNK         0.0000 
     50 H50         3.7415   53.3927   25.7861 H         1 UNK         0.0000 
     51 H51         5.2413   53.2970   23.9868 H         1 UNK         0.0000 
     52 H52         5.1860   55.0383   24.1135 H         1 UNK         0.0000 
     53 H53         3.8528   54.0535   19.9770 H         1 UNK         0.0000 
     54 H54         5.8388   54.3023   16.2008 H         1 UNK         0.0000 
     55 H55         7.8703   55.1252   17.3073 H         1 UNK         0.0000 
     56 H56         2.2408   55.2136   15.8881 H         1 UNK         0.0000 
     57 H57         1.5073   55.1299   17.4638 H         1 UNK         0.0000 
@<TRIPOS>BOND
     1    1    2 1    
     2    1   32 1    
     3    1   33 1    
     4    1   34 1    
     5    2    3 1    
     6    2    4 1    
     7    2   14 1    
     8    4    9 1    
     9    4   13 1    
    10    4    5 1    
    11    5    6 1    
    12    5   35 1    
    13    5   36 1    
    14    6   12 1    
    15    6    7 1    
    16    6   37 1    
    17    7    8 1    
    18    7   38 1    
    19    7   39 1    
    20    8    9 1    
    21    8   10 1    
    22    8   40 1    
    23    9   41 1    
    24    9   42 1    
    25   10   11 1    
    26   10   43 1    
    27   10   44 1    
    28   11   12 1    
    29   11   13 1    
    30   11   45 1    
    31   12   46 1    
    32   12   47 1    
    33   13   48 1    
    34   13   49 1    
    35   14   15 am   BACKBONE|DICT|INTERRES
    36   14   50 1    
    37   15   16 2    
    38   15   17 1    
    39   17   18 1    
    40   17   51 1    
    41   17   52 1    
    42   18   19 1    
    43   19   20 2    
    44   19   21 1    
    45   21   26 ar   
    46   21   22 ar   
    47   22   23 ar   
    48   22   53 1    
    49   23   24 ar   
    50   23   28 1    
    51   24   25 ar   
    52   24   54 1    
    53   25   26 ar   
    54   25   55 1    
    55   26   27 1    
    56   28   29 2    
    57   28   30 2    
    58   28   31 1    
    59   31   56 1    
    60   31   57 1    
@<TRIPOS>SUBSTRUCTURE
     1 UNK         1 GROUP             0       ****    0 ROOT    
