@<TRIPOS>MOLECULE
ZINC35729064_3436
52   54    1
SMALL
USER_CHARGES


@<TRIPOS>ATOM
      1 C1          2.5618   55.4615   17.2816 C.3       1 UNK         0.0000 
      2 C2          3.9510   56.0649   17.5596 C.3       1 UNK         0.0000 
      3 C3          5.1434   55.1540   17.1635 C.3       1 UNK         0.0000 
      4 H4          6.0348   55.7824   17.2226 H         1 UNK         0.0000 
      5 C5          5.0240   54.7667   15.6697 C.3       1 UNK         0.0000 
      6 C6          5.3563   53.9272   18.1285 C.3       1 UNK         0.0000 
      7 H7          4.4049   53.4021   18.2098 H         1 UNK         0.0000 
      8 C8          5.7634   54.4186   19.5480 C.2       1 UNK         0.0000 
      9 O9          6.7788   55.1045   19.6852 O.2       1 UNK         0.0000 
     10 N10         4.9514   54.0422   20.5659 N.am      1 UNK         0.0000 
     11 C11         5.2100   54.2304   21.9208 C.2       1 UNK         0.0000 
     12 N12         6.3683   54.5012   22.4817 N.2       1 UNK         0.0000 
     13 N13         6.3020   54.5579   23.8659 N.2       1 UNK         0.0000 
     14 C14         5.0940   54.3383   24.3350 C.2       1 UNK         0.0000 
     15 S15         3.9135   54.0562   23.0674 S.3       1 UNK         0.0000 
     16 C16         4.7582   54.2953   25.8002 C.ar      1 UNK         0.0000 
     17 C17         5.7758   54.4398   26.7549 C.ar      1 UNK         0.0000 
     18 C18         5.4881   54.3755   28.1164 C.ar      1 UNK         0.0000 
     19 C19         4.1760   54.1710   28.5338 C.ar      1 UNK         0.0000 
     20 C20         3.1531   54.0322   27.6000 C.ar      1 UNK         0.0000 
     21 C21         3.4422   54.0969   26.2388 C.ar      1 UNK         0.0000 
     22 F22         3.8925   54.1042   29.8554 F         1 UNK         0.0000 
     23 N23         6.2696   52.8967   17.5970 N.am      1 UNK         0.0000 
     24 C24         7.5339   53.0308   17.1584 C.2       1 UNK         0.0000 
     25 O25         8.2336   54.0262   17.3419 O.2       1 UNK         0.0000 
     26 N26         7.9045   51.9548   16.4369 N.am      1 UNK         0.0000 
     27 C27         9.1598   51.6892   15.8584 C.ar      1 UNK         0.0000 
     28 C28        10.3591   52.0674   16.4817 C.ar      1 UNK         0.0000 
     29 C29        11.5894   51.7472   15.9076 C.ar      1 UNK         0.0000 
     30 C30        11.6359   51.0521   14.7006 C.ar      1 UNK         0.0000 
     31 C31        10.4522   50.6804   14.0664 C.ar      1 UNK         0.0000 
     32 C32         9.2163   50.9993   14.6336 C.ar      1 UNK         0.0000 
     33 Br33        7.6390   50.4976   13.6817 Br        1 UNK         0.0000 
     34 H34         1.7730   56.0966   17.6816 H         1 UNK         0.0000 
     35 H35         2.3727   55.3632   16.2129 H         1 UNK         0.0000 
     36 H36         2.4444   54.4784   17.7350 H         1 UNK         0.0000 
     37 H37         4.0183   56.3503   18.6083 H         1 UNK         0.0000 
     38 H38         4.0318   57.0031   17.0081 H         1 UNK         0.0000 
     39 H39         4.2406   54.0263   15.5068 H         1 UNK         0.0000 
     40 H40         4.7961   55.6381   15.0552 H         1 UNK         0.0000 
     41 H41         5.9528   54.3512   15.2804 H         1 UNK         0.0000 
     42 H42         4.0961   53.5601   20.3338 H         1 UNK         0.0000 
     43 H43         6.8003   54.5876   26.4477 H         1 UNK         0.0000 
     44 H44         6.2780   54.4858   28.8465 H         1 UNK         0.0000 
     45 H45         2.1389   53.8722   27.9333 H         1 UNK         0.0000 
     46 H46         2.6329   53.9783   25.5346 H         1 UNK         0.0000 
     47 H47         5.9045   51.9478   17.6815 H         1 UNK         0.0000 
     48 H48         7.1793   51.2911   16.2125 H         1 UNK         0.0000 
     49 H49        10.3469   52.5868   17.4300 H         1 UNK         0.0000 
     50 H50        12.5056   52.0332   16.4038 H         1 UNK         0.0000 
     51 H51        12.5866   50.8001   14.2528 H         1 UNK         0.0000 
     52 H52        10.4972   50.1475   13.1253 H         1 UNK         0.0000 
@<TRIPOS>BOND
     1    1    2 1    
     2    1   34 1    
     3    1   35 1    
     4    1   36 1    
     5    2    3 1    
     6    2   37 1    
     7    2   38 1    
     8    3    4 1    
     9    3    5 1    
    10    3    6 1    
    11    5   39 1    
    12    5   40 1    
    13    5   41 1    
    14    6    7 1    
    15    6    8 1    
    16    6   23 1    
    17    8    9 2    
    18    8   10 am   BACKBONE|DICT|INTERRES
    19   10   11 am   BACKBONE|DICT|INTERRES
    20   10   42 1    
    21   11   15 1    
    22   11   12 2    
    23   12   13 1    
    24   13   14 2    
    25   14   15 1    
    26   14   16 1    
    27   16   21 ar   
    28   16   17 ar   
    29   17   18 ar   
    30   17   43 1    
    31   18   19 ar   
    32   18   44 1    
    33   19   20 ar   
    34   19   22 1    
    35   20   21 ar   
    36   20   45 1    
    37   21   46 1    
    38   23   24 am   BACKBONE|DICT|INTERRES
    39   23   47 1    
    40   24   25 2    
    41   24   26 am   BACKBONE|DICT|INTERRES
    42   26   27 1    
    43   26   48 1    
    44   27   32 ar   
    45   27   28 ar   
    46   28   29 ar   
    47   28   49 1    
    48   29   30 ar   
    49   29   50 1    
    50   30   31 ar   
    51   30   51 1    
    52   31   32 ar   
    53   31   52 1    
    54   32   33 1    
@<TRIPOS>SUBSTRUCTURE
     1 UNK         1 GROUP             0       ****    0 ROOT    
