@<TRIPOS>MOLECULE
ZINC13657884_4295
36   37    1
SMALL
USER_CHARGES


@<TRIPOS>ATOM
      1 C1          4.1244   53.3628   21.4216 C.ar      1 UNK         0.0000 
      2 C2          2.9986   53.1554   22.2331 C.ar      1 UNK         0.0000 
      3 C3          1.8941   52.4963   21.6802 C.ar      1 UNK         0.0000 
      4 C4          1.9179   52.0300   20.3660 C.ar      1 UNK         0.0000 
      5 C5          3.0609   52.2096   19.5793 C.ar      1 UNK         0.0000 
      6 C6          4.1596   52.8981   20.1068 C.ar      1 UNK         0.0000 
      7 Br7         5.7137   53.2411   19.0559 Br        1 UNK         0.0000 
      8 O8          3.1044   51.6968   18.3078 O.3       1 UNK         0.0000 
      9 Br9         0.3810   51.1294   19.6845 Br        1 UNK         0.0000 
     10 C10         2.9616   53.5621   23.6424 C.2       1 UNK         0.0000 
     11 N11         3.9571   54.0735   24.2458 N.2       1 UNK         0.0000 
     12 N12         3.7612   54.1834   25.5777 N.pl3     1 UNK         0.0000 
     13 C13         4.7556   54.3753   26.5007 C.2       1 UNK         0.0000 
     14 S14         6.3044   54.8967   26.1610 S.2       1 UNK         0.0000 
     15 N15         4.4586   54.0974   27.8033 N.pl3     1 UNK         0.0000 
     16 C16         3.1741   53.5415   28.2612 C.3       1 UNK         0.0000 
     17 C17         2.0154   54.5606   28.3010 C.3       1 UNK         0.0000 
     18 H18         1.7599   54.8968   27.2976 H         1 UNK         0.0000 
     19 C19         0.7442   54.0861   29.0146 C.3       1 UNK         0.0000 
     20 C20         0.8064   54.7546   30.3655 C.3       1 UNK         0.0000 
     21 C21         1.4615   56.0820   30.0161 C.3       1 UNK         0.0000 
     22 O22         2.4466   55.6979   29.0619 O.3       1 UNK         0.0000 
     23 H23         4.9912   53.8786   21.8102 H         1 UNK         0.0000 
     24 H24         1.0061   52.3228   22.2716 H         1 UNK         0.0000 
     25 H25         3.9856   51.3429   18.0818 H         1 UNK         0.0000 
     26 H26         2.0153   53.3583   24.1428 H         1 UNK         0.0000 
     27 H27         2.8551   53.8749   25.8967 H         1 UNK         0.0000 
     28 H28         5.1809   54.2447   28.4944 H         1 UNK         0.0000 
     29 H29         2.9043   52.6851   27.6408 H         1 UNK         0.0000 
     30 H30         3.3185   53.1227   29.2572 H         1 UNK         0.0000 
     31 H31        -0.1230   54.4800   28.4822 H         1 UNK         0.0000 
     32 H32         0.6390   53.0011   29.0593 H         1 UNK         0.0000 
     33 H33        -0.1720   54.8775   30.8298 H         1 UNK         0.0000 
     34 H34         1.4296   54.1724   31.0422 H         1 UNK         0.0000 
     35 H35         0.7689   56.7920   29.5624 H         1 UNK         0.0000 
     36 H36         1.9043   56.5807   30.8784 H         1 UNK         0.0000 
@<TRIPOS>BOND
     1    1    6 ar   
     2    1    2 ar   
     3    1   23 1    
     4    2    3 ar   
     5    2   10 1    
     6    3    4 ar   
     7    3   24 1    
     8    4    5 ar   
     9    4    9 1    
    10    5    6 ar   
    11    5    8 1    
    12    6    7 1    
    13    8   25 1    
    14   10   11 2    
    15   10   26 1    
    16   11   12 1    
    17   12   13 1    
    18   12   27 1    
    19   13   14 2    
    20   13   15 1    
    21   15   16 1    
    22   15   28 1    
    23   16   17 1    
    24   16   29 1    
    25   16   30 1    
    26   17   18 1    
    27   17   22 1    
    28   17   19 1    
    29   19   20 1    
    30   19   31 1    
    31   19   32 1    
    32   20   21 1    
    33   20   33 1    
    34   20   34 1    
    35   21   22 1    
    36   21   35 1    
    37   21   36 1    
@<TRIPOS>SUBSTRUCTURE
     1 UNK         1 GROUP             0       ****    0 ROOT    
