@<TRIPOS>MOLECULE
ZINC16611054_3004
65   67    1
SMALL
USER_CHARGES


@<TRIPOS>ATOM
      1 C1          1.0382   55.0711   15.3980 C.3       1 UNK         0.0000 
      2 C2          1.3657   55.4146   16.8652 C.3       1 UNK         0.0000 
      3 N3          2.7972   55.2069   17.2404 N.pl3     1 UNK         0.0000 
      4 C4          3.7155   56.2616   17.2463 C.2       1 UNK         0.0000 
      5 C5          4.9596   56.1269   17.7956 C.2       1 UNK         0.0000 
      6 C6          5.4327   54.7986   18.4339 C.3       1 UNK         0.0000 
      7 H7          6.3413   54.4889   17.9127 H         1 UNK         0.0000 
      8 N8          4.4380   53.7585   18.1016 N.pl3     1 UNK         0.0000 
      9 C9          3.1624   53.9223   17.6478 C.2       1 UNK         0.0000 
     10 S10         2.2396   52.5245   17.6744 S.2       1 UNK         0.0000 
     11 C11         5.8348   54.8504   19.9155 C.ar      1 UNK         0.0000 
     12 C12         7.1126   55.2984   20.2595 C.ar      1 UNK         0.0000 
     13 C13         7.5061   55.3584   21.5905 C.ar      1 UNK         0.0000 
     14 C14         6.6451   54.9346   22.5983 C.ar      1 UNK         0.0000 
     15 C15         5.3482   54.4941   22.2829 C.ar      1 UNK         0.0000 
     16 C16         4.9554   54.4601   20.9380 C.ar      1 UNK         0.0000 
     17 N17         4.3887   54.0964   23.2393 N.am      1 UNK         0.0000 
     18 C18         4.3881   54.2942   24.5754 C.2       1 UNK         0.0000 
     19 O19         5.2622   54.9028   25.1916 O.2       1 UNK         0.0000 
     20 N20         3.2911   53.7423   25.1362 N.am      1 UNK         0.0000 
     21 C21         2.8856   53.6957   26.4925 C.ar      1 UNK         0.0000 
     22 C22         3.5575   54.3619   27.5311 C.ar      1 UNK         0.0000 
     23 C23         3.0979   54.2796   28.8406 C.ar      1 UNK         0.0000 
     24 C24         1.9653   53.5362   29.1540 C.ar      1 UNK         0.0000 
     25 C25         1.2925   52.8639   28.1246 C.ar      1 UNK         0.0000 
     26 C26         1.7418   52.9312   26.7934 C.ar      1 UNK         0.0000 
     27 O27         1.1045   52.2811   25.7457 O.3       1 UNK         0.0000 
     28 C28        -0.0002   51.4218   26.0150 C.3       1 UNK         0.0000 
     29 O29         1.5893   53.5214   30.4822 O.3       1 UNK         0.0000 
     30 C30         0.4161   52.8105   30.8725 C.3       1 UNK         0.0000 
     31 C31         5.9298   57.2341   17.8216 C.2       1 UNK         0.0000 
     32 O32         6.3036   57.7830   18.8625 O.2       1 UNK         0.0000 
     33 O33         6.3901   57.5427   16.5836 O.3       1 UNK         0.0000 
     34 C34         7.2987   58.6214   16.3749 C.3       1 UNK         0.0000 
     35 C35         8.7351   58.2583   16.7830 C.3       1 UNK         0.0000 
     36 C36         3.2454   57.5548   16.5360 C.3       1 UNK         0.0000 
     37 H37        -0.0130   55.2681   15.1863 H         1 UNK         0.0000 
     38 H38         1.2145   54.0193   15.1774 H         1 UNK         0.0000 
     39 H39         1.6259   55.6646   14.7002 H         1 UNK         0.0000 
     40 H40         1.0457   56.4328   17.0665 H         1 UNK         0.0000 
     41 H41         0.7073   54.8521   17.5276 H         1 UNK         0.0000 
     42 H42         4.6784   52.7882   18.2708 H         1 UNK         0.0000 
     43 H43         7.8087   55.6066   19.4925 H         1 UNK         0.0000 
     44 H44         8.4954   55.7142   21.8333 H         1 UNK         0.0000 
     45 H45         7.0129   54.9702   23.6114 H         1 UNK         0.0000 
     46 H46         3.9567   54.1345   20.6825 H         1 UNK         0.0000 
     47 H47         3.5717   53.6534   22.8482 H         1 UNK         0.0000 
     48 H48         2.6659   53.2452   24.5203 H         1 UNK         0.0000 
     49 H49         4.4361   54.9614   27.3598 H         1 UNK         0.0000 
     50 H50         3.6277   54.8043   29.6215 H         1 UNK         0.0000 
     51 H51         0.4138   52.2879   28.3626 H         1 UNK         0.0000 
     52 H52        -0.3360   50.9630   25.0846 H         1 UNK         0.0000 
     53 H53         0.2756   50.6149   26.6972 H         1 UNK         0.0000 
     54 H54        -0.8441   51.9730   26.4335 H         1 UNK         0.0000 
     55 H55         0.3018   52.8769   31.9552 H         1 UNK         0.0000 
     56 H56        -0.4816   53.2321   30.4151 H         1 UNK         0.0000 
     57 H57         0.4808   51.7521   30.6156 H         1 UNK         0.0000 
     58 H58         7.2775   58.8691   15.3129 H         1 UNK         0.0000 
     59 H59         6.9593   59.5158   16.9027 H         1 UNK         0.0000 
     60 H60         9.4216   59.0659   16.5286 H         1 UNK         0.0000 
     61 H61         8.8129   58.0868   17.8567 H         1 UNK         0.0000 
     62 H62         9.0740   57.3548   16.2750 H         1 UNK         0.0000 
     63 H63         3.0055   57.3457   15.4961 H         1 UNK         0.0000 
     64 H64         2.3690   58.0035   16.9959 H         1 UNK         0.0000 
     65 H65         3.9792   58.3575   16.5179 H         1 UNK         0.0000 
@<TRIPOS>BOND
     1    1    2 1    
     2    1   37 1    
     3    1   38 1    
     4    1   39 1    
     5    2    3 1    
     6    2   40 1    
     7    2   41 1    
     8    3    9 1    
     9    3    4 1    
    10    4    5 2    
    11    4   36 1    
    12    5    6 1    
    13    5   31 1    
    14    6    7 1    
    15    6    8 1    
    16    6   11 1    
    17    8    9 1    
    18    8   42 1    
    19    9   10 2    
    20   11   16 ar   
    21   11   12 ar   
    22   12   13 ar   
    23   12   43 1    
    24   13   14 ar   
    25   13   44 1    
    26   14   15 ar   
    27   14   45 1    
    28   15   16 ar   
    29   15   17 1    
    30   16   46 1    
    31   17   18 am   BACKBONE|DICT|INTERRES
    32   17   47 1    
    33   18   19 2    
    34   18   20 am   BACKBONE|DICT|INTERRES
    35   20   21 1    
    36   20   48 1    
    37   21   26 ar   
    38   21   22 ar   
    39   22   23 ar   
    40   22   49 1    
    41   23   24 ar   
    42   23   50 1    
    43   24   25 ar   
    44   24   29 1    
    45   25   26 ar   
    46   25   51 1    
    47   26   27 1    
    48   27   28 1    
    49   28   52 1    
    50   28   53 1    
    51   28   54 1    
    52   29   30 1    
    53   30   55 1    
    54   30   56 1    
    55   30   57 1    
    56   31   32 2    
    57   31   33 1    
    58   33   34 1    
    59   34   35 1    
    60   34   58 1    
    61   34   59 1    
    62   35   60 1    
    63   35   61 1    
    64   35   62 1    
    65   36   63 1    
    66   36   64 1    
    67   36   65 1    
@<TRIPOS>SUBSTRUCTURE
     1 UNK         1 GROUP             0       ****    0 ROOT    
