@<TRIPOS>MOLECULE
ZINC23357841_4577
47   49    1
SMALL
USER_CHARGES


@<TRIPOS>ATOM
      1 C1         -0.2906   45.3621   16.9560 C.3       1 UNK         0.0000 
      2 C2          0.2597   46.3911   17.9244 C.ar      1 UNK         0.0000 
      3 C3         -0.4582   46.7251   19.0744 C.ar      1 UNK         0.0000 
      4 C4          0.0437   47.6833   19.9521 C.ar      1 UNK         0.0000 
      5 C5          1.2635   48.3128   19.6852 C.ar      1 UNK         0.0000 
      6 C6          1.9717   47.9772   18.5312 C.ar      1 UNK         0.0000 
      7 C7          1.4737   47.0250   17.6482 C.ar      1 UNK         0.0000 
      8 C8          1.8046   49.3234   20.6462 C.ar      1 UNK         0.0000 
      9 N9          1.7064   49.2041   21.9462 N.2       1 UNK         0.0000 
     10 N10         2.3047   50.3113   22.5207 N.2       1 UNK         0.0000 
     11 C11         2.6996   51.0939   21.5493 C.ar      1 UNK         0.0000 
     12 N12         2.4432   50.5039   20.3270 N.pl3     1 UNK         0.0000 
     13 N13         2.7043   51.0200   19.0680 N.3       1 UNK         0.0000 
     14 S14         3.2858   52.7437   21.7844 S.3       1 UNK         0.0000 
     15 C15         1.9920   53.4483   22.8972 C.3       1 UNK         0.0000 
     16 H16         1.9416   54.4960   22.5962 H         1 UNK         0.0000 
     17 C17         0.5531   52.8969   22.7120 C.3       1 UNK         0.0000 
     18 C18         2.4258   53.4506   24.3813 C.2       1 UNK         0.0000 
     19 O19         1.7451   52.8658   25.2247 O.2       1 UNK         0.0000 
     20 N20         3.5781   54.0965   24.6681 N.am      1 UNK         0.0000 
     21 C21         4.2289   54.2210   25.9143 C.ar      1 UNK         0.0000 
     22 C22         3.5394   54.1749   27.1415 C.ar      1 UNK         0.0000 
     23 C23         4.2267   54.2723   28.3483 C.ar      1 UNK         0.0000 
     24 C24         5.6087   54.4236   28.3469 C.ar      1 UNK         0.0000 
     25 C25         6.3048   54.4924   27.1425 C.ar      1 UNK         0.0000 
     26 C26         5.6270   54.4009   25.9213 C.ar      1 UNK         0.0000 
     27 C27         6.4330   54.4660   24.6305 C.3       1 UNK         0.0000 
     28 F28         3.5560   54.2270   29.5218 F         1 UNK         0.0000 
     29 H29        -1.3794   45.3248   16.9957 H         1 UNK         0.0000 
     30 H30        -0.0263   45.6165   15.9294 H         1 UNK         0.0000 
     31 H31         0.1072   44.3722   17.1808 H         1 UNK         0.0000 
     32 H32        -1.4012   46.2484   19.2909 H         1 UNK         0.0000 
     33 H33        -0.5140   47.9380   20.8410 H         1 UNK         0.0000 
     34 H34         2.9230   48.4438   18.3224 H         1 UNK         0.0000 
     35 H35         2.0379   46.7848   16.7590 H         1 UNK         0.0000 
     36 H36         2.3578   51.9626   18.9581 H         1 UNK         0.0000 
     37 H37         3.6794   50.9001   18.7906 H         1 UNK         0.0000 
     38 H38        -0.1647   53.4862   23.2849 H         1 UNK         0.0000 
     39 H39         0.2617   52.8967   21.6611 H         1 UNK         0.0000 
     40 H40         0.4347   51.8810   23.0798 H         1 UNK         0.0000 
     41 H41         4.1196   54.4045   23.8737 H         1 UNK         0.0000 
     42 H42         2.4661   54.0685   27.1818 H         1 UNK         0.0000 
     43 H43         6.1451   54.4973   29.2812 H         1 UNK         0.0000 
     44 H44         7.3786   54.6104   27.1704 H         1 UNK         0.0000 
     45 H45         6.1500   55.3425   24.0493 H         1 UNK         0.0000 
     46 H46         7.5090   54.5056   24.8139 H         1 UNK         0.0000 
     47 H47         6.2375   53.5846   24.0149 H         1 UNK         0.0000 
@<TRIPOS>BOND
     1    1    2 1    
     2    1   29 1    
     3    1   30 1    
     4    1   31 1    
     5    2    7 ar   
     6    2    3 ar   
     7    3    4 ar   
     8    3   32 1    
     9    4    5 ar   
    10    4   33 1    
    11    5    6 ar   
    12    5    8 1    
    13    6    7 ar   
    14    6   34 1    
    15    7   35 1    
    16    8   12 ar   
    17    8    9 ar   
    18    9   10 ar   
    19   10   11 ar   
    20   11   12 ar   
    21   11   14 1    
    22   12   13 1    
    23   13   36 1    
    24   13   37 1    
    25   14   15 1    
    26   15   16 1    
    27   15   17 1    
    28   15   18 1    
    29   17   38 1    
    30   17   39 1    
    31   17   40 1    
    32   18   19 2    
    33   18   20 am   BACKBONE|DICT|INTERRES
    34   20   21 1    
    35   20   41 1    
    36   21   26 ar   
    37   21   22 ar   
    38   22   23 ar   
    39   22   42 1    
    40   23   24 ar   
    41   23   28 1    
    42   24   25 ar   
    43   24   43 1    
    44   25   26 ar   
    45   25   44 1    
    46   26   27 1    
    47   27   45 1    
    48   27   46 1    
    49   27   47 1    
@<TRIPOS>SUBSTRUCTURE
     1 UNK         1 GROUP             0       ****    0 ROOT    
