@<TRIPOS>MOLECULE
ZINC40723052_3944
40   43    1
SMALL
USER_CHARGES


@<TRIPOS>ATOM
      1 C1         -9.0178   49.4975   27.0899 C.3       1 UNK         0.0000 
      2 C2         -7.5801   49.9746   27.1952 C.ar      1 UNK         0.0000 
      3 C3         -6.9478   50.5224   26.0748 C.ar      1 UNK         0.0000 
      4 C4         -5.6235   50.9603   26.1266 C.ar      1 UNK         0.0000 
      5 C5         -4.9268   50.8340   27.3350 C.ar      1 UNK         0.0000 
      6 C6         -5.5700   50.2768   28.4698 C.ar      1 UNK         0.0000 
      7 C7         -6.9001   49.8398   28.4093 C.ar      1 UNK         0.0000 
      8 S8         -4.4384   50.2676   29.8129 S.3       1 UNK         0.0000 
      9 C9         -3.2430   50.9756   28.7449 C.2       1 UNK         0.0000 
     10 N10        -3.6424   51.2260   27.5275 N.2       1 UNK         0.0000 
     11 N11        -2.0126   51.2967   29.2817 N.pl3     1 UNK         0.0000 
     12 C12        -0.8248   51.7033   28.6411 C.ar      1 UNK         0.0000 
     13 C13         0.2422   52.2685   29.3850 C.ar      1 UNK         0.0000 
     14 C14         1.4047   52.6202   28.6588 C.ar      1 UNK         0.0000 
     15 N15         1.5044   52.4022   27.3208 N.ar      1 UNK         0.0000 
     16 C16         0.4276   51.8755   26.6999 C.ar      1 UNK         0.0000 
     17 N17        -0.7339   51.5295   27.2933 N.ar      1 UNK         0.0000 
     18 S18         2.8154   53.3615   29.4806 S.3       1 UNK         0.0000 
     19 C19         3.9967   53.7828   28.2142 C.ar      1 UNK         0.0000 
     20 C20         3.6209   54.4967   27.0742 C.ar      1 UNK         0.0000 
     21 C21         4.5767   54.8353   26.1179 C.ar      1 UNK         0.0000 
     22 C22         5.9126   54.4965   26.3239 C.ar      1 UNK         0.0000 
     23 C23         6.2950   53.7956   27.4645 C.ar      1 UNK         0.0000 
     24 C24         5.3331   53.4378   28.4043 C.ar      1 UNK         0.0000 
     25 Cl25        7.1044   54.9574   25.1653 Cl        1 UNK         0.0000 
     26 N26         0.1639   52.4967   30.7754 N.pl3     1 UNK         0.0000 
     27 H27        -9.1763   48.6084   27.7017 H         1 UNK         0.0000 
     28 H28        -9.7057   50.2738   27.4261 H         1 UNK         0.0000 
     29 H29        -9.2711   49.2187   26.0662 H         1 UNK         0.0000 
     30 H30        -7.4921   50.6125   25.1451 H         1 UNK         0.0000 
     31 H31        -5.1437   51.3826   25.2572 H         1 UNK         0.0000 
     32 H32        -7.3848   49.4125   29.2757 H         1 UNK         0.0000 
     33 H33        -1.8797   51.1581   30.2726 H         1 UNK         0.0000 
     34 H34         0.5020   51.7092   25.6353 H         1 UNK         0.0000 
     35 H35         2.5925   54.7877   26.9280 H         1 UNK         0.0000 
     36 H36         4.2839   55.3683   25.2274 H         1 UNK         0.0000 
     37 H37         7.3295   53.5283   27.6225 H         1 UNK         0.0000 
     38 H38         5.6286   52.8937   29.2817 H         1 UNK         0.0000 
     39 H39         0.9698   52.8958   31.2333 H         1 UNK         0.0000 
     40 H40        -0.5839   52.1110   31.3496 H         1 UNK         0.0000 
@<TRIPOS>BOND
     1    1    2 1    
     2    1   27 1    
     3    1   28 1    
     4    1   29 1    
     5    2    7 ar   
     6    2    3 ar   
     7    3    4 ar   
     8    3   30 1    
     9    4    5 ar   
    10    4   31 1    
    11    5   10 1    
    12    5    6 ar   
    13    6    7 ar   
    14    6    8 1    
    15    7   32 1    
    16    8    9 1    
    17    9   10 2    
    18    9   11 1    
    19   11   12 1    
    20   11   33 1    
    21   12   17 ar   
    22   12   13 ar   
    23   13   14 ar   
    24   13   26 1    
    25   14   15 ar   
    26   14   18 1    
    27   15   16 ar   
    28   16   17 ar   
    29   16   34 1    
    30   18   19 1    
    31   19   24 ar   
    32   19   20 ar   
    33   20   21 ar   
    34   20   35 1    
    35   21   22 ar   
    36   21   36 1    
    37   22   23 ar   
    38   22   25 1    
    39   23   24 ar   
    40   23   37 1    
    41   24   38 1    
    42   26   39 1    
    43   26   40 1    
@<TRIPOS>SUBSTRUCTURE
     1 UNK         1 GROUP             0       ****    0 ROOT    
