@<TRIPOS>MOLECULE
ZINC08898029_309
66   69    1
SMALL
USER_CHARGES


@<TRIPOS>ATOM
      1 C1          9.4570   50.7865   10.3014 C.3       1 UNK         0.0000 
      2 O2          8.3907   51.4088   11.0101 O.3       1 UNK         0.0000 
      3 C3          8.4029   51.3934   12.3905 C.ar      1 UNK         0.0000 
      4 C4          7.4185   52.1425   13.0334 C.ar      1 UNK         0.0000 
      5 C5          7.3491   52.2313   14.4313 C.ar      1 UNK         0.0000 
      6 C6          8.3043   51.5281   15.1834 C.ar      1 UNK         0.0000 
      7 C7          9.2884   50.7500   14.5686 C.ar      1 UNK         0.0000 
      8 C8          9.3349   50.6944   13.1681 C.ar      1 UNK         0.0000 
      9 O9         10.1639   50.0827   15.4022 O.3       1 UNK         0.0000 
     10 C10        11.2051   49.2986   14.8282 C.3       1 UNK         0.0000 
     11 C11         6.2933   53.1078   15.0790 C.2       1 UNK         0.0000 
     12 O12         5.6787   53.9282   14.3919 O.2       1 UNK         0.0000 
     13 N13         6.0617   52.8980   16.4020 N.am      1 UNK         0.0000 
     14 C14         5.5402   53.7091   17.3812 C.2       1 UNK         0.0000 
     15 S15         5.1365   55.3427   17.2262 S.2       1 UNK         0.0000 
     16 N16         5.4122   53.0100   18.5498 N.pl3     1 UNK         0.0000 
     17 C17         5.0907   53.4220   19.8512 C.ar      1 UNK         0.0000 
     18 C18         5.7354   54.4969   20.4783 C.ar      1 UNK         0.0000 
     19 C19         5.5118   54.7274   21.8315 C.ar      1 UNK         0.0000 
     20 C20         4.6202   53.9266   22.5615 C.ar      1 UNK         0.0000 
     21 C21         3.9386   52.9002   21.8980 C.ar      1 UNK         0.0000 
     22 C22         4.1863   52.6343   20.5562 C.ar      1 UNK         0.0000 
     23 N23         4.4319   54.0973   23.9319 N.pl3     1 UNK         0.0000 
     24 C24         3.0845   54.1939   24.5209 C.3       1 UNK         0.0000 
     25 C25         2.9856   53.7077   25.9885 C.3       1 UNK         0.0000 
     26 C26         5.4528   54.1484   26.2483 C.3       1 UNK         0.0000 
     27 C27         5.4909   54.6493   24.7951 C.3       1 UNK         0.0000 
     28 C28         4.0464   53.9018   28.3222 C.3       1 UNK         0.0000 
     29 C29         2.7322   54.0818   29.0736 C.ar      1 UNK         0.0000 
     30 C30         2.2955   55.3658   29.4193 C.ar      1 UNK         0.0000 
     31 C31         1.1290   55.5356   30.1653 C.ar      1 UNK         0.0000 
     32 C32         0.3935   54.4218   30.5721 C.ar      1 UNK         0.0000 
     33 C33         0.8146   53.1399   30.2216 C.ar      1 UNK         0.0000 
     34 C34         1.9801   52.9677   29.4750 C.ar      1 UNK         0.0000 
     35 F35         2.3893   51.7160   29.1681 F         1 UNK         0.0000 
     36 H36         9.3172   50.9337    9.2315 H         1 UNK         0.0000 
     37 H37        10.4232   51.2202   10.5679 H         1 UNK         0.0000 
     38 H38         9.4872   49.7119   10.4826 H         1 UNK         0.0000 
     39 H39         6.7108   52.6802   12.4180 H         1 UNK         0.0000 
     40 H40         8.3054   51.5689   16.2626 H         1 UNK         0.0000 
     41 H41        10.0999   50.1102   12.6813 H         1 UNK         0.0000 
     42 H42        11.7843   48.8330   15.6246 H         1 UNK         0.0000 
     43 H43        11.8881   49.9104   14.2370 H         1 UNK         0.0000 
     44 H44        10.8090   48.5006   14.1981 H         1 UNK         0.0000 
     45 H45         6.4972   52.0610   16.7611 H         1 UNK         0.0000 
     46 H46         5.4625   51.9940   18.4574 H         1 UNK         0.0000 
     47 H47         6.4597   55.0957   19.9447 H         1 UNK         0.0000 
     48 H48         6.0579   55.5234   22.3122 H         1 UNK         0.0000 
     49 H49         3.2530   52.2603   22.4336 H         1 UNK         0.0000 
     50 H50         3.6978   51.7991   20.0720 H         1 UNK         0.0000 
     51 H51         2.8364   55.2561   24.4887 H         1 UNK         0.0000 
     52 H52         2.3360   53.6959   23.9059 H         1 UNK         0.0000 
     53 H53         3.1237   52.6286   26.0802 H         1 UNK         0.0000 
     54 H54         2.0215   53.9962   26.4144 H         1 UNK         0.0000 
     55 H55         5.6694   53.0816   26.3279 H         1 UNK         0.0000 
     56 H56         6.1589   54.7193   26.8553 H         1 UNK         0.0000 
     57 H57         6.4790   54.4748   24.3682 H         1 UNK         0.0000 
     58 H58         5.3255   55.7274   24.7991 H         1 UNK         0.0000 
     59 H59         4.3481   52.8516   28.2812 H         1 UNK         0.0000 
     60 H60         4.8426   54.4600   28.8240 H         1 UNK         0.0000 
     61 H61         2.8660   56.2367   29.1293 H         1 UNK         0.0000 
     62 H62         0.8044   56.5296   30.4428 H         1 UNK         0.0000 
     63 H63        -0.4950   54.5555   31.1692 H         1 UNK         0.0000 
     64 H64         0.2483   52.2756   30.5430 H         1 UNK         0.0000 
     65 N65         4.0583   54.4024   26.8543 N.4       1 UNK         0.0000 
     66 H66         3.8814   55.3981   26.8409 H         1 UNK         0.0000 
@<TRIPOS>BOND
     1    1    2 1    
     2    1   36 1    
     3    1   37 1    
     4    1   38 1    
     5    2    3 1    
     6    3    8 ar   
     7    3    4 ar   
     8    4    5 ar   
     9    4   39 1    
    10    5    6 ar   
    11    5   11 1    
    12    6    7 ar   
    13    6   40 1    
    14    7    8 ar   
    15    7    9 1    
    16    8   41 1    
    17    9   10 1    
    18   10   42 1    
    19   10   43 1    
    20   10   44 1    
    21   11   12 2    
    22   11   13 am   BACKBONE|DICT|INTERRES
    23   13   14 am   BACKBONE|DICT|INTERRES
    24   13   45 1    
    25   14   15 2    
    26   14   16 1    
    27   16   17 1    
    28   16   46 1    
    29   17   22 ar   
    30   17   18 ar   
    31   18   19 ar   
    32   18   47 1    
    33   19   20 ar   
    34   19   48 1    
    35   20   21 ar   
    36   20   23 1    
    37   21   22 ar   
    38   21   49 1    
    39   22   50 1    
    40   23   27 1    
    41   23   24 1    
    42   24   25 1    
    43   24   51 1    
    44   24   52 1    
    45   25   53 1    
    46   25   54 1    
    47   25   65 1    
    48   26   27 1    
    49   26   55 1    
    50   26   56 1    
    51   26   65 1    
    52   27   57 1    
    53   27   58 1    
    54   28   29 1    
    55   28   59 1    
    56   28   60 1    
    57   28   65 1    
    58   29   34 ar   
    59   29   30 ar   
    60   30   31 ar   
    61   30   61 1    
    62   31   32 ar   
    63   31   62 1    
    64   32   33 ar   
    65   32   63 1    
    66   33   34 ar   
    67   33   64 1    
    68   34   35 1    
    69   65   66 1    
@<TRIPOS>SUBSTRUCTURE
     1 UNK         1 GROUP             0       ****    0 ROOT    
