@<TRIPOS>MOLECULE
ZINC30975039_4833
66   69    1
SMALL
USER_CHARGES


@<TRIPOS>ATOM
      1 C1          6.8392   55.5371   19.3714 C.3       1 UNK         0.0000 
      2 C2          6.0143   54.8993   20.4748 C.ar      1 UNK         0.0000 
      3 C3          4.8693   54.1664   20.1629 C.ar      1 UNK         0.0000 
      4 C4          4.1134   53.5862   21.1799 C.ar      1 UNK         0.0000 
      5 C5          4.5012   53.7341   22.5107 C.ar      1 UNK         0.0000 
      6 C6          5.6489   54.4679   22.8491 C.ar      1 UNK         0.0000 
      7 C7          6.3991   55.0476   21.8129 C.ar      1 UNK         0.0000 
      8 C8          6.0469   54.6560   24.2886 C.2       1 UNK         0.0000 
      9 N9          5.3916   54.0970   25.2869 N.2       1 UNK         0.0000 
     10 C10         6.0668   54.4928   26.3342 C.2       1 UNK         0.0000 
     11 O11         7.1026   55.2968   26.0321 O.3       1 UNK         0.0000 
     12 N12         7.0658   55.4073   24.6459 N.2       1 UNK         0.0000 
     13 C13         5.8156   54.1881   27.8002 C.3       1 UNK         0.0000 
     14 N14         4.3764   53.6407   27.9696 N.4       1 UNK         0.0000 
     15 C15         4.1923   52.9249   29.3258 C.3       1 UNK         0.0000 
     16 C16         2.8005   52.2685   29.3264 C.3       1 UNK         0.0000 
     17 C17         1.7045   53.3254   29.0418 C.3       1 UNK         0.0000 
     18 C18         1.9512   54.1589   27.7610 C.3       1 UNK         0.0000 
     19 C19         3.3470   54.7879   27.8075 C.3       1 UNK         0.0000 
     20 C20         0.3319   52.6376   28.9584 C.2       1 UNK         0.0000 
     21 O21        -0.4954   52.8470   29.8385 O.2       1 UNK         0.0000 
     22 N22         0.1114   51.8370   27.9021 N.am      1 UNK         0.0000 
     23 C23        -1.1149   51.0886   27.6501 C.3       1 UNK         0.0000 
     24 C24        -2.0452   51.7702   26.6307 C.3       1 UNK         0.0000 
     25 C25        -3.4142   51.0815   26.4708 C.3       1 UNK         0.0000 
     26 S26        -4.5727   51.2945   27.8566 S.3       1 UNK         0.0000 
     27 C27        -4.3228   49.7694   28.8203 C.3       1 UNK         0.0000 
     28 C28        -5.2664   49.7126   30.0098 C.ar      1 UNK         0.0000 
     29 C29        -4.8255   50.1271   31.2745 C.ar      1 UNK         0.0000 
     30 C30        -5.6956   50.0962   32.3652 C.ar      1 UNK         0.0000 
     31 C31        -7.0025   49.6431   32.2060 C.ar      1 UNK         0.0000 
     32 C32        -7.4442   49.2231   30.9499 C.ar      1 UNK         0.0000 
     33 C33        -6.5821   49.2597   29.8537 C.ar      1 UNK         0.0000 
     34 F34        -7.0314   48.8575   28.6431 F         1 UNK         0.0000 
     35 H35         6.2273   55.7592   18.4958 H         1 UNK         0.0000 
     36 H36         7.2646   56.4869   19.7007 H         1 UNK         0.0000 
     37 H37         7.6571   54.8805   19.0734 H         1 UNK         0.0000 
     38 H38         4.5575   54.0418   19.1358 H         1 UNK         0.0000 
     39 H39         3.2234   53.0249   20.9344 H         1 UNK         0.0000 
     40 H40         3.8903   53.2850   23.2797 H         1 UNK         0.0000 
     41 H41         7.2899   55.6151   22.0405 H         1 UNK         0.0000 
     42 H42         5.9049   55.0542   28.4593 H         1 UNK         0.0000 
     43 H43         6.4921   53.4076   28.1596 H         1 UNK         0.0000 
     44 H44         4.3070   53.6658   30.1193 H         1 UNK         0.0000 
     45 H45         4.9715   52.1636   29.4057 H         1 UNK         0.0000 
     46 H46         2.6619   51.8211   30.3096 H         1 UNK         0.0000 
     47 H47         2.8348   51.5044   28.5478 H         1 UNK         0.0000 
     48 H48         1.6340   54.0039   29.8962 H         1 UNK         0.0000 
     49 H49         1.9433   53.5421   26.8607 H         1 UNK         0.0000 
     50 H50         1.2365   54.9787   27.6822 H         1 UNK         0.0000 
     51 H51         3.4790   55.4856   28.6365 H         1 UNK         0.0000 
     52 H52         3.5477   55.2940   26.8646 H         1 UNK         0.0000 
     53 H53         0.8598   51.6825   27.2457 H         1 UNK         0.0000 
     54 H54        -1.6415   50.9062   28.5875 H         1 UNK         0.0000 
     55 H55        -0.8587   50.0969   27.2818 H         1 UNK         0.0000 
     56 H56        -1.5417   51.7825   25.6639 H         1 UNK         0.0000 
     57 H57        -2.1984   52.8177   26.8934 H         1 UNK         0.0000 
     58 H58        -3.2817   50.0159   26.2702 H         1 UNK         0.0000 
     59 H59        -3.9048   51.4882   25.5863 H         1 UNK         0.0000 
     60 H60        -3.2966   49.6948   29.1713 H         1 UNK         0.0000 
     61 H61        -4.4742   48.8967   28.1832 H         1 UNK         0.0000 
     62 H62        -3.8090   50.4749   31.4167 H         1 UNK         0.0000 
     63 H63        -5.3444   50.4273   33.3321 H         1 UNK         0.0000 
     64 H64        -7.6722   49.6162   33.0506 H         1 UNK         0.0000 
     65 H65        -8.4563   48.8715   30.8223 H         1 UNK         0.0000 
     66 H66         4.2470   52.9634   27.2270 H         1 UNK         0.0000 
@<TRIPOS>BOND
     1    1    2 1    
     2    1   35 1    
     3    1   36 1    
     4    1   37 1    
     5    2    7 ar   
     6    2    3 ar   
     7    3    4 ar   
     8    3   38 1    
     9    4    5 ar   
    10    4   39 1    
    11    5    6 ar   
    12    5   40 1    
    13    6    7 ar   
    14    6    8 1    
    15    7   41 1    
    16    8   12 2    
    17    8    9 1    
    18    9   10 2    
    19   10   11 1    
    20   10   13 1    
    21   11   12 1    
    22   13   14 1    
    23   13   42 1    
    24   13   43 1    
    25   14   19 1    
    26   14   15 1    
    27   14   66 1    
    28   15   16 1    
    29   15   44 1    
    30   15   45 1    
    31   16   17 1    
    32   16   46 1    
    33   16   47 1    
    34   17   18 1    
    35   17   20 1    
    36   17   48 1    
    37   18   19 1    
    38   18   49 1    
    39   18   50 1    
    40   19   51 1    
    41   19   52 1    
    42   20   21 2    
    43   20   22 am   BACKBONE|DICT|INTERRES
    44   22   23 1    
    45   22   53 1    
    46   23   24 1    
    47   23   54 1    
    48   23   55 1    
    49   24   25 1    
    50   24   56 1    
    51   24   57 1    
    52   25   26 1    
    53   25   58 1    
    54   25   59 1    
    55   26   27 1    
    56   27   28 1    
    57   27   60 1    
    58   27   61 1    
    59   28   33 ar   
    60   28   29 ar   
    61   29   30 ar   
    62   29   62 1    
    63   30   31 ar   
    64   30   63 1    
    65   31   32 ar   
    66   31   64 1    
    67   32   33 ar   
    68   32   65 1    
    69   33   34 1    
@<TRIPOS>SUBSTRUCTURE
     1 UNK         1 GROUP             0       ****    0 ROOT    
