@<TRIPOS>MOLECULE
ZINC37289433_1629
40   41    1
SMALL
USER_CHARGES


@<TRIPOS>ATOM
      1 C1          3.4691   53.4319   21.7225 C.3       1 UNK         0.0000 
      2 C2          3.1288   53.3922   23.2198 C.3       1 UNK         0.0000 
      3 H3          3.5044   52.4967   23.6574 H         1 UNK         0.0000 
      4 C4          1.6119   53.4089   23.4885 C.2       1 UNK         0.0000 
      5 O5          1.0865   54.4967   23.6817 O.2       1 UNK         0.0000 
      6 N6          0.9454   52.2394   23.7021 N.am      1 UNK         0.0000 
      7 C7          1.3856   50.9447   23.1433 C.3       1 UNK         0.0000 
      8 C8          0.5688   50.6989   21.8535 C.3       1 UNK         0.0000 
      9 C9         -0.9511   50.7515   22.1128 C.3       1 UNK         0.0000 
     10 C10        -1.3467   52.0289   22.8817 C.3       1 UNK         0.0000 
     11 C11        -0.4669   52.2507   24.1339 C.3       1 UNK         0.0000 
     12 O12         3.7916   54.5191   23.8080 O.3       1 UNK         0.0000 
     13 C13         4.4049   54.3586   25.0390 C.ar      1 UNK         0.0000 
     14 C14         3.6523   54.0967   26.1929 C.ar      1 UNK         0.0000 
     15 C15         4.2638   53.9855   27.4548 C.ar      1 UNK         0.0000 
     16 C16         5.6559   54.1341   27.5367 C.ar      1 UNK         0.0000 
     17 C17         6.4146   54.3937   26.3955 C.ar      1 UNK         0.0000 
     18 C18         5.7970   54.5147   25.1503 C.ar      1 UNK         0.0000 
     19 N19         6.5789   54.7860   24.0230 N.pl3     1 UNK         0.0000 
     20 C20         3.4507   53.7154   28.6875 C.2       1 UNK         0.0000 
     21 O21         3.9039   54.0967   29.7942 O.co2     1 UNK         0.0000 
     22 O22         2.3593   53.1195   28.5428 O.co2     1 UNK         0.0000 
     23 H23         2.9932   52.6226   21.1684 H         1 UNK         0.0000 
     24 H24         3.1497   54.3757   21.2809 H         1 UNK         0.0000 
     25 H25         4.5447   53.3456   21.5675 H         1 UNK         0.0000 
     26 H26         1.1398   50.1852   23.8875 H         1 UNK         0.0000 
     27 H27         2.4612   50.8344   23.0191 H         1 UNK         0.0000 
     28 H28         0.8362   49.7282   21.4349 H         1 UNK         0.0000 
     29 H29         0.8458   51.4323   21.0947 H         1 UNK         0.0000 
     30 H30        -1.4978   50.6916   21.1709 H         1 UNK         0.0000 
     31 H31        -1.2462   49.8765   22.6943 H         1 UNK         0.0000 
     32 H32        -1.2761   52.8967   22.2269 H         1 UNK         0.0000 
     33 H33        -2.3941   51.9708   23.1794 H         1 UNK         0.0000 
     34 H34        -0.5904   51.4185   24.8290 H         1 UNK         0.0000 
     35 H35        -0.7230   53.1311   24.7262 H         1 UNK         0.0000 
     36 H36         2.5793   53.9984   26.1090 H         1 UNK         0.0000 
     37 H37         6.1581   54.0538   28.4914 H         1 UNK         0.0000 
     38 H38         7.4844   54.4966   26.4910 H         1 UNK         0.0000 
     39 H39         7.5854   54.8840   24.0835 H         1 UNK         0.0000 
     40 H40         6.1002   54.8851   23.1390 H         1 UNK         0.0000 
@<TRIPOS>BOND
     1    1    2 1    
     2    1   23 1    
     3    1   24 1    
     4    1   25 1    
     5    2    3 1    
     6    2    4 1    
     7    2   12 1    
     8    4    5 2    
     9    4    6 am   BACKBONE|DICT|INTERRES
    10    6   11 1    
    11    6    7 1    
    12    7    8 1    
    13    7   26 1    
    14    7   27 1    
    15    8    9 1    
    16    8   28 1    
    17    8   29 1    
    18    9   10 1    
    19    9   30 1    
    20    9   31 1    
    21   10   11 1    
    22   10   32 1    
    23   10   33 1    
    24   11   34 1    
    25   11   35 1    
    26   12   13 1    
    27   13   18 ar   
    28   13   14 ar   
    29   14   15 ar   
    30   14   36 1    
    31   15   16 ar   
    32   15   20 1    
    33   16   17 ar   
    34   16   37 1    
    35   17   18 ar   
    36   17   38 1    
    37   18   19 1    
    38   19   39 1    
    39   19   40 1    
    40   20   21 2    
    41   20   22 1    
@<TRIPOS>SUBSTRUCTURE
     1 UNK         1 GROUP             0       ****    0 ROOT    
