@<TRIPOS>MOLECULE
ZINC39653015_5538
70   73    1
SMALL
USER_CHARGES


@<TRIPOS>ATOM
      1 C1          2.9843   52.6651   30.5471 C.3       1 UNK         0.0000 
      2 O2          3.9235   53.5961   30.0172 O.3       1 UNK         0.0000 
      3 C3          3.9995   53.7542   28.6461 C.ar      1 UNK         0.0000 
      4 C4          3.0517   53.2458   27.7483 C.ar      1 UNK         0.0000 
      5 C5          3.2194   53.3812   26.3691 C.ar      1 UNK         0.0000 
      6 C6          4.3273   54.0780   25.8776 C.ar      1 UNK         0.0000 
      7 C7          5.2879   54.6044   26.7589 C.ar      1 UNK         0.0000 
      8 C8          5.1025   54.4383   28.1344 C.ar      1 UNK         0.0000 
      9 O9          6.4290   55.2793   26.3645 O.3       1 UNK         0.0000 
     10 C10         6.6747   55.4694   24.9759 C.3       1 UNK         0.0000 
     11 C11         2.2364   52.6908   25.4309 C.3       1 UNK         0.0000 
     12 C12         1.2591   53.5973   24.6898 C.3       1 UNK         0.0000 
     13 N13        -0.0274   52.9046   24.5768 N.am      1 UNK         0.0000 
     14 C14        -0.5543   52.3879   23.4650 C.2       1 UNK         0.0000 
     15 O15        -0.0297   52.4951   22.3582 O.2       1 UNK         0.0000 
     16 C16        -1.9116   51.6681   23.6657 C.3       1 UNK         0.0000 
     17 H17        -2.4160   52.1192   24.5218 H         1 UNK         0.0000 
     18 C18        -2.7905   51.6989   22.4084 C.3       1 UNK         0.0000 
     19 N19        -2.3118   50.5428   21.6431 N.am      1 UNK         0.0000 
     20 C20        -1.6198   49.5677   22.5053 C.3       1 UNK         0.0000 
     21 C21        -1.7092   50.1490   23.9406 C.3       1 UNK         0.0000 
     22 C22        -0.5155   49.7908   24.8719 C.3       1 UNK         0.0000 
     23 C23        -0.3355   48.2865   25.0352 C.3       1 UNK         0.0000 
     24 N24        -1.6200   47.7260   25.6818 N.4       1 UNK         0.0000 
     25 C25        -2.9180   48.0772   24.9215 C.3       1 UNK         0.0000 
     26 C26        -2.9586   49.6068   24.7062 C.3       1 UNK         0.0000 
     27 C27        -2.1310   50.6326   20.2987 C.2       1 UNK         0.0000 
     28 O28        -2.4828   51.6182   19.6446 O.2       1 UNK         0.0000 
     29 C29        -1.4374   49.4909   19.5968 C.ar      1 UNK         0.0000 
     30 C30        -0.3004   49.7421   18.8188 C.ar      1 UNK         0.0000 
     31 C31         0.3649   48.6930   18.1885 C.ar      1 UNK         0.0000 
     32 C32        -0.1169   47.3838   18.3115 C.ar      1 UNK         0.0000 
     33 C33        -1.2643   47.1366   19.0730 C.ar      1 UNK         0.0000 
     34 C34        -1.9230   48.1826   19.7108 C.ar      1 UNK         0.0000 
     35 C35         0.6054   46.2153   17.6436 C.3       1 UNK         0.0000 
     36 F36         1.8367   46.5388   17.2444 F         1 UNK         0.0000 
     37 F37         0.7026   45.1902   18.4929 F         1 UNK         0.0000 
     38 F38        -0.0957   45.8177   16.5822 F         1 UNK         0.0000 
     39 H39         3.1838   52.4946   31.6060 H         1 UNK         0.0000 
     40 H40         1.9612   53.0320   30.4519 H         1 UNK         0.0000 
     41 H41         3.0633   51.6977   30.0502 H         1 UNK         0.0000 
     42 H42         2.1915   52.7075   28.1134 H         1 UNK         0.0000 
     43 H43         4.4493   54.1659   24.8092 H         1 UNK         0.0000 
     44 H44         5.8379   54.8367   28.8176 H         1 UNK         0.0000 
     45 H45         7.5917   56.0414   24.8498 H         1 UNK         0.0000 
     46 H46         6.8017   54.5191   24.4543 H         1 UNK         0.0000 
     47 H47         5.8765   56.0389   24.5023 H         1 UNK         0.0000 
     48 H48         1.6765   51.9747   26.0372 H         1 UNK         0.0000 
     49 H49         2.7434   52.0958   24.6807 H         1 UNK         0.0000 
     50 H50         1.6659   53.9333   23.7328 H         1 UNK         0.0000 
     51 H51         1.1068   54.4952   25.2808 H         1 UNK         0.0000 
     52 H52        -0.5652   52.8374   25.4274 H         1 UNK         0.0000 
     53 H53        -2.6941   52.6692   21.9213 H         1 UNK         0.0000 
     54 H54        -3.8116   51.5385   22.7538 H         1 UNK         0.0000 
     55 H55        -1.9276   48.5280   22.4123 H         1 UNK         0.0000 
     56 H56        -0.5608   49.6166   22.2415 H         1 UNK         0.0000 
     57 H57         0.4242   50.1486   24.4508 H         1 UNK         0.0000 
     58 H58        -0.6043   50.2817   25.8433 H         1 UNK         0.0000 
     59 H59        -0.1708   47.7548   24.0966 H         1 UNK         0.0000 
     60 H60         0.4949   48.0970   25.7135 H         1 UNK         0.0000 
     61 H61        -1.5267   46.7284   25.8105 H         1 UNK         0.0000 
     62 H62        -2.9118   47.5007   23.9971 H         1 UNK         0.0000 
     63 H63        -3.7399   47.7268   25.5493 H         1 UNK         0.0000 
     64 H64        -3.0860   50.1192   25.6621 H         1 UNK         0.0000 
     65 H65        -3.8698   49.8237   24.1487 H         1 UNK         0.0000 
     66 H66         0.0860   50.7481   18.7149 H         1 UNK         0.0000 
     67 H67         1.2533   48.9028   17.6069 H         1 UNK         0.0000 
     68 H68        -1.6476   46.1306   19.1716 H         1 UNK         0.0000 
     69 H69        -2.8112   47.9715   20.2902 H         1 UNK         0.0000 
     70 H70        -1.6846   48.0924   26.6382 H         1 UNK         0.0000 
@<TRIPOS>BOND
     1    1    2 1    
     2    1   39 1    
     3    1   40 1    
     4    1   41 1    
     5    2    3 1    
     6    3    8 ar   
     7    3    4 ar   
     8    4    5 ar   
     9    4   42 1    
    10    5    6 ar   
    11    5   11 1    
    12    6    7 ar   
    13    6   43 1    
    14    7    8 ar   
    15    7    9 1    
    16    8   44 1    
    17    9   10 1    
    18   10   45 1    
    19   10   46 1    
    20   10   47 1    
    21   11   12 1    
    22   11   48 1    
    23   11   49 1    
    24   12   13 1    
    25   12   50 1    
    26   12   51 1    
    27   13   14 am   BACKBONE|DICT|INTERRES
    28   13   52 1    
    29   14   15 2    
    30   14   16 1    
    31   16   17 1    
    32   16   21 1    
    33   16   18 1    
    34   18   19 1    
    35   18   53 1    
    36   18   54 1    
    37   19   20 1    
    38   19   27 am   BACKBONE|DICT|INTERRES
    39   20   21 1    
    40   20   55 1    
    41   20   56 1    
    42   21   26 1    
    43   21   22 1    
    44   22   23 1    
    45   22   57 1    
    46   22   58 1    
    47   23   24 1    
    48   23   59 1    
    49   23   60 1    
    50   24   25 1    
    51   24   61 1    
    52   24   70 1    
    53   25   26 1    
    54   25   62 1    
    55   25   63 1    
    56   26   64 1    
    57   26   65 1    
    58   27   28 2    
    59   27   29 1    
    60   29   34 ar   
    61   29   30 ar   
    62   30   31 ar   
    63   30   66 1    
    64   31   32 ar   
    65   31   67 1    
    66   32   33 ar   
    67   32   35 1    
    68   33   34 ar   
    69   33   68 1    
    70   34   69 1    
    71   35   36 1    
    72   35   37 1    
    73   35   38 1    
@<TRIPOS>SUBSTRUCTURE
     1 UNK         1 GROUP             0       ****    0 ROOT    
