@<TRIPOS>MOLECULE
ZINC13404147_530
53   56    1
SMALL
USER_CHARGES


@<TRIPOS>ATOM
      1 C1         -0.8474   49.6364   25.6812 C.ar      1 UNK         0.0000 
      2 C2         -0.3870   50.4967   26.6654 C.ar      1 UNK         0.0000 
      3 C3          0.3192   51.6498   26.3332 C.ar      1 UNK         0.0000 
      4 C4          0.5606   51.9327   24.9861 C.ar      1 UNK         0.0000 
      5 C5          0.0987   51.0653   23.9915 C.ar      1 UNK         0.0000 
      6 C6         -0.6072   49.9044   24.3314 C.ar      1 UNK         0.0000 
      7 C7         -1.0773   48.9730   23.2800 C.2       1 UNK         0.0000 
      8 C8         -1.5819   47.7350   23.4944 C.2       1 UNK         0.0000 
      9 C9         -2.0956   46.7765   22.4135 C.2       1 UNK         0.0000 
     10 O10        -2.5168   45.6950   22.8791 O.co2     1 UNK         0.0000 
     11 N11         0.8719   52.4808   27.3235 N.am      1 UNK         0.0000 
     12 C12         0.4224   52.7140   28.5816 C.2       1 UNK         0.0000 
     13 O13        -0.6158   52.2326   29.0330 O.2       1 UNK         0.0000 
     14 C14         1.3529   53.4900   29.5490 C.3       1 UNK         0.0000 
     15 H15         1.8395   52.6956   30.1154 H         1 UNK         0.0000 
     16 C16         0.5810   54.4627   30.4753 C.3       1 UNK         0.0000 
     17 C17         1.1834   55.8466   30.2497 C.3       1 UNK         0.0000 
     18 C18         1.8825   55.7762   28.8968 C.3       1 UNK         0.0000 
     19 N19         2.3249   54.3678   28.8337 N.pl3     1 UNK         0.0000 
     20 S20         4.0468   53.9503   28.7985 S.o2      1 UNK         0.0000 
     21 O21         4.7579   54.8962   29.6634 O.2       1 UNK         0.0000 
     22 O22         4.1601   52.5074   29.0320 O.2       1 UNK         0.0000 
     23 C23         4.6027   54.2224   27.1146 C.ar      1 UNK         0.0000 
     24 C24         5.9558   54.4788   26.8517 C.ar      1 UNK         0.0000 
     25 C25         6.4082   54.5641   25.5296 C.ar      1 UNK         0.0000 
     26 C26         5.5121   54.3774   24.4762 C.ar      1 UNK         0.0000 
     27 C27         4.1531   54.1504   24.7386 C.ar      1 UNK         0.0000 
     28 C28         3.7018   54.0919   26.0525 C.ar      1 UNK         0.0000 
     29 O29         3.2350   53.8743   23.7458 O.3       1 UNK         0.0000 
     30 C30         3.6860   54.1487   22.4154 C.3       1 UNK         0.0000 
     31 C31         5.1785   53.7791   22.2260 C.3       1 UNK         0.0000 
     32 O32         5.9987   54.4565   23.1878 O.3       1 UNK         0.0000 
     33 H33        -1.3804   48.7580   26.0158 H         1 UNK         0.0000 
     34 H34        -0.5513   50.2144   27.6925 H         1 UNK         0.0000 
     35 H35         1.1127   52.8174   24.6982 H         1 UNK         0.0000 
     36 H36         0.2991   51.2924   22.9550 H         1 UNK         0.0000 
     37 H37        -1.0136   49.3345   22.2637 H         1 UNK         0.0000 
     38 H38        -1.6396   47.3592   24.5033 H         1 UNK         0.0000 
     39 H39         1.7190   52.9561   27.0613 H         1 UNK         0.0000 
     40 H40        -0.4886   54.4967   30.2544 H         1 UNK         0.0000 
     41 H41         0.6773   54.1673   31.5201 H         1 UNK         0.0000 
     42 H42         0.4386   56.6394   30.2863 H         1 UNK         0.0000 
     43 H43         1.9057   56.0877   31.0279 H         1 UNK         0.0000 
     44 H44         1.1556   55.9537   28.1030 H         1 UNK         0.0000 
     45 H45         2.6812   56.4949   28.7166 H         1 UNK         0.0000 
     46 H46         6.6563   54.5837   27.6714 H         1 UNK         0.0000 
     47 H47         7.4509   54.7402   25.3131 H         1 UNK         0.0000 
     48 H48         2.6577   53.9095   26.2213 H         1 UNK         0.0000 
     49 H49         3.5329   55.2075   22.2023 H         1 UNK         0.0000 
     50 H50         3.0671   53.5896   21.7124 H         1 UNK         0.0000 
     51 H51         5.5116   54.0415   21.2204 H         1 UNK         0.0000 
     52 H52         5.2994   52.6998   22.3433 H         1 UNK         0.0000 
     53 O53        -2.0075   47.1745   21.2316 O.co2     1 UNK         0.0000 
@<TRIPOS>BOND
     1    1    6 ar   
     2    1    2 ar   
     3    1   33 1    
     4    2    3 ar   
     5    2   34 1    
     6    3    4 ar   
     7    3   11 1    
     8    4    5 ar   
     9    4   35 1    
    10    5    6 ar   
    11    5   36 1    
    12    6    7 1    
    13    7    8 2    
    14    7   37 1    
    15    8    9 1    
    16    8   38 1    
    17    9   10 2    
    18    9   53 1    
    19   11   12 am   BACKBONE|DICT|INTERRES
    20   11   39 1    
    21   12   13 2    
    22   12   14 1    
    23   14   15 1    
    24   14   19 1    
    25   14   16 1    
    26   16   17 1    
    27   16   40 1    
    28   16   41 1    
    29   17   18 1    
    30   17   42 1    
    31   17   43 1    
    32   18   19 1    
    33   18   44 1    
    34   18   45 1    
    35   19   20 1    
    36   20   21 2    
    37   20   22 2    
    38   20   23 1    
    39   23   28 ar   
    40   23   24 ar   
    41   24   25 ar   
    42   24   46 1    
    43   25   26 ar   
    44   25   47 1    
    45   26   32 1    
    46   26   27 ar   
    47   27   28 ar   
    48   27   29 1    
    49   28   48 1    
    50   29   30 1    
    51   30   31 1    
    52   30   49 1    
    53   30   50 1    
    54   31   32 1    
    55   31   51 1    
    56   31   52 1    
@<TRIPOS>SUBSTRUCTURE
     1 UNK         1 GROUP             0       ****    0 ROOT    
