@<TRIPOS>MOLECULE
ZINC09335516_1981
44   46    1
SMALL
USER_CHARGES


@<TRIPOS>ATOM
      1 C1          6.1613   54.8963   26.8560 C.ar      1 UNK         0.0000 
      2 C2          5.7922   54.8914   25.5175 C.ar      1 UNK         0.0000 
      3 C3          4.5593   54.3662   25.1418 C.ar      1 UNK         0.0000 
      4 C4          3.6724   53.8316   26.0883 C.ar      1 UNK         0.0000 
      5 C5          4.0429   53.8427   27.4662 C.ar      1 UNK         0.0000 
      6 C6          5.2947   54.3851   27.8151 C.ar      1 UNK         0.0000 
      7 C7          3.1669   53.3042   28.5768 C.2       1 UNK         0.0000 
      8 O8          3.4822   53.5706   29.7638 O.co2     1 UNK         0.0000 
      9 N9          2.4483   53.2689   25.6667 N.pl3     1 UNK         0.0000 
     10 S10         1.6118   53.5313   24.1127 S.o2      1 UNK         0.0000 
     11 O11         0.2284   53.0924   24.3246 O.2       1 UNK         0.0000 
     12 O12         1.9022   54.8967   23.6821 O.2       1 UNK         0.0000 
     13 C13         2.3047   52.4417   22.8703 C.ar      1 UNK         0.0000 
     14 C14         1.8350   51.1327   22.7475 C.ar      1 UNK         0.0000 
     15 C15         2.3037   50.3223   21.7144 C.ar      1 UNK         0.0000 
     16 C16         3.2544   50.8095   20.8158 C.ar      1 UNK         0.0000 
     17 C17         3.7741   52.0979   20.9561 C.ar      1 UNK         0.0000 
     18 C18         3.2754   52.9183   21.9772 C.ar      1 UNK         0.0000 
     19 N19         4.7999   52.4960   20.0827 N.pl3     1 UNK         0.0000 
     20 S20         5.1216   54.1865   19.6483 S.o2      1 UNK         0.0000 
     21 O21         3.9960   54.6382   18.8253 O.2       1 UNK         0.0000 
     22 O22         5.5023   54.8973   20.8759 O.2       1 UNK         0.0000 
     23 C23         6.5583   54.1297   18.5855 C.ar      1 UNK         0.0000 
     24 C24         6.5479   53.2968   17.4653 C.ar      1 UNK         0.0000 
     25 C25         7.6781   53.2152   16.6566 C.ar      1 UNK         0.0000 
     26 C26         8.8075   53.9694   16.9661 C.ar      1 UNK         0.0000 
     27 C27         8.8165   54.8108   18.0767 C.ar      1 UNK         0.0000 
     28 C28         7.6874   54.8964   18.8878 C.ar      1 UNK         0.0000 
     29 F29         9.9069   53.8843   16.1835 F         1 UNK         0.0000 
     30 H30         7.1108   55.3025   27.1645 H         1 UNK         0.0000 
     31 H31         6.4592   55.2914   24.7674 H         1 UNK         0.0000 
     32 H32         4.3153   54.3724   24.0937 H         1 UNK         0.0000 
     33 H33         5.6185   54.4149   28.8476 H         1 UNK         0.0000 
     34 H34         1.9456   52.7597   26.3884 H         1 UNK         0.0000 
     35 H35         1.0875   50.7551   23.4318 H         1 UNK         0.0000 
     36 H36         1.9289   49.3154   21.6063 H         1 UNK         0.0000 
     37 H37         3.5985   50.1693   20.0155 H         1 UNK         0.0000 
     38 H38         3.6237   53.9344   22.0700 H         1 UNK         0.0000 
     39 H39         5.0660   51.8185   19.3738 H         1 UNK         0.0000 
     40 H40         5.6774   52.6976   17.2352 H         1 UNK         0.0000 
     41 H41         7.6821   52.5636   15.7959 H         1 UNK         0.0000 
     42 H42         9.7005   55.3848   18.3131 H         1 UNK         0.0000 
     43 H43         7.7017   55.5426   19.7544 H         1 UNK         0.0000 
     44 O44         2.1649   52.6173   28.2706 O.co2     1 UNK         0.0000 
@<TRIPOS>BOND
     1    1    6 ar   
     2    1    2 ar   
     3    1   30 1    
     4    2    3 ar   
     5    2   31 1    
     6    3    4 ar   
     7    3   32 1    
     8    4    5 ar   
     9    4    9 1    
    10    5    6 ar   
    11    5    7 1    
    12    6   33 1    
    13    7    8 2    
    14    7   44 1    
    15    9   10 1    
    16    9   34 1    
    17   10   11 2    
    18   10   12 2    
    19   10   13 1    
    20   13   18 ar   
    21   13   14 ar   
    22   14   15 ar   
    23   14   35 1    
    24   15   16 ar   
    25   15   36 1    
    26   16   17 ar   
    27   16   37 1    
    28   17   18 ar   
    29   17   19 1    
    30   18   38 1    
    31   19   20 1    
    32   19   39 1    
    33   20   21 2    
    34   20   22 2    
    35   20   23 1    
    36   23   28 ar   
    37   23   24 ar   
    38   24   25 ar   
    39   24   40 1    
    40   25   26 ar   
    41   25   41 1    
    42   26   27 ar   
    43   26   29 1    
    44   27   28 ar   
    45   27   42 1    
    46   28   43 1    
@<TRIPOS>SUBSTRUCTURE
     1 UNK         1 GROUP             0       ****    0 ROOT    
