@<TRIPOS>MOLECULE
ZINC20106871_2757
64   69    1
SMALL
USER_CHARGES


@<TRIPOS>ATOM
      1 C1          6.3063   54.7109   21.3606 C.3       1 UNK         0.0000 
      2 C2          5.5323   54.4967   22.6394 C.ar      1 UNK         0.0000 
      3 C3          4.1421   54.4950   22.5758 C.ar      1 UNK         0.0000 
      4 C4          3.4050   54.3916   23.7449 C.ar      1 UNK         0.0000 
      5 C5          4.0500   54.2615   24.9764 C.ar      1 UNK         0.0000 
      6 C6          5.4492   54.2610   25.0435 C.ar      1 UNK         0.0000 
      7 C7          6.1905   54.3794   23.8675 C.ar      1 UNK         0.0000 
      8 N8          3.1921   54.1427   26.0737 N.am      1 UNK         0.0000 
      9 C9          3.3877   53.6564   27.3099 C.2       1 UNK         0.0000 
     10 O10         4.4819   53.3029   27.7496 O.2       1 UNK         0.0000 
     11 C11         2.1172   53.6029   28.2062 C.3       1 UNK         0.0000 
     12 H12         2.0560   54.6175   28.6032 H         1 UNK         0.0000 
     13 C13         2.2558   52.5945   29.3882 C.3       1 UNK         0.0000 
     14 H14         3.2611   52.3704   29.7479 H         1 UNK         0.0000 
     15 C15         1.2279   52.8799   30.4749 C.2       1 UNK         0.0000 
     16 C16         0.0452   52.4933   29.9715 C.2       1 UNK         0.0000 
     17 C17         0.3590   52.0556   28.5507 C.3       1 UNK         0.0000 
     18 C18         0.7306   53.1654   27.5869 C.3       1 UNK         0.0000 
     19 H19         0.0014   53.9664   27.6819 H         1 UNK         0.0000 
     20 C20         0.5934   52.4828   26.1913 C.2       1 UNK         0.0000 
     21 O21         0.9382   52.9568   25.1127 O.2       1 UNK         0.0000 
     22 N22        -0.0087   51.2871   26.3963 N.am      1 UNK         0.0000 
     23 C23        -0.5301   51.1089   27.7509 C.3       1 UNK         0.0000 
     24 H24        -0.3813   50.0968   28.0827 H         1 UNK         0.0000 
     25 C25        -2.0525   51.4156   27.8329 C.2       1 UNK         0.0000 
     26 O26        -2.6204   52.0860   26.9656 O.2       1 UNK         0.0000 
     27 N27        -2.7028   50.8967   28.8857 N.am      1 UNK         0.0000 
     28 C28        -4.1398   50.9007   29.1531 C.3       1 UNK         0.0000 
     29 C29        -5.0273   50.2525   28.0582 C.3       1 UNK         0.0000 
     30 C30        -6.5275   50.2233   28.4150 C.3       1 UNK         0.0000 
     31 C31        -6.7867   49.6111   29.8020 C.3       1 UNK         0.0000 
     32 C32        -5.9704   50.3263   30.8922 C.3       1 UNK         0.0000 
     33 C33        -4.4652   50.3462   30.5633 C.3       1 UNK         0.0000 
     34 C34         0.0197   50.1767   25.4362 C.3       1 UNK         0.0000 
     35 C35        -1.2784   49.6443   24.8706 C.3       1 UNK         0.0000 
     36 C36        -0.3241   50.3964   23.9754 C.3       1 UNK         0.0000 
     37 O37         1.6389   51.4849   28.7755 O.3       1 UNK         0.0000 
     38 H38         7.3646   54.4973   21.5014 H         1 UNK         0.0000 
     39 H39         6.1946   55.7410   21.0186 H         1 UNK         0.0000 
     40 H40         5.9167   54.0605   20.5750 H         1 UNK         0.0000 
     41 H41         3.6308   54.6014   21.6289 H         1 UNK         0.0000 
     42 H42         2.3277   54.4134   23.6725 H         1 UNK         0.0000 
     43 H43         5.9666   54.1726   25.9868 H         1 UNK         0.0000 
     44 H44         7.2702   54.3946   23.9138 H         1 UNK         0.0000 
     45 H45         2.2201   54.2551   25.8208 H         1 UNK         0.0000 
     46 H46         1.4422   53.2952   31.4471 H         1 UNK         0.0000 
     47 H47        -0.9301   52.5242   30.4283 H         1 UNK         0.0000 
     48 H48        -2.1898   50.2075   29.4284 H         1 UNK         0.0000 
     49 H49        -4.4377   51.9484   29.1911 H         1 UNK         0.0000 
     50 H50        -4.9001   50.7684   27.1064 H         1 UNK         0.0000 
     51 H51        -4.6928   49.2249   27.9054 H         1 UNK         0.0000 
     52 H52        -6.9239   51.2396   28.3882 H         1 UNK         0.0000 
     53 H53        -7.0770   49.6649   27.6560 H         1 UNK         0.0000 
     54 H54        -7.8507   49.6597   30.0381 H         1 UNK         0.0000 
     55 H55        -6.5259   48.5512   29.7873 H         1 UNK         0.0000 
     56 H56        -6.3322   51.3493   31.0074 H         1 UNK         0.0000 
     57 H57        -6.1292   49.8378   31.8557 H         1 UNK         0.0000 
     58 H58        -4.0997   49.3182   30.6214 H         1 UNK         0.0000 
     59 H59        -3.9265   50.8961   31.3360 H         1 UNK         0.0000 
     60 H60         0.7960   49.4451   25.6658 H         1 UNK         0.0000 
     61 H61        -1.3784   48.5633   24.7688 H         1 UNK         0.0000 
     62 H62        -2.2162   50.1163   25.1638 H         1 UNK         0.0000 
     63 H63        -0.6000   51.3946   23.6354 H         1 UNK         0.0000 
     64 H64         0.2531   49.8508   23.2290 H         1 UNK         0.0000 
@<TRIPOS>BOND
     1    1    2 1    
     2    1   38 1    
     3    1   39 1    
     4    1   40 1    
     5    2    7 ar   
     6    2    3 ar   
     7    3    4 ar   
     8    3   41 1    
     9    4    5 ar   
    10    4   42 1    
    11    5    6 ar   
    12    5    8 1    
    13    6    7 ar   
    14    6   43 1    
    15    7   44 1    
    16    8    9 am   BACKBONE|DICT|INTERRES
    17    8   45 1    
    18    9   10 2    
    19    9   11 1    
    20   11   12 1    
    21   11   18 1    
    22   11   13 1    
    23   13   14 1    
    24   13   37 1    
    25   13   15 1    
    26   15   16 2    
    27   15   46 1    
    28   16   17 1    
    29   16   47 1    
    30   17   23 1    
    31   17   18 1    
    32   17   37 1    
    33   18   19 1    
    34   18   20 1    
    35   20   21 2    
    36   20   22 am   BACKBONE|DICT|INTERRES
    37   22   23 1    
    38   22   34 1    
    39   23   24 1    
    40   23   25 1    
    41   25   26 2    
    42   25   27 am   BACKBONE|DICT|INTERRES
    43   27   28 1    
    44   27   48 1    
    45   28   33 1    
    46   28   29 1    
    47   28   49 1    
    48   29   30 1    
    49   29   50 1    
    50   29   51 1    
    51   30   31 1    
    52   30   52 1    
    53   30   53 1    
    54   31   32 1    
    55   31   54 1    
    56   31   55 1    
    57   32   33 1    
    58   32   56 1    
    59   32   57 1    
    60   33   58 1    
    61   33   59 1    
    62   34   36 1    
    63   34   35 1    
    64   34   60 1    
    65   35   36 1    
    66   35   61 1    
    67   35   62 1    
    68   36   63 1    
    69   36   64 1    
@<TRIPOS>SUBSTRUCTURE
     1 UNK         1 GROUP             0       ****    0 ROOT    
