@<TRIPOS>MOLECULE
ZINC12562034_4032
51   53    1
SMALL
USER_CHARGES


@<TRIPOS>ATOM
      1 C1          3.0362   53.0886   28.9194 C.3       1 UNK         0.0000 
      2 C2          3.3307   53.5093   27.4837 C.ar      1 UNK         0.0000 
      3 C3          4.5643   54.1040   27.1979 C.ar      1 UNK         0.0000 
      4 C4          4.8750   54.4976   25.8982 C.ar      1 UNK         0.0000 
      5 C5          3.9626   54.2901   24.8688 C.ar      1 UNK         0.0000 
      6 C6          2.7319   53.6967   25.1377 C.ar      1 UNK         0.0000 
      7 C7          2.4022   53.2971   26.4442 C.ar      1 UNK         0.0000 
      8 N8          1.1495   52.7417   26.7677 N.am      1 UNK         0.0000 
      9 C9          0.2736   52.0972   25.9680 C.2       1 UNK         0.0000 
     10 O10         0.4929   51.7875   24.7966 O.2       1 UNK         0.0000 
     11 C11        -1.0688   51.8079   26.5931 C.ar      1 UNK         0.0000 
     12 C12        -2.2142   51.7770   25.7862 C.ar      1 UNK         0.0000 
     13 C13        -3.4618   51.5107   26.3417 C.ar      1 UNK         0.0000 
     14 C14        -3.5744   51.2731   27.7122 C.ar      1 UNK         0.0000 
     15 C15        -2.4419   51.2965   28.5231 C.ar      1 UNK         0.0000 
     16 C16        -1.1941   51.5612   27.9684 C.ar      1 UNK         0.0000 
     17 S17        -5.1689   50.8925   28.4353 S.o2      1 UNK         0.0000 
     18 O18        -5.2952   51.6801   29.6686 O.2       1 UNK         0.0000 
     19 O19        -6.1672   51.0380   27.3689 O.2       1 UNK         0.0000 
     20 N20        -5.0974   49.1717   28.8615 N.pl3     1 UNK         0.0000 
     21 C21        -5.1212   48.7015   30.2602 C.3       1 UNK         0.0000 
     22 C22        -6.1133   47.5199   30.3345 C.3       1 UNK         0.0000 
     23 H23        -7.1137   47.8462   30.0406 H         1 UNK         0.0000 
     24 O24        -5.6659   46.4975   29.4356 O.3       1 UNK         0.0000 
     25 C25        -5.6202   46.8869   28.0553 C.3       1 UNK         0.0000 
     26 H26        -6.6436   47.1130   27.7461 H         1 UNK         0.0000 
     27 C27        -4.7414   48.1472   27.8580 C.3       1 UNK         0.0000 
     28 C28        -5.1239   45.7020   27.2173 C.3       1 UNK         0.0000 
     29 C29        -6.2302   46.9295   31.7439 C.3       1 UNK         0.0000 
     30 I30         6.7045   55.4156   25.4901 I         1 UNK         0.0000 
     31 H31         2.1998   53.6618   29.3194 H         1 UNK         0.0000 
     32 H32         2.7625   52.0338   28.9500 H         1 UNK         0.0000 
     33 H33         3.8960   53.2221   29.5762 H         1 UNK         0.0000 
     34 H34         5.2874   54.2695   27.9837 H         1 UNK         0.0000 
     35 H35         4.2032   54.5978   23.8617 H         1 UNK         0.0000 
     36 H36         2.0395   53.5791   24.3186 H         1 UNK         0.0000 
     37 H37         0.8792   52.8432   27.7321 H         1 UNK         0.0000 
     38 H38        -2.1442   51.9560   24.7222 H         1 UNK         0.0000 
     39 H39        -4.3335   51.4827   25.7025 H         1 UNK         0.0000 
     40 H40        -2.5169   51.0643   29.5769 H         1 UNK         0.0000 
     41 H41        -0.3331   51.5347   28.6208 H         1 UNK         0.0000 
     42 H42        -4.1060   48.3849   30.5175 H         1 UNK         0.0000 
     43 H43        -5.4024   49.5198   30.9235 H         1 UNK         0.0000 
     44 H44        -4.8240   48.5705   26.8571 H         1 UNK         0.0000 
     45 H45        -3.6959   47.8883   28.0401 H         1 UNK         0.0000 
     46 H46        -5.0671   45.9622   26.1602 H         1 UNK         0.0000 
     47 H47        -4.1301   45.3853   27.5408 H         1 UNK         0.0000 
     48 H48        -5.7900   44.8439   27.3116 H         1 UNK         0.0000 
     49 H49        -6.5236   47.6875   32.4696 H         1 UNK         0.0000 
     50 H50        -6.9822   46.1397   31.7681 H         1 UNK         0.0000 
     51 H51        -5.2941   46.4923   32.0815 H         1 UNK         0.0000 
@<TRIPOS>BOND
     1    1    2 1    
     2    1   31 1    
     3    1   32 1    
     4    1   33 1    
     5    2    7 ar   
     6    2    3 ar   
     7    3    4 ar   
     8    3   34 1    
     9    4    5 ar   
    10    4   30 1    
    11    5    6 ar   
    12    5   35 1    
    13    6    7 ar   
    14    6   36 1    
    15    7    8 1    
    16    8    9 am   BACKBONE|DICT|INTERRES
    17    8   37 1    
    18    9   10 2    
    19    9   11 1    
    20   11   16 ar   
    21   11   12 ar   
    22   12   13 ar   
    23   12   38 1    
    24   13   14 ar   
    25   13   39 1    
    26   14   15 ar   
    27   14   17 1    
    28   15   16 ar   
    29   15   40 1    
    30   16   41 1    
    31   17   18 2    
    32   17   19 2    
    33   17   20 1    
    34   20   27 1    
    35   20   21 1    
    36   21   22 1    
    37   21   42 1    
    38   21   43 1    
    39   22   23 1    
    40   22   24 1    
    41   22   29 1    
    42   24   25 1    
    43   25   26 1    
    44   25   27 1    
    45   25   28 1    
    46   27   44 1    
    47   27   45 1    
    48   28   46 1    
    49   28   47 1    
    50   28   48 1    
    51   29   49 1    
    52   29   50 1    
    53   29   51 1    
@<TRIPOS>SUBSTRUCTURE
     1 UNK         1 GROUP             0       ****    0 ROOT    
