@<TRIPOS>MOLECULE
ZINC37055686_1889
41   42    1
SMALL
USER_CHARGES


@<TRIPOS>ATOM
      1 C1          7.1040   53.8073   23.6424 C.3       1 UNK         0.0000 
      2 C2          6.0186   54.0984   24.6675 C.ar      1 UNK         0.0000 
      3 C3          6.3420   54.1042   26.0291 C.ar      1 UNK         0.0000 
      4 C4          5.3515   54.2891   26.9926 C.ar      1 UNK         0.0000 
      5 C5          4.0200   54.4602   26.6078 C.ar      1 UNK         0.0000 
      6 C6          3.7048   54.4964   25.2482 C.ar      1 UNK         0.0000 
      7 C7          4.6860   54.3035   24.2734 C.ar      1 UNK         0.0000 
      8 C8          4.2772   54.3266   22.8055 C.3       1 UNK         0.0000 
      9 N9          3.0019   54.6262   27.5580 N.pl3     1 UNK         0.0000 
     10 S10         2.7870   53.5492   28.9600 S.o2      1 UNK         0.0000 
     11 O11         3.8387   52.5273   28.9247 O.2       1 UNK         0.0000 
     12 O12         2.7024   54.4897   30.0816 O.2       1 UNK         0.0000 
     13 C13         1.1934   52.6465   28.8481 C.ar      1 UNK         0.0000 
     14 C14         0.4706   52.3727   30.0359 C.ar      1 UNK         0.0000 
     15 C15        -0.7532   51.7057   29.9755 C.ar      1 UNK         0.0000 
     16 C16        -1.2869   51.3052   28.7633 C.ar      1 UNK         0.0000 
     17 C17        -0.5994   51.5527   27.5852 C.ar      1 UNK         0.0000 
     18 C18         0.6401   52.2238   27.6099 C.ar      1 UNK         0.0000 
     19 C19         1.3852   52.4089   26.2955 C.3       1 UNK         0.0000 
     20 N20        -1.1845   51.0808   26.4078 N.pl3     1 UNK         0.0000 
     21 C21         0.9934   52.6896   31.4324 C.3       1 UNK         0.0000 
     22 H22         7.9637   53.3037   24.0816 H         1 UNK         0.0000 
     23 H23         6.7217   53.1279   22.8816 H         1 UNK         0.0000 
     24 H24         7.4309   54.7232   23.1492 H         1 UNK         0.0000 
     25 H25         7.3587   53.9425   26.3535 H         1 UNK         0.0000 
     26 H26         5.6220   54.2794   28.0390 H         1 UNK         0.0000 
     27 H27         2.6856   54.6627   24.9374 H         1 UNK         0.0000 
     28 H28         3.3115   54.8123   22.6590 H         1 UNK         0.0000 
     29 H29         4.2276   53.3133   22.4061 H         1 UNK         0.0000 
     30 H30         4.9983   54.8896   22.2122 H         1 UNK         0.0000 
     31 H31         2.6944   55.5731   27.7150 H         1 UNK         0.0000 
     32 H32        -1.2941   51.4643   30.8811 H         1 UNK         0.0000 
     33 H33        -2.2248   50.7667   28.7545 H         1 UNK         0.0000 
     34 H34         1.1487   51.6407   25.5606 H         1 UNK         0.0000 
     35 H35         1.1417   53.3777   25.8642 H         1 UNK         0.0000 
     36 H36         2.4560   52.3179   26.4457 H         1 UNK         0.0000 
     37 H37        -0.5782   50.9694   25.6099 H         1 UNK         0.0000 
     38 H38        -1.9075   50.3876   26.5516 H         1 UNK         0.0000 
     39 H39         0.5237   52.0655   32.1934 H         1 UNK         0.0000 
     40 H40         2.0610   52.4887   31.5142 H         1 UNK         0.0000 
     41 H41         0.8021   53.7328   31.6840 H         1 UNK         0.0000 
@<TRIPOS>BOND
     1    1    2 1    
     2    1   22 1    
     3    1   23 1    
     4    1   24 1    
     5    2    7 ar   
     6    2    3 ar   
     7    3    4 ar   
     8    3   25 1    
     9    4    5 ar   
    10    4   26 1    
    11    5    6 ar   
    12    5    9 1    
    13    6    7 ar   
    14    6   27 1    
    15    7    8 1    
    16    8   28 1    
    17    8   29 1    
    18    8   30 1    
    19    9   10 1    
    20    9   31 1    
    21   10   11 2    
    22   10   12 2    
    23   10   13 1    
    24   13   18 ar   
    25   13   14 ar   
    26   14   15 ar   
    27   14   21 1    
    28   15   16 ar   
    29   15   32 1    
    30   16   17 ar   
    31   16   33 1    
    32   17   18 ar   
    33   17   20 1    
    34   18   19 1    
    35   19   34 1    
    36   19   35 1    
    37   19   36 1    
    38   20   37 1    
    39   20   38 1    
    40   21   39 1    
    41   21   40 1    
    42   21   41 1    
@<TRIPOS>SUBSTRUCTURE
     1 UNK         1 GROUP             0       ****    0 ROOT    
