@<TRIPOS>MOLECULE
ZINC63480108_1262
64   70    1
SMALL
USER_CHARGES


@<TRIPOS>ATOM
      1 C1         -2.4779   46.5466   25.8897 C.3       1 UNK         0.0000 
      2 C2         -2.1553   47.2146   24.5639 C.ar      1 UNK         0.0000 
      3 C3         -2.8930   46.8996   23.4197 C.ar      1 UNK         0.0000 
      4 C4         -2.6201   47.5303   22.2049 C.ar      1 UNK         0.0000 
      5 C5         -1.5981   48.4767   22.1344 C.ar      1 UNK         0.0000 
      6 C6         -0.8460   48.8108   23.2728 C.ar      1 UNK         0.0000 
      7 C7         -1.1381   48.1708   24.4907 C.ar      1 UNK         0.0000 
      8 N8          0.1990   49.7664   23.1844 N.am      1 UNK         0.0000 
      9 C9          0.3226   50.8404   24.0175 C.2       1 UNK         0.0000 
     10 O10        -0.4248   51.1797   24.9374 O.2       1 UNK         0.0000 
     11 C11         1.6014   51.5829   23.6631 C.3       1 UNK         0.0000 
     12 H12         2.3057   51.4858   24.4815 H         1 UNK         0.0000 
     13 C13         1.4031   53.0536   23.2565 C.3       1 UNK         0.0000 
     14 H14         0.3520   53.2171   23.0049 H         1 UNK         0.0000 
     15 N15         2.1492   53.2342   22.0228 N.3       1 UNK         0.0000 
     16 C16         2.1307   51.9713   21.2943 C.3       1 UNK         0.0000 
     17 C17         2.1194   50.8961   22.4371 C.3       1 UNK         0.0000 
     18 H18         3.1044   50.4729   22.6469 H         1 UNK         0.0000 
     19 C19         1.1743   49.7254   22.2306 C.2       1 UNK         0.0000 
     20 O20         1.3262   48.8966   21.3334 O.2       1 UNK         0.0000 
     21 C21         1.0908   51.8900   20.1973 C.ar      1 UNK         0.0000 
     22 C22        -0.3058   51.9463   20.2260 C.ar      1 UNK         0.0000 
     23 C23        -1.0277   51.7816   19.0413 C.ar      1 UNK         0.0000 
     24 C24        -0.3581   51.5673   17.8329 C.ar      1 UNK         0.0000 
     25 C25         1.0366   51.5130   17.8034 C.ar      1 UNK         0.0000 
     26 C26         1.7400   51.6786   18.9949 C.ar      1 UNK         0.0000 
     27 N27         3.1073   51.6535   19.2060 N.am      1 UNK         0.0000 
     28 C28         3.4531   51.8527   20.4909 C.2       1 UNK         0.0000 
     29 O29         4.5973   51.8846   20.9502 O.2       1 UNK         0.0000 
     30 C30         1.7732   54.0730   24.3605 C.3       1 UNK         0.0000 
     31 C31         3.2324   54.0977   24.8224 C.2       1 UNK         0.0000 
     32 C32         3.7626   54.1325   26.0622 C.2       1 UNK         0.0000 
     33 C33         3.1191   54.1376   27.3844 C.2       1 UNK         0.0000 
     34 C34         3.8528   54.2226   28.5116 C.2       1 UNK         0.0000 
     35 C35         5.3015   54.3127   28.3822 C.2       1 UNK         0.0000 
     36 C36         5.9170   54.3015   27.1701 C.2       1 UNK         0.0000 
     37 C37         5.1598   54.2131   25.9940 C.2       1 UNK         0.0000 
     38 N38         5.5624   54.2021   24.7456 N.pl3     1 UNK         0.0000 
     39 C39         4.4013   54.0771   23.8532 C.3       1 UNK         0.0000 
     40 C40        -3.4178   47.1802   20.9630 C.3       1 UNK         0.0000 
     41 H41        -3.4384   46.0329   25.8733 H         1 UNK         0.0000 
     42 H42        -1.6951   45.8440   26.1743 H         1 UNK         0.0000 
     43 H43        -2.5349   47.2975   26.6777 H         1 UNK         0.0000 
     44 H44        -3.6899   46.1730   23.4795 H         1 UNK         0.0000 
     45 H45        -1.3888   48.9556   21.1892 H         1 UNK         0.0000 
     46 H46        -0.5731   48.4099   25.3827 H         1 UNK         0.0000 
     47 H47         1.7971   53.9909   21.4354 H         1 UNK         0.0000 
     48 H48        -0.8371   52.0944   21.1536 H         1 UNK         0.0000 
     49 H49        -2.1071   51.8122   19.0566 H         1 UNK         0.0000 
     50 H50        -0.9204   51.4353   16.9196 H         1 UNK         0.0000 
     51 H51         1.5537   51.3377   16.8729 H         1 UNK         0.0000 
     52 H52         3.7953   51.4030   18.4988 H         1 UNK         0.0000 
     53 H53         1.1293   53.9047   25.2237 H         1 UNK         0.0000 
     54 H54         1.5369   55.0724   24.0006 H         1 UNK         0.0000 
     55 H55         2.0464   54.0650   27.4882 H         1 UNK         0.0000 
     56 H56         3.3813   54.2213   29.4850 H         1 UNK         0.0000 
     57 H57         5.9071   54.4001   29.2744 H         1 UNK         0.0000 
     58 H58         6.9954   54.3683   27.1383 H         1 UNK         0.0000 
     59 H59         4.4100   54.8966   23.1372 H         1 UNK         0.0000 
     60 H60         4.4977   53.1419   23.3045 H         1 UNK         0.0000 
     61 H61        -3.8522   46.1821   21.0336 H         1 UNK         0.0000 
     62 H62        -4.2163   47.9055   20.8064 H         1 UNK         0.0000 
     63 H63        -2.7724   47.1801   20.0838 H         1 UNK         0.0000 
     64 H64         6.5262   54.2500   24.4292 H         1 UNK         0.0000 
@<TRIPOS>BOND
     1    1    2 1    
     2    1   41 1    
     3    1   42 1    
     4    1   43 1    
     5    2    7 ar   
     6    2    3 ar   
     7    3    4 ar   
     8    3   44 1    
     9    4    5 ar   
    10    4   40 1    
    11    5    6 ar   
    12    5   45 1    
    13    6    7 ar   
    14    6    8 1    
    15    7   46 1    
    16    8   19 am   BACKBONE|DICT|INTERRES
    17    8    9 am   BACKBONE|DICT|INTERRES
    18    9   10 2    
    19    9   11 1    
    20   11   12 1    
    21   11   17 1    
    22   11   13 1    
    23   13   14 1    
    24   13   15 1    
    25   13   30 1    
    26   15   16 1    
    27   15   47 1    
    28   16   28 1    
    29   16   17 1    
    30   16   21 1    
    31   17   18 1    
    32   17   19 1    
    33   19   20 2    
    34   21   26 ar   
    35   21   22 ar   
    36   22   23 ar   
    37   22   48 1    
    38   23   24 ar   
    39   23   49 1    
    40   24   25 ar   
    41   24   50 1    
    42   25   26 ar   
    43   25   51 1    
    44   26   27 1    
    45   27   28 am   BACKBONE|DICT|INTERRES
    46   27   52 1    
    47   28   29 2    
    48   30   31 1    
    49   30   53 1    
    50   30   54 1    
    51   31   39 1    
    52   31   32 2    
    53   32   37 1    
    54   32   33 1    
    55   33   34 2    
    56   33   55 1    
    57   34   35 1    
    58   34   56 1    
    59   35   36 2    
    60   35   57 1    
    61   36   37 1    
    62   36   58 1    
    63   37   38 2    
    64   38   39 1    
    65   38   64 1    
    66   39   59 1    
    67   39   60 1    
    68   40   61 1    
    69   40   62 1    
    70   40   63 1    
@<TRIPOS>SUBSTRUCTURE
     1 UNK         1 GROUP             0       ****    0 ROOT    
