@<TRIPOS>MOLECULE
ZINC22809938_5361
59   63    1
SMALL
USER_CHARGES


@<TRIPOS>ATOM
      1 C1          4.7354   54.5386   18.6691 C.2       1 UNK         0.0000 
      2 C2          4.6493   54.4968   20.0635 C.2       1 UNK         0.0000 
      3 C3          3.9041   53.4292   20.5789 C.2       1 UNK         0.0000 
      4 S4          3.2732   52.4965   19.2427 S.3       1 UNK         0.0000 
      5 C5          4.0390   53.5086   18.0716 C.2       1 UNK         0.0000 
      6 C6          3.5710   53.0184   22.0109 C.3       1 UNK         0.0000 
      7 H7          3.9242   51.9877   22.0911 H         1 UNK         0.0000 
      8 C8          4.3502   53.7357   23.1393 C.ar      1 UNK         0.0000 
      9 C9          5.7224   53.9658   22.9893 C.ar      1 UNK         0.0000 
     10 C10         6.4591   54.5441   24.0150 C.ar      1 UNK         0.0000 
     11 C11         5.8507   54.8762   25.2146 C.ar      1 UNK         0.0000 
     12 C12         4.4869   54.6553   25.3891 C.ar      1 UNK         0.0000 
     13 C13         3.7385   54.0969   24.3528 C.ar      1 UNK         0.0000 
     14 F14         6.5940   55.4075   26.2131 F         1 UNK         0.0000 
     15 N15         2.1119   53.0173   22.1849 N.am      1 UNK         0.0000 
     16 C16         1.3907   52.0526   22.7856 C.2       1 UNK         0.0000 
     17 O17         1.9043   51.0288   23.2412 O.2       1 UNK         0.0000 
     18 C18        -0.1311   52.3133   22.8632 C.3       1 UNK         0.0000 
     19 N19        -0.8660   51.2736   23.6097 N.3       1 UNK         0.0000 
     20 C20        -2.3059   51.3594   23.3304 C.3       1 UNK         0.0000 
     21 C21        -3.0633   50.2111   24.0392 C.3       1 UNK         0.0000 
     22 N22        -2.8650   50.2829   25.4925 N.3       1 UNK         0.0000 
     23 C23        -1.4293   50.2348   25.8092 C.3       1 UNK         0.0000 
     24 C24        -0.6592   51.3597   25.0694 C.3       1 UNK         0.0000 
     25 C25        -3.6103   49.2352   26.1991 C.3       1 UNK         0.0000 
     26 C26        -4.5372   49.7837   27.2716 C.ar      1 UNK         0.0000 
     27 C27        -5.7625   50.3002   27.0275 C.ar      1 UNK         0.0000 
     28 C28        -6.6553   50.8073   28.0408 C.ar      1 UNK         0.0000 
     29 O29        -7.7672   51.3167   27.9097 O.2       1 UNK         0.0000 
     30 N30        -6.0660   50.6532   29.3956 N.pl3     1 UNK         0.0000 
     31 C31        -6.7227   51.0448   30.5466 C.2       1 UNK         0.0000 
     32 C32        -6.0051   50.8142   31.6542 C.2       1 UNK         0.0000 
     33 S33        -4.4407   50.0968   31.2815 S.3       1 UNK         0.0000 
     34 C34        -4.8453   50.1233   29.6084 C.ar      1 UNK         0.0000 
     35 N35        -4.0956   49.6944   28.5781 N.pl3     1 UNK         0.0000 
     36 H36         5.2838   55.2923   18.1213 H         1 UNK         0.0000 
     37 H37         5.1224   55.2411   20.6837 H         1 UNK         0.0000 
     38 H38         3.9375   53.2860   17.0193 H         1 UNK         0.0000 
     39 H39         6.2352   53.6937   22.0816 H         1 UNK         0.0000 
     40 H40         7.5065   54.7287   23.8774 H         1 UNK         0.0000 
     41 H41         4.0139   54.9094   26.3256 H         1 UNK         0.0000 
     42 H42         2.6860   53.9229   24.5205 H         1 UNK         0.0000 
     43 H43         1.6409   53.8350   21.8241 H         1 UNK         0.0000 
     44 H44        -0.3114   53.2968   23.2988 H         1 UNK         0.0000 
     45 H45        -0.4841   52.3460   21.8304 H         1 UNK         0.0000 
     46 H46        -2.7052   52.3187   23.6656 H         1 UNK         0.0000 
     47 H47        -2.4815   51.2703   22.2570 H         1 UNK         0.0000 
     48 H48        -2.6982   49.2570   23.6532 H         1 UNK         0.0000 
     49 H49        -4.1242   50.2977   23.8018 H         1 UNK         0.0000 
     50 H50        -1.0095   49.2739   25.5023 H         1 UNK         0.0000 
     51 H51        -1.2745   50.3472   26.8824 H         1 UNK         0.0000 
     52 H52         0.3989   51.2625   25.3158 H         1 UNK         0.0000 
     53 H53        -1.0060   52.3263   25.4398 H         1 UNK         0.0000 
     54 H54        -4.2423   48.6793   25.5034 H         1 UNK         0.0000 
     55 H55        -2.9463   48.4841   26.6322 H         1 UNK         0.0000 
     56 H56        -6.1096   50.3573   26.0059 H         1 UNK         0.0000 
     57 H57        -7.7158   51.4678   30.4626 H         1 UNK         0.0000 
     58 H58        -6.2808   51.0152   32.6793 H         1 UNK         0.0000 
     59 H59        -3.1772   49.2823   28.7580 H         1 UNK         0.0000 
@<TRIPOS>BOND
     1    1    5 2    
     2    1    2 1    
     3    1   36 1    
     4    2    3 2    
     5    2   37 1    
     6    3    4 1    
     7    3    6 1    
     8    4    5 1    
     9    5   38 1    
    10    6    7 1    
    11    6    8 1    
    12    6   15 1    
    13    8   13 ar   
    14    8    9 ar   
    15    9   10 ar   
    16    9   39 1    
    17   10   11 ar   
    18   10   40 1    
    19   11   12 ar   
    20   11   14 1    
    21   12   13 ar   
    22   12   41 1    
    23   13   42 1    
    24   15   16 am   BACKBONE|DICT|INTERRES
    25   15   43 1    
    26   16   17 2    
    27   16   18 1    
    28   18   19 1    
    29   18   44 1    
    30   18   45 1    
    31   19   24 1    
    32   19   20 1    
    33   20   21 1    
    34   20   46 1    
    35   20   47 1    
    36   21   22 1    
    37   21   48 1    
    38   21   49 1    
    39   22   23 1    
    40   22   25 1    
    41   23   24 1    
    42   23   50 1    
    43   23   51 1    
    44   24   52 1    
    45   24   53 1    
    46   25   26 1    
    47   25   54 1    
    48   25   55 1    
    49   26   35 ar   
    50   26   27 ar   
    51   27   28 ar   
    52   27   56 1    
    53   28   29 2    
    54   28   30 ar   
    55   30   34 ar   
    56   30   31 1    
    57   31   32 2    
    58   31   57 1    
    59   32   33 1    
    60   32   58 1    
    61   33   34 1    
    62   34   35 ar   
    63   35   59 1    
@<TRIPOS>SUBSTRUCTURE
     1 UNK         1 GROUP             0       ****    0 ROOT    
