ZINC03226725_3402
                    3D
 Schrodinger Suite 2024-2.
 57 61  0  0  1  0            999 V2000
    1.1003   48.2481   19.8206 C   0  0  0  0  0  0
    1.6387   49.4507   20.5724 C   0  0  0  0  0  0
    2.7064   50.2611   20.2460 C   0  0  0  0  0  0
    2.8546   51.2510   21.2169 C   0  0  0  0  0  0
    1.8467   51.0375   22.1692 C   0  0  0  0  0  0
    1.1286   49.9070   21.7818 N   0  0  0  0  0  0
    0.0738   49.2976   22.5054 C   0  0  0  0  0  0
   -1.1623   49.0683   21.8911 C   0  0  0  0  0  0
   -2.1735   48.4181   22.5937 C   0  0  0  0  0  0
   -1.9516   48.0042   23.9053 C   0  0  0  0  0  0
   -0.7307   48.2486   24.5295 C   0  0  0  0  0  0
    0.2844   48.8966   23.8306 C   0  0  0  0  0  0
   -2.9292   47.3514   24.5729 F   0  0  0  0  0  0
    1.5178   51.8215   23.4378 C   0  0  0  0  0  0
    3.9387   52.1992   21.2527 C   0  0  0  0  0  0
    5.0723   51.8841   20.8822 O   0  0  0  0  0  0
    3.5937   53.4109   21.7298 N   0  0  0  0  0  0
    4.4881   54.4967   21.6697 N   0  0  0  0  0  0
    5.5766   54.5958   22.5439 C   0  0  0  0  0  0
    6.7451   54.8969   21.9431 C   0  0  0  0  0  0
    5.4446   54.4307   24.0321 C   0  0  0  0  0  0
    6.5713   54.3551   24.8669 C   0  0  0  0  0  0
    6.4459   54.2174   26.2474 C   0  0  0  0  0  0
    5.1872   54.1463   26.8360 C   0  0  0  0  0  0
    4.0445   54.1898   26.0250 C   0  0  0  0  0  0
    4.1824   54.3601   24.6464 C   0  0  0  0  0  0
    2.7516   54.0165   26.5521 N   0  0  0  0  0  0
    2.4619   53.5485   27.8460 C   0  0  0  0  0  0
    1.1573   53.1325   28.1251 C   0  0  0  0  0  0
    0.8376   52.6098   29.3787 C   0  0  0  0  0  0
    1.8240   52.4947   30.3569 C   0  0  0  0  0  0
    3.1292   52.9007   30.0815 C   0  0  0  0  0  0
    3.4519   53.4511   28.8396 C   0  0  0  0  0  0
    5.0753   54.0954   28.5926 S   0  0  0  0  0  0
    1.8322   47.8659   19.1074 H   0  0  0  0  0  0
    0.8473   47.4206   20.4811 H   0  0  0  0  0  0
    0.2053   48.4956   19.2505 H   0  0  0  0  0  0
    3.3395   50.1386   19.3744 H   0  0  0  0  0  0
   -1.3401   49.3814   20.8719 H   0  0  0  0  0  0
   -3.1268   48.2277   22.1238 H   0  0  0  0  0  0
   -0.5707   47.9289   25.5509 H   0  0  0  0  0  0
    1.2368   49.0589   24.3163 H   0  0  0  0  0  0
    2.2938   51.6994   24.1932 H   0  0  0  0  0  0
    1.4397   52.8890   23.2394 H   0  0  0  0  0  0
    0.5690   51.5495   23.9000 H   0  0  0  0  0  0
    2.6255   53.6990   21.7265 H   0  0  0  0  0  0
    4.7579   54.5644   20.6975 H   0  0  0  0  0  0
    6.8153   55.0060   20.8697 H   0  0  0  0  0  0
    7.6654   55.0474   22.4826 H   0  0  0  0  0  0
    7.5670   54.3924   24.4601 H   0  0  0  0  0  0
    7.3305   54.1759   26.8659 H   0  0  0  0  0  0
    3.2876   54.4273   24.0486 H   0  0  0  0  0  0
    1.9806   54.0804   25.9062 H   0  0  0  0  0  0
    0.3885   53.1989   27.3691 H   0  0  0  0  0  0
   -0.1718   52.2858   29.5902 H   0  0  0  0  0  0
    1.5725   52.0950   31.3295 H   0  0  0  0  0  0
    3.8876   52.8191   30.8473 H   0  0  0  0  0  0
  1  2  1  0  0  0
  1 35  1  0  0  0
  1 36  1  0  0  0
  1 37  1  0  0  0
  2  6  1  0  0  0
  2  3  2  0  0  0
  3  4  1  0  0  0
  3 38  1  0  0  0
  4  5  2  0  0  0
  4 15  1  0  0  0
  5  6  1  0  0  0
  5 14  1  0  0  0
  6  7  1  0  0  0
  7 12  2  0  0  0
  7  8  1  0  0  0
  8  9  2  0  0  0
  8 39  1  0  0  0
  9 10  1  0  0  0
  9 40  1  0  0  0
 10 11  2  0  0  0
 10 13  1  0  0  0
 11 12  1  0  0  0
 11 41  1  0  0  0
 12 42  1  0  0  0
 14 43  1  0  0  0
 14 44  1  0  0  0
 14 45  1  0  0  0
 15 16  2  0  0  0
 15 17  1  0  0  0
 17 18  1  0  0  0
 17 46  1  0  0  0
 18 19  1  0  0  0
 18 47  1  0  0  0
 19 20  2  0  0  0
 19 21  1  0  0  0
 20 48  1  0  0  0
 20 49  1  0  0  0
 21 26  2  0  0  0
 21 22  1  0  0  0
 22 23  2  0  0  0
 22 50  1  0  0  0
 23 24  1  0  0  0
 23 51  1  0  0  0
 24 34  1  0  0  0
 24 25  2  0  0  0
 25 26  1  0  0  0
 25 27  1  0  0  0
 26 52  1  0  0  0
 27 28  1  0  0  0
 27 53  1  0  0  0
 28 33  2  0  0  0
 28 29  1  0  0  0
 29 30  2  0  0  0
 29 54  1  0  0  0
 30 31  1  0  0  0
 30 55  1  0  0  0
 31 32  2  0  0  0
 31 56  1  0  0  0
 32 33  1  0  0  0
 32 57  1  0  0  0
 33 34  1  0  0  0
M  END
> <i_i_glide_confnum>
25

> <i_i_glide_lignum>
3403

> <i_i_glide_posenum>
67

> <i_i_glide_rotatable_bonds>
6

> <i_m_Source_File_Index>
3571

> <b_m_subgroup_collapsed>
0

> <r_i_docking_score>
-6.76768

> <r_i_glide_ecoul>
-4.10136

> <r_i_glide_eff_state_penalty>
0

> <r_i_glide_einternal>
13.2597

> <r_i_glide_emodel>
-71.7384

> <r_i_glide_energy>
-56.4072

> <r_i_glide_erotb>
0.456264

> <r_i_glide_esite>
-0.0383981

> <r_i_glide_evdw>
-52.3059

> <r_i_glide_gscore>
-6.76768

> <r_i_glide_hbond>
0

> <r_i_glide_ligand_efficiency>
-0.199049

> <r_i_glide_ligand_efficiency_ln>
-1.49517

> <r_i_glide_ligand_efficiency_sa>
-0.644843

> <r_i_glide_lipo>
-3.473

> <r_i_glide_metal>
0

> <r_i_glide_rewards>
-0.482049

> <s_i_glide_gridfile>
wee1_glide-grid

> <s_m_Source_File>
wee1_decoys_glide_SP.sdf

> <s_m_Source_Path>
/Users/zhangxujun/Desktop

> <s_m_entry_id>
3846

> <s_m_entry_name>
wee1_decoys_glide_SP.3571

> <s_m_subgroup_title>
wee1_decoys_glide_SP

> <s_m_subgroupid>
wee1_decoys_glide_SP


$$$$
