ZINC23065123_3263
                    3D
 Schrodinger Suite 2024-2.
 54 57  0  0  1  0            999 V2000
    6.6427   54.8963   22.5976 C   0  0  0  0  0  0
    6.7044   54.9382   23.9856 C   0  0  0  0  0  0
    5.6322   54.5162   24.7706 C   0  0  0  0  0  0
    4.4540   54.1048   24.1299 C   0  0  0  0  0  0
    4.3772   54.0932   22.7350 C   0  0  0  0  0  0
    5.4815   54.4639   21.9509 C   0  0  0  0  0  0
    5.4873   54.3847   20.4113 C   0  0  0  0  0  0
    5.9038   55.9863   19.6468 S   0  0  0  0  0  0
    6.2971   55.3651   17.9825 C   0  0  0  0  0  0
    5.1330   54.6105   17.3118 C   0  0  0  0  0  0
    4.7412   53.2964   18.0130 C   0  0  0  0  0  0
    4.0402   53.5613   19.6688 S   0  0  0  0  0  0
    5.8135   54.5173   26.2600 C   0  0  0  0  0  0
    6.8509   54.8957   26.8122 O   0  0  0  0  0  0
    4.7405   54.0553   26.9407 O   0  0  0  0  0  0
    4.7588   53.9669   28.3720 C   0  0  0  0  0  0
    3.3361   53.7689   28.9151 C   0  0  0  0  0  0
    3.1052   54.0965   30.0817 O   0  0  0  0  0  0
    2.4516   53.1785   28.0790 N   0  0  0  0  0  0
    1.1281   52.9989   28.2569 C   0  0  0  0  0  0
    0.4876   53.3245   29.2599 O   0  0  0  0  0  0
    0.5950   52.4323   27.1558 N   0  0  0  0  0  0
   -0.7422   52.0658   26.9439 C   0  0  0  0  0  0
   -1.2121   52.0956   25.6251 C   0  0  0  0  0  0
   -2.5291   51.7355   25.3327 C   0  0  0  0  0  0
   -3.3811   51.3385   26.3609 C   0  0  0  0  0  0
   -2.9089   51.2831   27.6816 C   0  0  0  0  0  0
   -1.5959   51.6432   27.9745 C   0  0  0  0  0  0
   -3.7266   50.9312   28.7358 O   0  0  0  0  0  0
   -4.8520   50.1429   28.3423 C   0  0  0  0  0  0
   -5.5526   50.7983   27.1259 C   0  0  0  0  0  0
   -4.6545   50.9297   26.0162 O   0  0  0  0  0  0
    7.5091   55.1977   22.0259 H   0  0  0  0  0  0
    7.6077   55.2856   24.4625 H   0  0  0  0  0  0
    3.5930   53.7840   24.6981 H   0  0  0  0  0  0
    3.4552   53.7680   22.2775 H   0  0  0  0  0  0
    6.3044   53.7221   20.1529 H   0  0  0  0  0  0
    6.5862   56.2285   17.3822 H   0  0  0  0  0  0
    7.1766   54.7254   18.0678 H   0  0  0  0  0  0
    5.4075   54.3871   16.2804 H   0  0  0  0  0  0
    4.2619   55.2645   17.2503 H   0  0  0  0  0  0
    5.6028   52.6346   18.1159 H   0  0  0  0  0  0
    3.9964   52.7510   17.4319 H   0  0  0  0  0  0
    5.2464   54.8153   28.8600 H   0  0  0  0  0  0
    5.3228   53.0701   28.6358 H   0  0  0  0  0  0
    2.8321   52.8934   27.1907 H   0  0  0  0  0  0
    1.1890   52.3322   26.3484 H   0  0  0  0  0  0
   -0.5617   52.4007   24.8183 H   0  0  0  0  0  0
   -2.8852   51.7522   24.3136 H   0  0  0  0  0  0
   -1.2579   51.5754   28.9984 H   0  0  0  0  0  0
   -4.5130   49.1407   28.0713 H   0  0  0  0  0  0
   -5.5390   50.0457   29.1830 H   0  0  0  0  0  0
   -6.4173   50.2089   26.8206 H   0  0  0  0  0  0
   -5.9105   51.7889   27.4114 H   0  0  0  0  0  0
  1  6  2  0  0  0
  1  2  1  0  0  0
  1 33  1  0  0  0
  2  3  2  0  0  0
  2 34  1  0  0  0
  3  4  1  0  0  0
  3 13  1  0  0  0
  4  5  2  0  0  0
  4 35  1  0  0  0
  5  6  1  0  0  0
  5 36  1  0  0  0
  6  7  1  0  0  0
  7 12  1  0  0  0
  7  8  1  0  0  0
  7 37  1  0  0  0
  8  9  1  0  0  0
  9 10  1  0  0  0
  9 38  1  0  0  0
  9 39  1  0  0  0
 10 11  1  0  0  0
 10 40  1  0  0  0
 10 41  1  0  0  0
 11 12  1  0  0  0
 11 42  1  0  0  0
 11 43  1  0  0  0
 13 14  2  0  0  0
 13 15  1  0  0  0
 15 16  1  0  0  0
 16 17  1  0  0  0
 16 44  1  0  0  0
 16 45  1  0  0  0
 17 18  2  0  0  0
 17 19  1  0  0  0
 19 20  1  0  0  0
 19 46  1  0  0  0
 20 21  2  0  0  0
 20 22  1  0  0  0
 22 23  1  0  0  0
 22 47  1  0  0  0
 23 28  2  0  0  0
 23 24  1  0  0  0
 24 25  2  0  0  0
 24 48  1  0  0  0
 25 26  1  0  0  0
 25 49  1  0  0  0
 26 32  1  0  0  0
 26 27  2  0  0  0
 27 28  1  0  0  0
 27 29  1  0  0  0
 28 50  1  0  0  0
 29 30  1  0  0  0
 30 31  1  0  0  0
 30 51  1  0  0  0
 30 52  1  0  0  0
 31 32  1  0  0  0
 31 53  1  0  0  0
 31 54  1  0  0  0
M  END
> <i_i_glide_confnum>
169

> <i_i_glide_lignum>
3264

> <i_i_glide_posenum>
189

> <i_i_glide_rotatable_bonds>
9

> <i_m_Source_File_Index>
3314

> <b_m_subgroup_collapsed>
0

> <r_i_docking_score>
-6.39563

> <r_i_glide_ecoul>
-6.80172

> <r_i_glide_eff_state_penalty>
0

> <r_i_glide_einternal>
7.54676

> <r_i_glide_emodel>
-68.611

> <r_i_glide_energy>
-50.9239

> <r_i_glide_erotb>
0.718858

> <r_i_glide_esite>
0

> <r_i_glide_evdw>
-44.1222

> <r_i_glide_gscore>
-6.39563

> <r_i_glide_hbond>
-0.564508

> <r_i_glide_ligand_efficiency>
-0.199863

> <r_i_glide_ligand_efficiency_ln>
-1.43216

> <r_i_glide_ligand_efficiency_sa>
-0.634527

> <r_i_glide_lipo>
-1.81465

> <r_i_glide_metal>
0

> <r_i_glide_rewards>
-1.50896

> <s_i_glide_gridfile>
wee1_glide-grid

> <s_m_Source_File>
wee1_decoys_glide_SP.sdf

> <s_m_Source_Path>
/Users/zhangxujun/Desktop

> <s_m_entry_id>
3589

> <s_m_entry_name>
wee1_decoys_glide_SP.3314

> <s_m_subgroup_title>
wee1_decoys_glide_SP

> <s_m_subgroupid>
wee1_decoys_glide_SP


$$$$
