ZINC13073836_3375
                    3D
 Schrodinger Suite 2024-2.
 68 71  0  0  1  0            999 V2000
    5.2586   51.8560   14.5614 C   0  0  0  0  0  0
    4.4001   52.6425   15.5658 C   0  0  0  0  0  0
    4.8587   54.1052   15.8075 C   0  0  2  0  0  0
    6.2958   54.2359   16.3785 C   0  0  0  0  0  0
    6.3737   53.6850   17.8193 C   0  0  0  0  0  0
    5.3882   54.4351   18.7662 C   0  0  1  0  0  0
    3.9469   54.3440   18.1836 C   0  0  0  0  0  0
    3.8854   54.8777   16.7337 C   0  0  0  0  0  0
    5.4058   53.7756   20.1347 C   0  0  0  0  0  0
    5.1045   52.6083   20.3981 O   0  0  0  0  0  0
    5.8182   54.7360   20.9955 N   0  0  0  0  0  0
    6.1100   55.9240   20.4026 C   0  0  0  0  0  0
    6.7044   56.8903   20.8814 O   0  0  0  0  0  0
    5.7931   55.7693   19.1129 N   0  0  0  0  0  0
    5.8848   54.5345   22.4652 C   0  0  0  0  0  0
    4.5021   54.3414   23.1290 C   0  0  0  0  0  0
    3.4624   54.4592   22.4802 O   0  0  0  0  0  0
    4.5481   54.0969   24.4540 N   0  0  0  0  0  0
    3.4903   53.8027   25.3425 C   0  0  0  0  0  0
    2.2607   53.2755   24.9065 C   0  0  0  0  0  0
    1.2801   52.8967   25.8250 C   0  0  0  0  0  0
    1.5047   53.0715   27.1906 C   0  0  0  0  0  0
    2.7095   53.6125   27.6338 C   0  0  0  0  0  0
    3.7138   53.9615   26.7249 C   0  0  0  0  0  0
    5.0324   54.4965   27.2719 C   0  0  0  0  0  0
   -0.2159   52.0969   25.2463 S   0  0  0  0  0  0
   -0.5202   52.6810   23.9340 O   0  0  0  0  0  0
   -1.1802   52.1527   26.3517 O   0  0  0  0  0  0
    0.3072   50.4171   25.0171 N   0  0  0  0  0  0
    0.7495   49.9605   23.6804 C   0  0  0  0  0  0
   -0.4112   49.2357   22.9662 C   0  0  0  0  0  0
   -1.0302   48.1247   23.8533 C   0  0  0  0  0  0
   -1.3705   48.6178   25.2814 C   0  0  0  0  0  0
   -0.1755   49.3504   25.9222 C   0  0  0  0  0  0
    4.8199   50.8764   14.3673 H   0  0  0  0  0  0
    5.3356   52.3805   13.6088 H   0  0  0  0  0  0
    6.2664   51.6858   14.9411 H   0  0  0  0  0  0
    4.3669   52.0914   16.5054 H   0  0  0  0  0  0
    3.3725   52.6502   15.2009 H   0  0  0  0  0  0
    4.8502   54.6192   14.8444 H   0  0  0  0  0  0
    6.6076   55.2820   16.3680 H   0  0  0  0  0  0
    7.0106   53.7020   15.7516 H   0  0  0  0  0  0
    7.3964   53.8279   18.1753 H   0  0  0  0  0  0
    6.2384   52.6009   17.8586 H   0  0  0  0  0  0
    3.5316   53.3389   18.2754 H   0  0  0  0  0  0
    3.2753   54.9514   18.7911 H   0  0  0  0  0  0
    4.1256   55.9422   16.7211 H   0  0  0  0  0  0
    2.8639   54.7920   16.3600 H   0  0  0  0  0  0
    5.5978   56.5461   18.4995 H   0  0  0  0  0  0
    6.4051   55.3647   22.9479 H   0  0  0  0  0  0
    6.4821   53.6458   22.6673 H   0  0  0  0  0  0
    5.4551   54.1557   24.8897 H   0  0  0  0  0  0
    2.0704   53.0943   23.8593 H   0  0  0  0  0  0
    0.7579   52.7717   27.9108 H   0  0  0  0  0  0
    2.8715   53.7289   28.6954 H   0  0  0  0  0  0
    5.7957   53.7176   27.2530 H   0  0  0  0  0  0
    5.3895   55.3339   26.6752 H   0  0  0  0  0  0
    4.9296   54.8666   28.2925 H   0  0  0  0  0  0
    1.6054   49.2974   23.8135 H   0  0  0  0  0  0
    1.0925   50.8190   23.1017 H   0  0  0  0  0  0
   -0.0626   48.8158   22.0219 H   0  0  0  0  0  0
   -1.1811   49.9655   22.7052 H   0  0  0  0  0  0
   -1.9226   47.7180   23.3757 H   0  0  0  0  0  0
   -0.3245   47.2974   23.9333 H   0  0  0  0  0  0
   -2.2313   49.2878   25.2520 H   0  0  0  0  0  0
   -1.6650   47.7787   25.9141 H   0  0  0  0  0  0
    0.6421   48.6501   26.1011 H   0  0  0  0  0  0
   -0.4511   49.7829   26.8822 H   0  0  0  0  0  0
  1  2  1  0  0  0
  1 35  1  0  0  0
  1 36  1  0  0  0
  1 37  1  0  0  0
  2  3  1  0  0  0
  2 38  1  0  0  0
  2 39  1  0  0  0
  3  8  1  0  0  0
  3  4  1  0  0  0
  3 40  1  0  0  0
  4  5  1  0  0  0
  4 41  1  0  0  0
  4 42  1  0  0  0
  5  6  1  0  0  0
  5 43  1  0  0  0
  5 44  1  0  0  0
  6 14  1  0  0  0
  6  7  1  0  0  0
  6  9  1  0  0  0
  7  8  1  0  0  0
  7 45  1  0  0  0
  7 46  1  0  0  0
  8 47  1  0  0  0
  8 48  1  0  0  0
  9 10  2  0  0  0
  9 11  1  0  0  0
 11 12  1  0  0  0
 11 15  1  0  0  0
 12 13  2  0  0  0
 12 14  1  0  0  0
 14 49  1  0  0  0
 15 16  1  0  0  0
 15 50  1  0  0  0
 15 51  1  0  0  0
 16 17  2  0  0  0
 16 18  1  0  0  0
 18 19  1  0  0  0
 18 52  1  0  0  0
 19 24  2  0  0  0
 19 20  1  0  0  0
 20 21  2  0  0  0
 20 53  1  0  0  0
 21 22  1  0  0  0
 21 26  1  0  0  0
 22 23  2  0  0  0
 22 54  1  0  0  0
 23 24  1  0  0  0
 23 55  1  0  0  0
 24 25  1  0  0  0
 25 56  1  0  0  0
 25 57  1  0  0  0
 25 58  1  0  0  0
 26 27  2  0  0  0
 26 28  2  0  0  0
 26 29  1  0  0  0
 29 34  1  0  0  0
 29 30  1  0  0  0
 30 31  1  0  0  0
 30 59  1  0  0  0
 30 60  1  0  0  0
 31 32  1  0  0  0
 31 61  1  0  0  0
 31 62  1  0  0  0
 32 33  1  0  0  0
 32 63  1  0  0  0
 32 64  1  0  0  0
 33 34  1  0  0  0
 33 65  1  0  0  0
 33 66  1  0  0  0
 34 67  1  0  0  0
 34 68  1  0  0  0
M  END
> <i_i_glide_confnum>
91

> <i_i_glide_lignum>
3376

> <i_i_glide_posenum>
106

> <i_i_glide_rotatable_bonds>
7

> <i_m_Source_File_Index>
218

> <b_m_subgroup_collapsed>
0

> <r_i_docking_score>
-4.88136

> <r_i_glide_ecoul>
-5.5579

> <r_i_glide_eff_state_penalty>
0

> <r_i_glide_einternal>
4.26105

> <r_i_glide_emodel>
-56.8129

> <r_i_glide_energy>
-42.8432

> <r_i_glide_erotb>
0.507305

> <r_i_glide_esite>
-0.0406766

> <r_i_glide_evdw>
-37.2853

> <r_i_glide_gscore>
-4.88136

> <r_i_glide_hbond>
-0.32

> <r_i_glide_ligand_efficiency>
-0.143569

> <r_i_glide_ligand_efficiency_ln>
-1.07843

> <r_i_glide_ligand_efficiency_sa>
-0.465109

> <r_i_glide_lipo>
-1.72617

> <r_i_glide_metal>
0

> <r_i_glide_rewards>
-0.603873

> <s_i_glide_gridfile>
wee1_glide-grid

> <s_m_Source_File>
wee1_decoys_glide_SP.sdf

> <s_m_Source_Path>
/Users/zhangxujun/Desktop

> <s_m_entry_id>
493

> <s_m_entry_name>
wee1_decoys_glide_SP.218

> <s_m_subgroup_title>
wee1_decoys_glide_SP

> <s_m_subgroupid>
wee1_decoys_glide_SP


$$$$
