@<TRIPOS>MOLECULE
ZINC02772643_4479
61   66    1
SMALL
USER_CHARGES


@<TRIPOS>ATOM
      1 C1          6.4974   54.8550   23.0111 C.ar      1 UNK         0.0000 
      2 C2          6.7040   55.3345   24.2947 C.ar      1 UNK         0.0000 
      3 C3          5.7540   55.1361   25.2858 C.ar      1 UNK         0.0000 
      4 C4          4.5511   54.4514   24.9919 C.ar      1 UNK         0.0000 
      5 C5          4.2978   53.9732   23.6661 C.ar      1 UNK         0.0000 
      6 C6          5.3267   54.1745   22.6902 C.ar      1 UNK         0.0000 
      7 C7          3.0436   53.2969   23.4316 C.ar      1 UNK         0.0000 
      8 C8          2.1680   53.1544   24.5205 C.ar      1 UNK         0.0000 
      9 C9          2.5263   53.5847   25.7994 C.ar      1 UNK         0.0000 
     10 N10         3.6837   54.2561   26.0199 N.ar      1 UNK         0.0000 
     11 C11         1.6915   53.2819   27.0087 C.ar      1 UNK         0.0000 
     12 C12         0.7923   52.1849   27.0075 C.ar      1 UNK         0.0000 
     13 C13         0.0388   51.8367   28.1344 C.ar      1 UNK         0.0000 
     14 C14         0.2119   52.6036   29.2743 C.ar      1 UNK         0.0000 
     15 C15         1.0624   53.6700   29.3052 C.ar      1 UNK         0.0000 
     16 C16         1.8081   54.0437   28.1921 C.ar      1 UNK         0.0000 
     17 O17         1.0129   54.2462   30.5337 O.3       1 UNK         0.0000 
     18 C18         0.3045   53.3413   31.3369 C.3       1 UNK         0.0000 
     19 O19        -0.3966   52.4846   30.4809 O.3       1 UNK         0.0000 
     20 C20         2.6504   52.7156   22.0811 C.2       1 UNK         0.0000 
     21 O21         3.1044   53.1727   21.0361 O.2       1 UNK         0.0000 
     22 N22         1.7965   51.6661   22.1450 N.am      1 UNK         0.0000 
     23 C23         1.1940   50.9359   21.1183 C.2       1 UNK         0.0000 
     24 C24         0.2677   49.8839   21.2875 C.2       1 UNK         0.0000 
     25 C25        -0.2450   49.4184   20.0375 C.2       1 UNK         0.0000 
     26 C26         0.2988   50.1038   18.9424 C.2       1 UNK         0.0000 
     27 S27         1.4664   51.2793   19.4356 S.3       1 UNK         0.0000 
     28 C28         0.0113   49.8937   17.4682 C.3       1 UNK         0.0000 
     29 C29         0.9314   48.8397   16.8245 C.3       1 UNK         0.0000 
     30 C30         1.1466   47.5316   17.6231 C.3       1 UNK         0.0000 
     31 C31        -0.1447   46.7692   18.0031 C.3       1 UNK         0.0000 
     32 C32        -0.6197   46.9341   19.4650 C.3       1 UNK         0.0000 
     33 C33        -1.2602   48.2908   19.8320 C.3       1 UNK         0.0000 
     34 C34        -0.2107   49.4156   22.5817 C.2       1 UNK         0.0000 
     35 O35        -1.3930   49.1762   22.8085 O.2       1 UNK         0.0000 
     36 N36         0.7050   49.2957   23.5421 N.am      1 UNK         0.0000 
     37 H37         7.2559   55.0021   22.2563 H         1 UNK         0.0000 
     38 H38         7.6108   55.8738   24.5197 H         1 UNK         0.0000 
     39 H39         5.9312   55.4968   26.2885 H         1 UNK         0.0000 
     40 H40         5.2253   53.8099   21.6839 H         1 UNK         0.0000 
     41 H41         1.2086   52.6794   24.3899 H         1 UNK         0.0000 
     42 H42         0.6832   51.5597   26.1348 H         1 UNK         0.0000 
     43 H43        -0.6350   50.9910   28.1142 H         1 UNK         0.0000 
     44 H44         2.4717   54.8936   28.2452 H         1 UNK         0.0000 
     45 H45        -0.3824   53.8534   32.0141 H         1 UNK         0.0000 
     46 H46         0.9939   52.7511   31.9487 H         1 UNK         0.0000 
     47 H47         1.5373   51.3649   23.0713 H         1 UNK         0.0000 
     48 H48         0.1105   50.8312   16.9211 H         1 UNK         0.0000 
     49 H49        -1.0273   49.5946   17.3180 H         1 UNK         0.0000 
     50 H50         1.9043   49.2971   16.6524 H         1 UNK         0.0000 
     51 H51         0.5487   48.5983   15.8325 H         1 UNK         0.0000 
     52 H52         1.7524   47.7287   18.5091 H         1 UNK         0.0000 
     53 H53         1.7706   46.8797   17.0095 H         1 UNK         0.0000 
     54 H54         0.0432   45.7072   17.8397 H         1 UNK         0.0000 
     55 H55        -0.9543   47.0179   17.3132 H         1 UNK         0.0000 
     56 H56         0.2005   46.7127   20.1478 H         1 UNK         0.0000 
     57 H57        -1.3658   46.1614   19.6513 H         1 UNK         0.0000 
     58 H58        -1.9854   48.5606   19.0639 H         1 UNK         0.0000 
     59 H59        -1.8915   48.1409   20.7023 H         1 UNK         0.0000 
     60 H60         1.6912   49.2647   23.3192 H         1 UNK         0.0000 
     61 H61         0.4015   48.9881   24.4556 H         1 UNK         0.0000 
@<TRIPOS>BOND
     1    1    6 ar   
     2    1    2 ar   
     3    1   37 1    
     4    2    3 ar   
     5    2   38 1    
     6    3    4 ar   
     7    3   39 1    
     8    4   10 ar   
     9    4    5 ar   
    10    5    6 ar   
    11    5    7 ar   
    12    6   40 1    
    13    7    8 ar   
    14    7   20 1    
    15    8    9 ar   
    16    8   41 1    
    17    9   10 ar   
    18    9   11 1    
    19   11   16 ar   
    20   11   12 ar   
    21   12   13 ar   
    22   12   42 1    
    23   13   14 ar   
    24   13   43 1    
    25   14   19 1    
    26   14   15 ar   
    27   15   16 ar   
    28   15   17 1    
    29   16   44 1    
    30   17   18 1    
    31   18   19 1    
    32   18   45 1    
    33   18   46 1    
    34   20   21 2    
    35   20   22 am   BACKBONE|DICT|INTERRES
    36   22   23 am   BACKBONE|DICT|INTERRES
    37   22   47 1    
    38   23   27 1    
    39   23   24 2    
    40   24   25 1    
    41   24   34 1    
    42   25   33 1    
    43   25   26 2    
    44   26   27 1    
    45   26   28 1    
    46   28   29 1    
    47   28   48 1    
    48   28   49 1    
    49   29   30 1    
    50   29   50 1    
    51   29   51 1    
    52   30   31 1    
    53   30   52 1    
    54   30   53 1    
    55   31   32 1    
    56   31   54 1    
    57   31   55 1    
    58   32   33 1    
    59   32   56 1    
    60   32   57 1    
    61   33   58 1    
    62   33   59 1    
    63   34   35 2    
    64   34   36 am   BACKBONE|DICT|INTERRES
    65   36   60 1    
    66   36   61 1    
@<TRIPOS>SUBSTRUCTURE
     1 UNK         1 GROUP             0       ****    0 ROOT    
