ZINC40921717_5612
                    3D
 Schrodinger Suite 2024-2.
 53 56  0  0  1  0            999 V2000
   -3.0861   48.7854   22.3318 C   0  0  0  0  0  0
   -3.8813   50.0886   22.1553 C   0  0  0  0  0  0
   -4.5435   50.5920   23.4565 C   0  0  0  0  0  0
   -3.5982   50.8165   24.4985 O   0  0  0  0  0  0
   -2.7957   51.9101   24.5226 C   0  0  0  0  0  0
   -2.8219   52.7957   23.6617 O   0  0  0  0  0  0
   -1.7980   51.9053   25.6149 C   0  0  0  0  0  0
   -2.0052   51.3129   26.8293 C   0  0  0  0  0  0
   -1.0309   51.2968   27.8127 N   0  0  0  0  0  0
    0.1789   51.9240   27.6131 C   0  0  0  0  0  0
    1.1968   52.0416   28.4256 N   0  0  0  0  0  0
    2.1327   52.7882   27.7144 N   0  0  0  0  0  0
    1.6609   53.0682   26.4434 N   0  0  0  0  0  0
    0.4513   52.4938   26.3872 N   0  0  0  0  0  0
   -0.4244   52.4938   25.2045 C   0  0  1  0  0  0
   -0.5611   53.5261   24.8817 H   0  0  0  0  0  0
    0.2551   51.8386   23.9980 C   0  0  0  0  0  0
    0.5486   52.6224   22.8841 C   0  0  0  0  0  0
    1.1320   52.0593   21.7636 C   0  0  0  0  0  0
    1.5182   50.7122   21.7710 C   0  0  0  0  0  0
    1.2345   49.9294   22.8920 C   0  0  0  0  0  0
    0.5938   50.4820   24.0001 C   0  0  0  0  0  0
    2.2141   50.1068   20.7397 O   0  0  0  0  0  0
    2.6105   50.8631   19.5842 C   0  0  0  0  0  0
    3.5550   52.0307   19.8983 C   0  0  0  0  0  0
    4.3171   52.0463   21.0704 C   0  0  0  0  0  0
    5.1038   53.1512   21.3777 C   0  0  0  0  0  0
    5.1739   54.2182   20.4864 C   0  0  0  0  0  0
    4.4446   54.1973   19.2999 C   0  0  0  0  0  0
    3.6319   53.1043   19.0083 C   0  0  0  0  0  0
    6.3042   55.7000   20.8812 Br  0  0  0  0  0  0
   -3.3005   50.6903   27.3491 C   0  0  0  0  0  0
   -2.6619   48.4565   21.3828 H   0  0  0  0  0  0
   -3.7192   47.9816   22.7101 H   0  0  0  0  0  0
   -2.2589   48.9165   23.0308 H   0  0  0  0  0  0
   -3.2244   50.8601   21.7517 H   0  0  0  0  0  0
   -4.6574   49.9353   21.4047 H   0  0  0  0  0  0
   -5.1201   51.5016   23.2735 H   0  0  0  0  0  0
   -5.2573   49.8461   23.8091 H   0  0  0  0  0  0
   -1.1704   50.6869   28.6086 H   0  0  0  0  0  0
    0.3308   53.6794   22.8822 H   0  0  0  0  0  0
    1.3169   52.7057   20.9196 H   0  0  0  0  0  0
    1.5323   48.8920   22.9097 H   0  0  0  0  0  0
    0.3813   49.8660   24.8632 H   0  0  0  0  0  0
    3.1044   50.1846   18.8877 H   0  0  0  0  0  0
    1.7177   51.2260   19.0720 H   0  0  0  0  0  0
    4.2792   51.2151   21.7552 H   0  0  0  0  0  0
    5.6758   53.1707   22.2930 H   0  0  0  0  0  0
    4.5042   55.0253   18.6100 H   0  0  0  0  0  0
    3.0564   53.0974   18.0946 H   0  0  0  0  0  0
   -4.1878   51.0783   26.8519 H   0  0  0  0  0  0
   -3.2739   49.6076   27.2206 H   0  0  0  0  0  0
   -3.4439   50.8909   28.4123 H   0  0  0  0  0  0
  1  2  1  0  0  0
  1 33  1  0  0  0
  1 34  1  0  0  0
  1 35  1  0  0  0
  2  3  1  0  0  0
  2 36  1  0  0  0
  2 37  1  0  0  0
  3  4  1  0  0  0
  3 38  1  0  0  0
  3 39  1  0  0  0
  4  5  1  0  0  0
  5  6  2  0  0  0
  5  7  1  0  0  0
  7 15  1  0  0  0
  7  8  2  0  0  0
  8  9  1  0  0  0
  8 32  1  0  0  0
  9 10  1  0  0  0
  9 40  1  0  0  0
 10 14  1  0  0  0
 10 11  2  0  0  0
 11 12  1  0  0  0
 12 13  2  0  0  0
 13 14  1  0  0  0
 14 15  1  0  0  0
 15 16  1  0  0  0
 15 17  1  0  0  0
 17 22  2  0  0  0
 17 18  1  0  0  0
 18 19  2  0  0  0
 18 41  1  0  0  0
 19 20  1  0  0  0
 19 42  1  0  0  0
 20 21  2  0  0  0
 20 23  1  0  0  0
 21 22  1  0  0  0
 21 43  1  0  0  0
 22 44  1  0  0  0
 23 24  1  0  0  0
 24 25  1  0  0  0
 24 45  1  0  0  0
 24 46  1  0  0  0
 25 30  2  0  0  0
 25 26  1  0  0  0
 26 27  2  0  0  0
 26 47  1  0  0  0
 27 28  1  0  0  0
 27 48  1  0  0  0
 28 29  2  0  0  0
 28 31  1  0  0  0
 29 30  1  0  0  0
 29 49  1  0  0  0
 30 50  1  0  0  0
 32 51  1  0  0  0
 32 52  1  0  0  0
 32 53  1  0  0  0
M  END
> <i_i_glide_confnum>
149

> <i_i_glide_lignum>
5613

> <i_i_glide_posenum>
115

> <i_i_glide_rotatable_bonds>
8

> <i_m_Source_File_Index>
4211

> <b_m_subgroup_collapsed>
0

> <r_i_docking_score>
-2.89274

> <r_i_glide_ecoul>
-3.72261

> <r_i_glide_eff_state_penalty>
0

> <r_i_glide_einternal>
5.02773

> <r_i_glide_emodel>
-46.3976

> <r_i_glide_energy>
-40.4183

> <r_i_glide_erotb>
0.605953

> <r_i_glide_esite>
-0.0947654

> <r_i_glide_evdw>
-36.6957

> <r_i_glide_gscore>
-2.89274

> <r_i_glide_hbond>
-0.0201238

> <r_i_glide_ligand_efficiency>
-0.0933142

> <r_i_glide_ligand_efficiency_ln>
-0.652401

> <r_i_glide_ligand_efficiency_sa>
-0.293135

> <r_i_glide_lipo>
-0.812102

> <r_i_glide_metal>
0

> <r_i_glide_rewards>
-0.178525

> <s_i_glide_gridfile>
wee1_glide-grid

> <s_m_Source_File>
wee1_decoys_glide_SP.sdf

> <s_m_Source_Path>
/Users/zhangxujun/Desktop

> <s_m_entry_id>
4486

> <s_m_entry_name>
wee1_decoys_glide_SP.4211

> <s_m_subgroup_title>
wee1_decoys_glide_SP

> <s_m_subgroupid>
wee1_decoys_glide_SP


$$$$
