@<TRIPOS>MOLECULE
ZINC39733515_4646
65   69    1
SMALL
USER_CHARGES


@<TRIPOS>ATOM
      1 C1          6.6193   55.1344   23.0459 C.3       1 UNK         0.0000 
      2 C2          6.0278   55.1274   21.6198 C.3       1 UNK         0.0000 
      3 O3          4.7566   54.4854   21.5018 O.3       1 UNK         0.0000 
      4 C4          4.6124   53.1557   21.6887 C.2       1 UNK         0.0000 
      5 O5          5.5028   52.3981   22.0802 O.2       1 UNK         0.0000 
      6 C6          3.2070   52.6316   21.3118 C.3       1 UNK         0.0000 
      7 H7          2.7360   53.4136   20.7123 H         1 UNK         0.0000 
      8 C8          3.2972   51.3277   20.4728 C.3       1 UNK         0.0000 
      9 H9          4.2945   50.8866   20.5327 H         1 UNK         0.0000 
     10 S10         2.3045   50.0524   21.2645 S.3       1 UNK         0.0000 
     11 C11         1.7965   51.1242   22.5836 C.2       1 UNK         0.0000 
     12 C12         2.2764   52.3894   22.5040 C.2       1 UNK         0.0000 
     13 C13         1.9581   53.5411   23.4631 C.3       1 UNK         0.0000 
     14 C14         1.6558   53.1488   24.9203 C.3       1 UNK         0.0000 
     15 C15         0.2804   52.5070   25.1917 C.3       1 UNK         0.0000 
     16 C16        -0.2277   51.4983   24.1495 C.3       1 UNK         0.0000 
     17 C17         0.8226   50.5272   23.5910 C.3       1 UNK         0.0000 
     18 N18         3.0455   51.5697   19.0517 N.am      1 UNK         0.0000 
     19 C19         1.8948   51.9985   18.4937 C.2       1 UNK         0.0000 
     20 O20         0.8698   52.1614   19.1549 O.2       1 UNK         0.0000 
     21 C21         1.9190   52.4033   16.9984 C.3       1 UNK         0.0000 
     22 H22         1.9536   53.4904   17.0585 H         1 UNK         0.0000 
     23 C23         3.1659   51.9632   16.2019 C.3       1 UNK         0.0000 
     24 S24         0.4213   51.9644   16.0342 S.3       1 UNK         0.0000 
     25 C25        -0.7144   53.1361   16.6850 C.ar      1 UNK         0.0000 
     26 N26        -1.6964   52.7748   17.4786 N.2       1 UNK         0.0000 
     27 N27        -2.3912   53.9140   17.8628 N.2       1 UNK         0.0000 
     28 C28        -1.7896   54.9178   17.2818 C.ar      1 UNK         0.0000 
     29 N29        -0.7498   54.5041   16.4629 N.pl3     1 UNK         0.0000 
     30 C30        -0.0148   55.4490   15.6852 C.ar      1 UNK         0.0000 
     31 C31        -0.3661   56.7660   15.8484 C.ar      1 UNK         0.0000 
     32 C32        -1.4412   57.1722   16.7737 C.ar      1 UNK         0.0000 
     33 O33        -1.6901   58.3705   16.8772 O.2       1 UNK         0.0000 
     34 N34        -2.0955   56.2289   17.4299 N.2       1 UNK         0.0000 
     35 C35         0.3370   57.8893   15.0592 C.3       1 UNK         0.0000 
     36 C36         1.0362   57.3643   13.7927 C.3       1 UNK         0.0000 
     37 C37         1.8880   56.1344   14.1131 C.3       1 UNK         0.0000 
     38 C38         1.0405   54.9806   14.6749 C.3       1 UNK         0.0000 
     39 H39         7.5030   55.7704   23.0908 H         1 UNK         0.0000 
     40 H40         5.9059   55.5041   23.7807 H         1 UNK         0.0000 
     41 H41         6.9259   54.1371   23.3614 H         1 UNK         0.0000 
     42 H42         6.7363   54.6754   20.9256 H         1 UNK         0.0000 
     43 H43         5.9009   56.1563   21.2822 H         1 UNK         0.0000 
     44 H44         1.1629   54.1584   23.0469 H         1 UNK         0.0000 
     45 H45         2.8337   54.1872   23.4945 H         1 UNK         0.0000 
     46 H46         2.4442   52.4839   25.2703 H         1 UNK         0.0000 
     47 H47         1.7448   54.0370   25.5484 H         1 UNK         0.0000 
     48 H48         0.3053   52.0293   26.1713 H         1 UNK         0.0000 
     49 H49        -0.4680   53.2906   25.2702 H         1 UNK         0.0000 
     50 H50        -1.0428   50.9246   24.5907 H         1 UNK         0.0000 
     51 H51        -0.6817   52.0406   23.3179 H         1 UNK         0.0000 
     52 H52         1.3633   50.0002   24.3763 H         1 UNK         0.0000 
     53 H53         0.2662   49.7607   23.0524 H         1 UNK         0.0000 
     54 H54         3.7854   51.2501   18.4312 H         1 UNK         0.0000 
     55 H55         4.1065   52.1513   16.7233 H         1 UNK         0.0000 
     56 H56         3.1044   50.8975   15.9709 H         1 UNK         0.0000 
     57 H57         3.2306   52.4852   15.2476 H         1 UNK         0.0000 
     58 H58        -0.3490   58.6902   14.7827 H         1 UNK         0.0000 
     59 H59         1.0738   58.3589   15.7122 H         1 UNK         0.0000 
     60 H60         0.2939   57.1130   13.0359 H         1 UNK         0.0000 
     61 H61         1.6568   58.1502   13.3615 H         1 UNK         0.0000 
     62 H62         2.4223   55.8051   13.2224 H         1 UNK         0.0000 
     63 H63         2.6555   56.4112   14.8358 H         1 UNK         0.0000 
     64 H64         1.7236   54.2553   15.0980 H         1 UNK         0.0000 
     65 H65         0.5324   54.4628   13.8620 H         1 UNK         0.0000 
@<TRIPOS>BOND
     1    1    2 1    
     2    1   39 1    
     3    1   40 1    
     4    1   41 1    
     5    2    3 1    
     6    2   42 1    
     7    2   43 1    
     8    3    4 1    
     9    4    5 2    
    10    4    6 1    
    11    6    7 1    
    12    6   12 1    
    13    6    8 1    
    14    8    9 1    
    15    8   10 1    
    16    8   18 1    
    17   10   11 1    
    18   11   17 1    
    19   11   12 2    
    20   12   13 1    
    21   13   14 1    
    22   13   44 1    
    23   13   45 1    
    24   14   15 1    
    25   14   46 1    
    26   14   47 1    
    27   15   16 1    
    28   15   48 1    
    29   15   49 1    
    30   16   17 1    
    31   16   50 1    
    32   16   51 1    
    33   17   52 1    
    34   17   53 1    
    35   18   19 am   BACKBONE|DICT|INTERRES
    36   18   54 1    
    37   19   20 2    
    38   19   21 1    
    39   21   22 1    
    40   21   23 1    
    41   21   24 1    
    42   23   55 1    
    43   23   56 1    
    44   23   57 1    
    45   24   25 1    
    46   25   29 ar   
    47   25   26 ar   
    48   26   27 ar   
    49   27   28 ar   
    50   28   34 ar   
    51   28   29 ar   
    52   29   30 ar   
    53   30   38 1    
    54   30   31 ar   
    55   31   32 ar   
    56   31   35 1    
    57   32   33 2    
    58   32   34 ar   
    59   35   36 1    
    60   35   58 1    
    61   35   59 1    
    62   36   37 1    
    63   36   60 1    
    64   36   61 1    
    65   37   38 1    
    66   37   62 1    
    67   37   63 1    
    68   38   64 1    
    69   38   65 1    
@<TRIPOS>SUBSTRUCTURE
     1 UNK         1 GROUP             0       ****    0 ROOT    
