ZINC62828015_1663
                    3D
 Schrodinger Suite 2024-2.
 37 38  0  0  1  0            999 V2000
    5.7265   54.1968   22.9099 C   0  0  0  0  0  0
    4.8129   54.1619   24.1290 C   0  0  0  0  0  0
    3.4535   53.8279   24.0478 C   0  0  0  0  0  0
    2.7462   53.6967   25.6219 S   0  0  0  0  0  0
    4.2437   54.1055   26.4155 C   0  0  0  0  0  0
    5.2405   54.3738   25.4703 C   0  0  0  0  0  0
    6.5881   54.8307   25.8361 C   0  0  0  0  0  0
    7.1044   54.3778   26.8817 O   0  0  0  0  0  0
    7.1044   55.6967   25.1039 O   0  5  0  0  0  0
    4.3979   54.2295   27.8068 N   0  0  0  0  0  0
    3.6235   53.8111   28.8294 C   0  0  0  0  0  0
    3.9047   54.0967   29.9915 O   0  0  0  0  0  0
    2.5945   53.0171   28.5107 N   0  0  0  0  0  0
    1.9543   51.9980   29.3330 C   0  0  0  0  0  0
    1.4008   52.5099   30.6855 C   0  0  0  0  0  0
    0.3063   53.5657   30.4729 C   0  0  0  0  0  0
   -0.7327   52.9894   29.6817 O   0  0  0  0  0  0
   -0.3593   52.4966   28.3957 C   0  0  0  0  0  0
    0.7406   51.4383   28.5657 C   0  0  0  0  0  0
    2.5907   53.5648   22.8334 C   0  0  0  0  0  0
    5.3549   53.6000   22.0774 H   0  0  0  0  0  0
    5.9049   55.2129   22.5575 H   0  0  0  0  0  0
    6.7078   53.7794   23.1394 H   0  0  0  0  0  0
    5.2866   54.6285   28.0818 H   0  0  0  0  0  0
    2.4549   52.8916   27.5196 H   0  0  0  0  0  0
    2.6935   51.2131   29.4835 H   0  0  0  0  0  0
    0.9707   51.6967   31.2638 H   0  0  0  0  0  0
    2.1956   52.8969   31.3178 H   0  0  0  0  0  0
   -0.1022   53.8905   31.4302 H   0  0  0  0  0  0
    0.7148   54.4470   29.9756 H   0  0  0  0  0  0
   -1.2345   52.0652   27.9089 H   0  0  0  0  0  0
   -0.0074   53.3161   27.7674 H   0  0  0  0  0  0
    1.0417   51.0459   27.5931 H   0  0  0  0  0  0
    0.3072   50.5975   29.1036 H   0  0  0  0  0  0
    3.0844   53.8254   21.8976 H   0  0  0  0  0  0
    2.3050   52.5140   22.7656 H   0  0  0  0  0  0
    1.6683   54.1468   22.8642 H   0  0  0  0  0  0
  1  2  1  0  0  0
  1 21  1  0  0  0
  1 22  1  0  0  0
  1 23  1  0  0  0
  2  6  1  0  0  0
  2  3  2  0  0  0
  3  4  1  0  0  0
  3 20  1  0  0  0
  4  5  1  0  0  0
  5  6  2  0  0  0
  5 10  1  0  0  0
  6  7  1  0  0  0
  7  8  2  0  0  0
  7  9  1  0  0  0
 10 11  1  0  0  0
 10 24  1  0  0  0
 11 12  2  0  0  0
 11 13  1  0  0  0
 13 14  1  0  0  0
 13 25  1  0  0  0
 14 19  1  0  0  0
 14 15  1  0  0  0
 14 26  1  0  0  0
 15 16  1  0  0  0
 15 27  1  0  0  0
 15 28  1  0  0  0
 16 17  1  0  0  0
 16 29  1  0  0  0
 16 30  1  0  0  0
 17 18  1  0  0  0
 18 19  1  0  0  0
 18 31  1  0  0  0
 18 32  1  0  0  0
 19 33  1  0  0  0
 19 34  1  0  0  0
 20 35  1  0  0  0
 20 36  1  0  0  0
 20 37  1  0  0  0
M  CHG  1   9  -1
M  END
> <i_i_glide_confnum>
4

> <i_i_glide_lignum>
1664

> <i_i_glide_posenum>
95

> <i_i_glide_rotatable_bonds>
5

> <i_m_Source_File_Index>
5434

> <b_m_subgroup_collapsed>
0

> <r_i_docking_score>
-5.61909

> <r_i_glide_ecoul>
-5.61925

> <r_i_glide_eff_state_penalty>
0

> <r_i_glide_einternal>
5.78701

> <r_i_glide_emodel>
-50.2995

> <r_i_glide_energy>
-39.0235

> <r_i_glide_erotb>
0.622076

> <r_i_glide_esite>
0

> <r_i_glide_evdw>
-33.4042

> <r_i_glide_gscore>
-5.61909

> <r_i_glide_hbond>
-0.549993

> <r_i_glide_ligand_efficiency>
-0.280954

> <r_i_glide_ligand_efficiency_ln>
-1.40627

> <r_i_glide_ligand_efficiency_sa>
-0.762628

> <r_i_glide_lipo>
-1.85245

> <r_i_glide_metal>
0

> <r_i_glide_rewards>
-1.32562

> <s_i_glide_gridfile>
wee1_glide-grid

> <s_m_Source_File>
wee1_decoys_glide_SP.sdf

> <s_m_Source_Path>
/Users/zhangxujun/Desktop

> <s_m_entry_id>
5709

> <s_m_entry_name>
wee1_decoys_glide_SP.5434

> <s_m_subgroup_title>
wee1_decoys_glide_SP

> <s_m_subgroupid>
wee1_decoys_glide_SP


$$$$
