@<TRIPOS>MOLECULE
ZINC63773013_1161
49   53    1
SMALL
USER_CHARGES


@<TRIPOS>ATOM
      1 C1          0.5774   52.4972   29.2641 C.ar      1 UNK         0.0000 
      2 C2          1.7400   53.1601   29.6357 C.ar      1 UNK         0.0000 
      3 C3          2.6235   53.6312   28.6671 C.ar      1 UNK         0.0000 
      4 C4          2.3422   53.4460   27.2899 C.ar      1 UNK         0.0000 
      5 C5          1.1369   52.7874   26.8875 C.ar      1 UNK         0.0000 
      6 C6          0.2712   52.3035   27.9195 C.ar      1 UNK         0.0000 
      7 C7          0.9047   52.6446   25.4714 C.ar      1 UNK         0.0000 
      8 C8          1.8970   53.0897   24.5882 C.ar      1 UNK         0.0000 
      9 C9          3.0672   53.6946   25.0583 C.ar      1 UNK         0.0000 
     10 N10         3.2623   53.8900   26.3903 N.ar      1 UNK         0.0000 
     11 C11         4.1979   54.0986   24.1433 C.ar      1 UNK         0.0000 
     12 C12         4.0519   54.0967   22.7416 C.ar      1 UNK         0.0000 
     13 C13         5.0951   54.4907   21.9052 C.ar      1 UNK         0.0000 
     14 C14         6.3080   54.8962   22.4518 C.ar      1 UNK         0.0000 
     15 C15         6.4881   54.8905   23.8297 C.ar      1 UNK         0.0000 
     16 C16         5.4448   54.4984   24.6638 C.ar      1 UNK         0.0000 
     17 Br17        7.7192   55.4771   21.3118 Br        1 UNK         0.0000 
     18 C18        -0.3575   52.0583   24.8794 C.2       1 UNK         0.0000 
     19 O19        -0.2948   51.3008   23.9061 O.2       1 UNK         0.0000 
     20 N20        -1.5094   52.4962   25.4218 N.am      1 UNK         0.0000 
     21 N21        -2.7193   52.1017   24.9837 N.2       1 UNK         0.0000 
     22 C22        -3.6709   52.7077   25.5646 C.2       1 UNK         0.0000 
     23 C23        -5.0343   52.3884   25.2588 C.2       1 UNK         0.0000 
     24 C24        -6.1154   53.0797   25.6763 C.2       1 UNK         0.0000 
     25 C25        -6.2540   54.2931   26.5047 C.2       1 UNK         0.0000 
     26 C26        -7.4670   54.8213   26.7598 C.2       1 UNK         0.0000 
     27 C27        -8.6362   54.1546   26.2038 C.2       1 UNK         0.0000 
     28 C28        -8.5311   53.0356   25.4418 C.2       1 UNK         0.0000 
     29 C29        -7.2757   52.4830   25.1627 C.2       1 UNK         0.0000 
     30 N30        -6.9769   51.4265   24.4439 N.pl3     1 UNK         0.0000 
     31 C31        -5.5213   51.2217   24.4208 C.3       1 UNK         0.0000 
     32 H32        -0.0879   52.1205   30.0303 H         1 UNK         0.0000 
     33 H33         1.9580   53.2932   30.6863 H         1 UNK         0.0000 
     34 H34         3.5383   54.1269   28.9600 H         1 UNK         0.0000 
     35 H35        -0.6238   51.7509   27.6803 H         1 UNK         0.0000 
     36 H36         1.7425   52.9510   23.5283 H         1 UNK         0.0000 
     37 H37         3.1280   53.8123   22.2629 H         1 UNK         0.0000 
     38 H38         4.9576   54.4909   20.8331 H         1 UNK         0.0000 
     39 H39         7.4327   55.2013   24.2494 H         1 UNK         0.0000 
     40 H40         5.6181   54.5204   25.7307 H         1 UNK         0.0000 
     41 H41        -1.5102   53.1649   26.1776 H         1 UNK         0.0000 
     42 H42        -3.5489   53.4887   26.3138 H         1 UNK         0.0000 
     43 H43        -5.3940   54.8025   26.9153 H         1 UNK         0.0000 
     44 H44        -7.5715   55.7283   27.3356 H         1 UNK         0.0000 
     45 H45        -9.6183   54.5624   26.4019 H         1 UNK         0.0000 
     46 H46        -9.4363   52.5864   25.0559 H         1 UNK         0.0000 
     47 H47        -5.3047   50.2456   24.8584 H         1 UNK         0.0000 
     48 H48        -5.1862   51.2497   23.3832 H         1 UNK         0.0000 
     49 H49        -7.6440   50.8312   23.9620 H         1 UNK         0.0000 
@<TRIPOS>BOND
     1    1    6 ar   
     2    1    2 ar   
     3    1   32 1    
     4    2    3 ar   
     5    2   33 1    
     6    3    4 ar   
     7    3   34 1    
     8    4   10 ar   
     9    4    5 ar   
    10    5    6 ar   
    11    5    7 ar   
    12    6   35 1    
    13    7    8 ar   
    14    7   18 1    
    15    8    9 ar   
    16    8   36 1    
    17    9   10 ar   
    18    9   11 1    
    19   11   16 ar   
    20   11   12 ar   
    21   12   13 ar   
    22   12   37 1    
    23   13   14 ar   
    24   13   38 1    
    25   14   15 ar   
    26   14   17 1    
    27   15   16 ar   
    28   15   39 1    
    29   16   40 1    
    30   18   19 2    
    31   18   20 am   BACKBONE|DICT|INTERRES
    32   20   21 1    
    33   20   41 1    
    34   21   22 2    
    35   22   23 1    
    36   22   42 1    
    37   23   31 1    
    38   23   24 2    
    39   24   29 1    
    40   24   25 1    
    41   25   26 2    
    42   25   43 1    
    43   26   27 1    
    44   26   44 1    
    45   27   28 2    
    46   27   45 1    
    47   28   29 1    
    48   28   46 1    
    49   29   30 2    
    50   30   31 1    
    51   30   49 1    
    52   31   47 1    
    53   31   48 1    
@<TRIPOS>SUBSTRUCTURE
     1 UNK         1 GROUP             0       ****    0 ROOT    
