@<TRIPOS>MOLECULE
ZINC24358570_4333
61   66    1
SMALL
USER_CHARGES


@<TRIPOS>ATOM
      1 C1          0.7084   54.7214   30.2621 C.ar      1 UNK         0.0000 
      2 C2          0.5838   53.3334   30.2591 C.ar      1 UNK         0.0000 
      3 C3          1.6376   52.5475   29.7998 C.ar      1 UNK         0.0000 
      4 N4          2.7927   53.1590   29.3889 N.pl3     1 UNK         0.0000 
      5 C5          3.9888   52.6587   28.9586 C.ar      1 UNK         0.0000 
      6 C6          4.8072   53.7534   28.6856 C.ar      1 UNK         0.0000 
      7 N7          4.1913   54.8963   28.9456 N.2       1 UNK         0.0000 
      8 C8          2.9472   54.5560   29.3694 C.ar      1 UNK         0.0000 
      9 C9          1.8691   55.3523   29.8006 C.ar      1 UNK         0.0000 
     10 C10         6.2424   53.7120   28.1887 C.3       1 UNK         0.0000 
     11 S11         6.6996   54.8963   26.8789 S.3       1 UNK         0.0000 
     12 C12         5.7703   54.5358   25.4250 C.ar      1 UNK         0.0000 
     13 C13         4.3848   54.3985   25.4659 C.ar      1 UNK         0.0000 
     14 C14         3.6830   54.0943   24.3027 C.ar      1 UNK         0.0000 
     15 C15         4.3671   53.9090   23.0905 C.ar      1 UNK         0.0000 
     16 C16         5.7524   54.0990   23.0548 C.ar      1 UNK         0.0000 
     17 C17         6.4488   54.4150   24.2168 C.ar      1 UNK         0.0000 
     18 C18         3.6441   53.5123   21.8264 C.2       1 UNK         0.0000 
     19 O19         4.1508   53.7482   20.7238 O.2       1 UNK         0.0000 
     20 N20         2.4516   52.8958   22.0032 N.am      1 UNK         0.0000 
     21 N21         1.7032   52.4960   20.8934 N.am      1 UNK         0.0000 
     22 C22         1.9995   51.3702   20.2025 C.2       1 UNK         0.0000 
     23 O23         2.8501   50.5591   20.5840 O.2       1 UNK         0.0000 
     24 C24         1.2163   51.1133   18.8771 C.3       1 UNK         0.0000 
     25 C25        -0.0800   51.9927   18.7680 C.3       1 UNK         0.0000 
     26 C26        -0.8089   51.7099   17.4281 C.3       1 UNK         0.0000 
     27 C27        -1.1995   50.2108   17.3618 C.3       1 UNK         0.0000 
     28 C28         0.0799   49.3334   17.4404 C.3       1 UNK         0.0000 
     29 C29         0.8157   49.6062   18.7799 C.3       1 UNK         0.0000 
     30 C30         1.0199   49.6906   16.2584 C.3       1 UNK         0.0000 
     31 C31         1.4227   51.1864   16.3357 C.3       1 UNK         0.0000 
     32 C32         0.1412   52.0592   16.2503 C.3       1 UNK         0.0000 
     33 C33         2.1518   51.4691   17.6783 C.3       1 UNK         0.0000 
     34 H34        -0.0974   55.3223   30.6495 H         1 UNK         0.0000 
     35 H35        -0.3202   52.8660   30.6250 H         1 UNK         0.0000 
     36 H36         1.6037   51.4689   29.7617 H         1 UNK         0.0000 
     37 H37         4.1796   51.6018   28.8822 H         1 UNK         0.0000 
     38 H38         1.9578   56.4307   29.8159 H         1 UNK         0.0000 
     39 H39         6.4674   52.7209   27.8008 H         1 UNK         0.0000 
     40 H40         6.9285   53.8606   29.0220 H         1 UNK         0.0000 
     41 H41         3.8385   54.5246   26.3848 H         1 UNK         0.0000 
     42 H42         2.6101   53.9898   24.3680 H         1 UNK         0.0000 
     43 H43         6.3038   53.9955   22.1296 H         1 UNK         0.0000 
     44 H44         7.5141   54.5537   24.1747 H         1 UNK         0.0000 
     45 H45         2.2075   52.3825   22.8370 H         1 UNK         0.0000 
     46 H46         1.0861   53.2232   20.5558 H         1 UNK         0.0000 
     47 H47         0.1623   53.0560   18.8143 H         1 UNK         0.0000 
     48 H48        -0.7551   51.7920   19.6016 H         1 UNK         0.0000 
     49 H49        -1.7095   52.3248   17.3639 H         1 UNK         0.0000 
     50 H50        -1.7410   50.0024   16.4383 H         1 UNK         0.0000 
     51 H51        -1.8799   49.9590   18.1765 H         1 UNK         0.0000 
     52 H52        -0.1972   48.2798   17.3824 H         1 UNK         0.0000 
     53 H53         0.1791   49.3165   19.6190 H         1 UNK         0.0000 
     54 H54         1.6988   48.9643   18.8353 H         1 UNK         0.0000 
     55 H55         0.5254   49.4810   15.3080 H         1 UNK         0.0000 
     56 H56         1.9046   49.0545   16.2825 H         1 UNK         0.0000 
     57 H57         2.0878   51.4271   15.5064 H         1 UNK         0.0000 
     58 H58         0.4043   53.1171   16.2754 H         1 UNK         0.0000 
     59 H59        -0.3635   51.8948   15.2974 H         1 UNK         0.0000 
     60 H60         3.0820   50.8960   17.7173 H         1 UNK         0.0000 
     61 H61         2.4557   52.5173   17.7209 H         1 UNK         0.0000 
@<TRIPOS>BOND
     1    1    9 ar   
     2    1    2 ar   
     3    1   34 1    
     4    2    3 ar   
     5    2   35 1    
     6    3    4 ar   
     7    3   36 1    
     8    4    8 ar   
     9    4    5 ar   
    10    5    6 ar   
    11    5   37 1    
    12    6    7 ar   
    13    6   10 1    
    14    7    8 ar   
    15    8    9 ar   
    16    9   38 1    
    17   10   11 1    
    18   10   39 1    
    19   10   40 1    
    20   11   12 1    
    21   12   17 ar   
    22   12   13 ar   
    23   13   14 ar   
    24   13   41 1    
    25   14   15 ar   
    26   14   42 1    
    27   15   16 ar   
    28   15   18 1    
    29   16   17 ar   
    30   16   43 1    
    31   17   44 1    
    32   18   19 2    
    33   18   20 am   BACKBONE|DICT|INTERRES
    34   20   21 1    
    35   20   45 1    
    36   21   22 am   BACKBONE|DICT|INTERRES
    37   21   46 1    
    38   22   23 2    
    39   22   24 1    
    40   24   29 1    
    41   24   33 1    
    42   24   25 1    
    43   25   26 1    
    44   25   47 1    
    45   25   48 1    
    46   26   32 1    
    47   26   27 1    
    48   26   49 1    
    49   27   28 1    
    50   27   50 1    
    51   27   51 1    
    52   28   29 1    
    53   28   30 1    
    54   28   52 1    
    55   29   53 1    
    56   29   54 1    
    57   30   31 1    
    58   30   55 1    
    59   30   56 1    
    60   31   32 1    
    61   31   33 1    
    62   31   57 1    
    63   32   58 1    
    64   32   59 1    
    65   33   60 1    
    66   33   61 1    
@<TRIPOS>SUBSTRUCTURE
     1 UNK         1 GROUP             0       ****    0 ROOT    
