@<TRIPOS>MOLECULE
ZINC10042106_414
53   54    1
SMALL
USER_CHARGES


@<TRIPOS>ATOM
      1 C1         -0.4316   52.7505   28.0670 C.3       1 UNK         0.0000 
      2 C2         -0.5922   51.6710   27.0151 C.ar      1 UNK         0.0000 
      3 C3         -1.7385   51.6288   26.2224 C.ar      1 UNK         0.0000 
      4 C4         -1.8566   50.6647   25.2237 C.ar      1 UNK         0.0000 
      5 C5         -0.8147   49.7554   24.9921 C.ar      1 UNK         0.0000 
      6 C6          0.3044   49.7707   25.8284 C.ar      1 UNK         0.0000 
      7 C7          0.4205   50.7330   26.8277 C.ar      1 UNK         0.0000 
      8 C8         -0.8740   48.7533   23.8647 C.2       1 UNK         0.0000 
      9 O9         -0.6521   47.5648   24.0820 O.2       1 UNK         0.0000 
     10 N10        -1.1466   49.1648   22.6094 N.am      1 UNK         0.0000 
     11 C11        -1.2748   50.5282   22.0638 C.3       1 UNK         0.0000 
     12 H12        -2.1223   50.9852   22.5741 H         1 UNK         0.0000 
     13 C13        -1.6568   50.5304   20.5448 C.3       1 UNK         0.0000 
     14 C14        -0.6621   49.8226   19.5955 C.3       1 UNK         0.0000 
     15 C15        -3.0698   49.9517   20.3272 C.3       1 UNK         0.0000 
     16 C16        -0.0509   51.4502   22.3204 C.2       1 UNK         0.0000 
     17 O17        -0.2584   52.4967   22.9326 O.2       1 UNK         0.0000 
     18 N18         1.1562   51.0422   21.8459 N.am      1 UNK         0.0000 
     19 N19         2.3339   51.7511   21.7223 N.2       1 UNK         0.0000 
     20 C20         2.7145   52.5857   22.6176 C.2       1 UNK         0.0000 
     21 C21         3.9254   53.4081   22.4705 C.ar      1 UNK         0.0000 
     22 C22         4.6570   53.7935   23.6026 C.ar      1 UNK         0.0000 
     23 C23         5.8720   54.4970   23.4935 C.ar      1 UNK         0.0000 
     24 C24         6.3130   54.8834   22.2194 C.ar      1 UNK         0.0000 
     25 C25         5.5683   54.5434   21.0842 C.ar      1 UNK         0.0000 
     26 C26         4.3962   53.8009   21.2118 C.ar      1 UNK         0.0000 
     27 Br27        6.1504   55.0524   19.3413 Br        1 UNK         0.0000 
     28 O28         7.5045   55.5569   22.0821 O.3       1 UNK         0.0000 
     29 O29         6.6682   54.8409   24.5755 O.3       1 UNK         0.0000 
     30 C30         6.2879   54.4266   25.8846 C.3       1 UNK         0.0000 
     31 H31        -0.8830   53.6800   27.7207 H         1 UNK         0.0000 
     32 H32        -0.8998   52.4504   29.0040 H         1 UNK         0.0000 
     33 H33         0.6206   52.9662   28.2537 H         1 UNK         0.0000 
     34 H34        -2.5347   52.3417   26.3760 H         1 UNK         0.0000 
     35 H35        -2.7591   50.6397   24.6331 H         1 UNK         0.0000 
     36 H36         1.1008   49.0496   25.6951 H         1 UNK         0.0000 
     37 H37         1.3008   50.7486   27.4531 H         1 UNK         0.0000 
     38 H38        -1.1922   48.4336   21.9175 H         1 UNK         0.0000 
     39 H39        -1.7178   51.5692   20.2122 H         1 UNK         0.0000 
     40 H40        -0.4371   48.8084   19.9244 H         1 UNK         0.0000 
     41 H41        -1.0706   49.7517   18.5873 H         1 UNK         0.0000 
     42 H42         0.2778   50.3645   19.4997 H         1 UNK         0.0000 
     43 H43        -3.1232   48.9018   20.6182 H         1 UNK         0.0000 
     44 H44        -3.8131   50.4963   20.9111 H         1 UNK         0.0000 
     45 H45        -3.3705   50.0193   19.2804 H         1 UNK         0.0000 
     46 H46         1.1278   50.2380   21.2373 H         1 UNK         0.0000 
     47 H47         2.1872   52.7134   23.5598 H         1 UNK         0.0000 
     48 H48         4.2955   53.4933   24.5754 H         1 UNK         0.0000 
     49 H49         3.8497   53.5315   20.3176 H         1 UNK         0.0000 
     50 H50         8.0773   55.4544   22.8547 H         1 UNK         0.0000 
     51 H51         7.0390   54.7586   26.6013 H         1 UNK         0.0000 
     52 H52         5.3344   54.8659   26.1813 H         1 UNK         0.0000 
     53 H53         6.2209   53.3403   25.9610 H         1 UNK         0.0000 
@<TRIPOS>BOND
     1    1    2 1    
     2    1   31 1    
     3    1   32 1    
     4    1   33 1    
     5    2    7 ar   
     6    2    3 ar   
     7    3    4 ar   
     8    3   34 1    
     9    4    5 ar   
    10    4   35 1    
    11    5    6 ar   
    12    5    8 1    
    13    6    7 ar   
    14    6   36 1    
    15    7   37 1    
    16    8    9 2    
    17    8   10 am   BACKBONE|DICT|INTERRES
    18   10   11 1    
    19   10   38 1    
    20   11   12 1    
    21   11   13 1    
    22   11   16 1    
    23   13   14 1    
    24   13   15 1    
    25   13   39 1    
    26   14   40 1    
    27   14   41 1    
    28   14   42 1    
    29   15   43 1    
    30   15   44 1    
    31   15   45 1    
    32   16   17 2    
    33   16   18 am   BACKBONE|DICT|INTERRES
    34   18   19 1    
    35   18   46 1    
    36   19   20 2    
    37   20   21 1    
    38   20   47 1    
    39   21   26 ar   
    40   21   22 ar   
    41   22   23 ar   
    42   22   48 1    
    43   23   24 ar   
    44   23   29 1    
    45   24   25 ar   
    46   24   28 1    
    47   25   26 ar   
    48   25   27 1    
    49   26   49 1    
    50   28   50 1    
    51   29   30 1    
    52   30   51 1    
    53   30   52 1    
    54   30   53 1    
@<TRIPOS>SUBSTRUCTURE
     1 UNK         1 GROUP             0       ****    0 ROOT    
