@<TRIPOS>MOLECULE
ZINC13361301_2595
46   48    1
SMALL
USER_CHARGES


@<TRIPOS>ATOM
      1 C1         -7.5151   48.6765   28.5887 C.3       1 UNK         0.0000 
      2 C2         -6.2535   49.3957   28.1167 C.ar      1 UNK         0.0000 
      3 C3         -5.5593   48.8073   27.0511 C.ar      1 UNK         0.0000 
      4 C4         -4.4074   49.3904   26.5318 C.ar      1 UNK         0.0000 
      5 C5         -3.9353   50.5847   27.0683 C.ar      1 UNK         0.0000 
      6 C6         -4.6170   51.1796   28.1296 C.ar      1 UNK         0.0000 
      7 C7         -5.7777   50.6094   28.6837 C.ar      1 UNK         0.0000 
      8 C8         -6.4411   51.3150   29.8417 C.2       1 UNK         0.0000 
      9 O9         -6.0966   52.4967   30.0826 O.co2     1 UNK         0.0000 
     10 S10        -2.4239   51.3236   26.4609 S.o2      1 UNK         0.0000 
     11 O11        -2.6024   52.7788   26.4794 O.2       1 UNK         0.0000 
     12 O12        -2.0518   50.6410   25.2158 O.2       1 UNK         0.0000 
     13 N13        -1.2349   50.8974   27.6797 N.pl3     1 UNK         0.0000 
     14 N14        -0.0010   51.4923   27.4989 N.am      1 UNK         0.0000 
     15 C15         0.4965   52.3736   28.3884 C.2       1 UNK         0.0000 
     16 O16        -0.0605   52.7250   29.4313 O.2       1 UNK         0.0000 
     17 C17         1.8030   52.8565   28.0445 C.2       1 UNK         0.0000 
     18 C18         2.2699   53.2938   26.8061 C.2       1 UNK         0.0000 
     19 C19         3.5958   53.7480   26.8384 C.2       1 UNK         0.0000 
     20 C20         4.1569   53.6385   28.1185 C.2       1 UNK         0.0000 
     21 S21         2.9968   53.0820   29.2857 S.3       1 UNK         0.0000 
     22 C22         5.6203   53.8983   28.4549 C.3       1 UNK         0.0000 
     23 C23         6.2813   54.6425   27.2793 C.3       1 UNK         0.0000 
     24 C24         5.9071   54.0463   25.9093 C.3       1 UNK         0.0000 
     25 H25         6.1315   52.9816   25.9147 H         1 UNK         0.0000 
     26 C26         4.3940   54.2235   25.6304 C.3       1 UNK         0.0000 
     27 C27         6.7218   54.6839   24.7692 C.3       1 UNK         0.0000 
     28 H28        -8.3645   49.3626   28.5832 H         1 UNK         0.0000 
     29 H29        -7.7827   47.8295   27.9531 H         1 UNK         0.0000 
     30 H30        -7.3845   48.3115   29.6083 H         1 UNK         0.0000 
     31 H31        -5.9095   47.8817   26.6180 H         1 UNK         0.0000 
     32 H32        -3.8830   48.9023   25.7221 H         1 UNK         0.0000 
     33 H33        -4.2131   52.0966   28.5358 H         1 UNK         0.0000 
     34 H34        -1.1341   49.8763   27.7901 H         1 UNK         0.0000 
     35 H35         0.5193   51.1726   26.6943 H         1 UNK         0.0000 
     36 H36         1.6730   53.2854   25.9057 H         1 UNK         0.0000 
     37 H37         6.1350   52.9512   28.6143 H         1 UNK         0.0000 
     38 H38         5.7233   54.4967   29.3594 H         1 UNK         0.0000 
     39 H39         7.3644   54.6168   27.4140 H         1 UNK         0.0000 
     40 H40         6.0342   55.6967   27.3028 H         1 UNK         0.0000 
     41 H41         4.1557   55.2695   25.4334 H         1 UNK         0.0000 
     42 H42         4.1116   53.6697   24.7345 H         1 UNK         0.0000 
     43 H43         6.5784   55.7642   24.7302 H         1 UNK         0.0000 
     44 H44         6.4275   54.2785   23.8000 H         1 UNK         0.0000 
     45 H45         7.7870   54.4967   24.8822 H         1 UNK         0.0000 
     46 O46        -7.2939   50.7101   30.5261 O.co2     1 UNK         0.0000 
@<TRIPOS>BOND
     1    1    2 1    
     2    1   28 1    
     3    1   29 1    
     4    1   30 1    
     5    2    7 ar   
     6    2    3 ar   
     7    3    4 ar   
     8    3   31 1    
     9    4    5 ar   
    10    4   32 1    
    11    5    6 ar   
    12    5   10 1    
    13    6    7 ar   
    14    6   33 1    
    15    7    8 1    
    16    8    9 2    
    17    8   46 1    
    18   10   11 2    
    19   10   12 2    
    20   10   13 1    
    21   13   14 1    
    22   13   34 1    
    23   14   15 am   BACKBONE|DICT|INTERRES
    24   14   35 1    
    25   15   16 2    
    26   15   17 1    
    27   17   21 1    
    28   17   18 2    
    29   18   19 1    
    30   18   36 1    
    31   19   26 1    
    32   19   20 2    
    33   20   21 1    
    34   20   22 1    
    35   22   23 1    
    36   22   37 1    
    37   22   38 1    
    38   23   24 1    
    39   23   39 1    
    40   23   40 1    
    41   24   25 1    
    42   24   26 1    
    43   24   27 1    
    44   26   41 1    
    45   26   42 1    
    46   27   43 1    
    47   27   44 1    
    48   27   45 1    
@<TRIPOS>SUBSTRUCTURE
     1 UNK         1 GROUP             0       ****    0 ROOT    
