@<TRIPOS>MOLECULE
ZINC33113309_2315
56   59    1
SMALL
USER_CHARGES


@<TRIPOS>ATOM
      1 C1          8.1991   56.6499   16.7481 C.3       1 UNK         0.0000 
      2 C2          7.8108   56.2390   18.1578 C.ar      1 UNK         0.0000 
      3 C3          6.4674   56.0641   18.4814 C.ar      1 UNK         0.0000 
      4 C4          6.1081   55.6940   19.7727 C.ar      1 UNK         0.0000 
      5 C5          7.0918   55.5049   20.7545 C.ar      1 UNK         0.0000 
      6 C6          8.4325   55.6968   20.4264 C.ar      1 UNK         0.0000 
      7 C7          8.7938   56.0583   19.1298 C.ar      1 UNK         0.0000 
      8 N8          6.8037   55.1606   22.0895 N.am      1 UNK         0.0000 
      9 C9          5.7158   54.4963   22.5407 C.2       1 UNK         0.0000 
     10 O10         4.8744   53.9591   21.8191 O.2       1 UNK         0.0000 
     11 C11         5.5713   54.4994   23.9752 C.2       1 UNK         0.0000 
     12 N12         6.4396   54.7951   24.9162 N.2       1 UNK         0.0000 
     13 N13         5.9087   54.7336   26.1978 N.2       1 UNK         0.0000 
     14 C14         4.6408   54.3848   26.2262 C.2       1 UNK         0.0000 
     15 S15         4.0052   54.0979   24.6343 S.3       1 UNK         0.0000 
     16 C16         3.8178   54.1973   27.4966 C.3       1 UNK         0.0000 
     17 H17         3.0293   54.9524   27.5064 H         1 UNK         0.0000 
     18 C18         4.6324   54.3278   28.8000 C.3       1 UNK         0.0000 
     19 C19         3.7002   54.1440   30.0096 C.3       1 UNK         0.0000 
     20 C20         2.9328   52.8040   29.9839 C.3       1 UNK         0.0000 
     21 N21         2.2522   52.6800   28.6792 N.am      1 UNK         0.0000 
     22 C22         3.1492   52.8080   27.5054 C.3       1 UNK         0.0000 
     23 C23         0.8954   52.5682   28.6110 C.2       1 UNK         0.0000 
     24 O24         0.1695   52.8006   29.5790 O.2       1 UNK         0.0000 
     25 N25         0.4201   52.1570   27.4121 N.am      1 UNK         0.0000 
     26 C26        -0.8929   51.7850   27.0541 C.ar      1 UNK         0.0000 
     27 C27        -1.8284   51.2985   27.9862 C.ar      1 UNK         0.0000 
     28 C28        -3.1306   50.9955   27.5956 C.ar      1 UNK         0.0000 
     29 C29        -3.5009   51.1232   26.2604 C.ar      1 UNK         0.0000 
     30 C30        -2.5716   51.5501   25.3146 C.ar      1 UNK         0.0000 
     31 C31        -1.2665   51.8814   25.6990 C.ar      1 UNK         0.0000 
     32 C32        -0.2858   52.3373   24.6237 C.3       1 UNK         0.0000 
     33 Cl33       -4.2854   50.4804   28.7677 Cl        1 UNK         0.0000 
     34 H34         9.1302   57.2175   16.7424 H         1 UNK         0.0000 
     35 H35         7.4377   57.2956   16.3098 H         1 UNK         0.0000 
     36 H36         8.3169   55.7709   16.1134 H         1 UNK         0.0000 
     37 H37         5.6997   56.2109   17.7357 H         1 UNK         0.0000 
     38 H38         5.0629   55.5692   19.9958 H         1 UNK         0.0000 
     39 H39         9.2045   55.5672   21.1701 H         1 UNK         0.0000 
     40 H40         9.8385   56.1925   18.8826 H         1 UNK         0.0000 
     41 H41         7.4922   55.4341   22.7762 H         1 UNK         0.0000 
     42 H42         5.4079   53.5611   28.8459 H         1 UNK         0.0000 
     43 H43         5.1213   55.2965   28.8708 H         1 UNK         0.0000 
     44 H44         4.3047   54.1757   30.9103 H         1 UNK         0.0000 
     45 H45         2.9967   54.9769   30.0768 H         1 UNK         0.0000 
     46 H46         3.6488   51.9846   30.0465 H         1 UNK         0.0000 
     47 H47         2.2542   52.7047   30.8333 H         1 UNK         0.0000 
     48 H48         2.7007   52.5010   26.5577 H         1 UNK         0.0000 
     49 H49         3.9480   52.0968   27.6821 H         1 UNK         0.0000 
     50 H50         1.0879   52.0993   26.6615 H         1 UNK         0.0000 
     51 H51        -1.5631   51.1608   29.0234 H         1 UNK         0.0000 
     52 H52        -4.5074   50.8803   25.9558 H         1 UNK         0.0000 
     53 H53        -2.8723   51.6260   24.2811 H         1 UNK         0.0000 
     54 H54        -0.7605   52.4542   23.6491 H         1 UNK         0.0000 
     55 H55         0.1634   53.2956   24.8860 H         1 UNK         0.0000 
     56 H56         0.5248   51.6147   24.5227 H         1 UNK         0.0000 
@<TRIPOS>BOND
     1    1    2 1    
     2    1   34 1    
     3    1   35 1    
     4    1   36 1    
     5    2    7 ar   
     6    2    3 ar   
     7    3    4 ar   
     8    3   37 1    
     9    4    5 ar   
    10    4   38 1    
    11    5    6 ar   
    12    5    8 1    
    13    6    7 ar   
    14    6   39 1    
    15    7   40 1    
    16    8    9 am   BACKBONE|DICT|INTERRES
    17    8   41 1    
    18    9   10 2    
    19    9   11 1    
    20   11   15 1    
    21   11   12 2    
    22   12   13 1    
    23   13   14 2    
    24   14   15 1    
    25   14   16 1    
    26   16   17 1    
    27   16   22 1    
    28   16   18 1    
    29   18   19 1    
    30   18   42 1    
    31   18   43 1    
    32   19   20 1    
    33   19   44 1    
    34   19   45 1    
    35   20   21 1    
    36   20   46 1    
    37   20   47 1    
    38   21   22 1    
    39   21   23 am   BACKBONE|DICT|INTERRES
    40   22   48 1    
    41   22   49 1    
    42   23   24 2    
    43   23   25 am   BACKBONE|DICT|INTERRES
    44   25   26 1    
    45   25   50 1    
    46   26   31 ar   
    47   26   27 ar   
    48   27   28 ar   
    49   27   51 1    
    50   28   29 ar   
    51   28   33 1    
    52   29   30 ar   
    53   29   52 1    
    54   30   31 ar   
    55   30   53 1    
    56   31   32 1    
    57   32   54 1    
    58   32   55 1    
    59   32   56 1    
@<TRIPOS>SUBSTRUCTURE
     1 UNK         1 GROUP             0       ****    0 ROOT    
