ZINC01427803_6109
                    3D
 Schrodinger Suite 2024-2.
 59 64  0  0  1  0            999 V2000
    2.4675   51.0629   19.9404 C   0  0  0  0  0  0
    3.3586   52.2298   20.3690 C   0  0  0  0  0  0
    3.2436   53.0292   21.4682 C   0  0  0  0  0  0
    4.2297   54.2272   21.7074 C   0  0  2  0  0  0
    3.6389   55.1422   21.7499 H   0  0  0  0  0  0
    5.1640   54.4591   20.4484 C   0  0  0  0  0  0
    5.1324   53.5878   19.4006 C   0  0  0  0  0  0
    4.3070   52.4968   19.4190 N   0  0  0  0  0  0
    6.0367   53.6582   18.1665 C   0  0  0  0  0  0
    7.3113   54.4705   18.4589 C   0  0  2  0  0  0
    7.8814   53.9521   19.2283 H   0  0  0  0  0  0
    6.9104   55.8154   19.0776 C   0  0  0  0  0  0
    6.1085   55.6233   20.3737 C   0  0  0  0  0  0
    6.3042   56.4204   21.2819 O   0  0  0  0  0  0
    8.2193   54.5979   17.2522 C   0  0  0  0  0  0
    9.4377   53.9612   17.0100 C   0  0  0  0  0  0
   10.0289   54.2874   15.7860 C   0  0  0  0  0  0
    9.2700   55.1850   15.0571 C   0  0  0  0  0  0
    7.8184   55.6194   15.8927 S   0  0  0  0  0  0
    4.8995   54.2391   23.1121 C   0  0  0  0  0  0
    6.2819   54.0253   23.2365 C   0  0  0  0  0  0
    6.9333   54.0968   24.4618 C   0  0  0  0  0  0
    6.1795   54.3411   25.5937 C   0  0  0  0  0  0
    4.8334   54.5254   25.5154 C   0  0  0  0  0  0
    4.1641   54.4967   24.2942 C   0  0  0  0  0  0
    4.3509   54.7832   26.7602 O   0  0  0  0  0  0
    5.4123   54.4963   27.6361 C   0  0  0  0  0  0
    6.5918   54.4744   26.8799 O   0  0  0  0  0  0
    2.1655   52.8588   22.4369 C   0  0  0  0  0  0
    1.5042   53.8183   22.8312 O   0  0  0  0  0  0
    1.9963   51.5938   22.8802 N   0  0  0  0  0  0
    1.1046   51.0908   23.8438 C   0  0  0  0  0  0
    0.9700   49.7005   23.8805 C   0  0  0  0  0  0
    0.1475   49.1009   24.8293 C   0  0  0  0  0  0
   -0.5474   49.8933   25.7379 C   0  0  0  0  0  0
   -0.4215   51.2797   25.7139 C   0  0  0  0  0  0
    0.4060   51.8822   24.7703 C   0  0  0  0  0  0
    1.5002   51.0422   20.4396 H   0  0  0  0  0  0
    2.2484   51.1160   18.8724 H   0  0  0  0  0  0
    2.9730   50.1148   20.1257 H   0  0  0  0  0  0
    4.5554   51.7352   18.7884 H   0  0  0  0  0  0
    6.3838   52.6516   17.9210 H   0  0  0  0  0  0
    5.4685   54.0191   17.3080 H   0  0  0  0  0  0
    7.7773   56.4456   19.2802 H   0  0  0  0  0  0
    6.2841   56.3712   18.3792 H   0  0  0  0  0  0
    9.8878   53.2705   17.7094 H   0  0  0  0  0  0
   10.9710   53.8803   15.4483 H   0  0  0  0  0  0
    9.4870   55.6026   14.0842 H   0  0  0  0  0  0
    6.8869   53.8345   22.3777 H   0  0  0  0  0  0
    7.9891   53.9504   24.4816 H   0  0  0  0  0  0
    3.1132   54.7263   24.2745 H   0  0  0  0  0  0
    5.2549   53.5131   28.0839 H   0  0  0  0  0  0
    5.4832   55.2380   28.4320 H   0  0  0  0  0  0
    2.5668   50.8985   22.4266 H   0  0  0  0  0  0
    1.5146   49.0722   23.1908 H   0  0  0  0  0  0
    0.0599   48.0250   24.8733 H   0  0  0  0  0  0
   -1.1771   49.4240   26.4815 H   0  0  0  0  0  0
   -0.9535   51.8829   26.4348 H   0  0  0  0  0  0
    0.5019   52.9559   24.7974 H   0  0  0  0  0  0
  1  2  1  0  0  0
  1 38  1  0  0  0
  1 39  1  0  0  0
  1 40  1  0  0  0
  2  8  1  0  0  0
  2  3  2  0  0  0
  3  4  1  0  0  0
  3 29  1  0  0  0
  4  5  1  0  0  0
  4  6  1  0  0  0
  4 20  1  0  0  0
  6 13  1  0  0  0
  6  7  2  0  0  0
  7  8  1  0  0  0
  7  9  1  0  0  0
  8 41  1  0  0  0
  9 10  1  0  0  0
  9 42  1  0  0  0
  9 43  1  0  0  0
 10 11  1  0  0  0
 10 12  1  0  0  0
 10 15  1  0  0  0
 12 13  1  0  0  0
 12 44  1  0  0  0
 12 45  1  0  0  0
 13 14  2  0  0  0
 15 19  1  0  0  0
 15 16  2  0  0  0
 16 17  1  0  0  0
 16 46  1  0  0  0
 17 18  2  0  0  0
 17 47  1  0  0  0
 18 19  1  0  0  0
 18 48  1  0  0  0
 20 25  2  0  0  0
 20 21  1  0  0  0
 21 22  2  0  0  0
 21 49  1  0  0  0
 22 23  1  0  0  0
 22 50  1  0  0  0
 23 28  1  0  0  0
 23 24  2  0  0  0
 24 25  1  0  0  0
 24 26  1  0  0  0
 25 51  1  0  0  0
 26 27  1  0  0  0
 27 28  1  0  0  0
 27 52  1  0  0  0
 27 53  1  0  0  0
 29 30  2  0  0  0
 29 31  1  0  0  0
 31 32  1  0  0  0
 31 54  1  0  0  0
 32 37  2  0  0  0
 32 33  1  0  0  0
 33 34  2  0  0  0
 33 55  1  0  0  0
 34 35  1  0  0  0
 34 56  1  0  0  0
 35 36  2  0  0  0
 35 57  1  0  0  0
 36 37  1  0  0  0
 36 58  1  0  0  0
 37 59  1  0  0  0
M  END
> <i_i_glide_confnum>
44

> <i_i_glide_lignum>
6110

> <i_i_glide_posenum>
178

> <i_i_glide_rotatable_bonds>
5

> <i_m_Source_File_Index>
6002

> <b_m_subgroup_collapsed>
0

> <r_i_docking_score>
-6.01851

> <r_i_glide_ecoul>
-7.84241

> <r_i_glide_eff_state_penalty>
0

> <r_i_glide_einternal>
13.9992

> <r_i_glide_emodel>
-62.1554

> <r_i_glide_energy>
-50.1678

> <r_i_glide_erotb>
0.432462

> <r_i_glide_esite>
-0.0760351

> <r_i_glide_evdw>
-42.3254

> <r_i_glide_gscore>
-6.01851

> <r_i_glide_hbond>
-0.16

> <r_i_glide_ligand_efficiency>
-0.171958

> <r_i_glide_ligand_efficiency_ln>
-1.3212

> <r_i_glide_ligand_efficiency_sa>
-0.562485

> <r_i_glide_lipo>
-1.99411

> <r_i_glide_metal>
0

> <r_i_glide_rewards>
-0.9282

> <s_i_glide_gridfile>
wee1_glide-grid

> <s_m_Source_File>
wee1_decoys_glide_SP.sdf

> <s_m_Source_Path>
/Users/zhangxujun/Desktop

> <s_m_entry_id>
6277

> <s_m_entry_name>
wee1_decoys_glide_SP.6002

> <s_m_subgroup_title>
wee1_decoys_glide_SP

> <s_m_subgroupid>
wee1_decoys_glide_SP


$$$$
