@<TRIPOS>MOLECULE
ZINC63480122_5571
60   66    1
SMALL
USER_CHARGES


@<TRIPOS>ATOM
      1 C1          1.7547   56.0442   29.2514 C.2       1 UNK         0.0000 
      2 C2          1.1057   56.0075   30.5517 C.2       1 UNK         0.0000 
      3 C3          0.4614   54.8963   31.0015 C.2       1 UNK         0.0000 
      4 C4          0.3813   53.7501   30.2140 C.2       1 UNK         0.0000 
      5 N5         -0.1823   52.5973   30.4824 N.pl3     1 UNK         0.0000 
      6 C6          0.0036   51.6985   29.3379 C.3       1 UNK         0.0000 
      7 C7          0.7481   52.5628   28.3476 C.2       1 UNK         0.0000 
      8 C8          0.9648   53.7453   28.9445 C.2       1 UNK         0.0000 
      9 C9          1.6836   54.9402   28.4813 C.2       1 UNK         0.0000 
     10 C10         1.2006   52.0215   27.0057 C.3       1 UNK         0.0000 
     11 C11         0.1337   52.0942   25.9030 C.3       1 UNK         0.0000 
     12 H12        -0.1548   53.1368   25.7746 H         1 UNK         0.0000 
     13 C13         0.5570   51.5379   24.5545 C.3       1 UNK         0.0000 
     14 H14         1.0503   50.5752   24.7294 H         1 UNK         0.0000 
     15 C15        -0.7465   51.5160   23.8896 C.3       1 UNK         0.0000 
     16 H16        -1.2153   52.4994   23.7579 H         1 UNK         0.0000 
     17 C17        -0.3350   51.1140   22.4943 C.2       1 UNK         0.0000 
     18 O18        -1.0035   50.4364   21.7132 O.2       1 UNK         0.0000 
     19 N19         0.8668   51.7644   22.3050 N.am      1 UNK         0.0000 
     20 C20         1.3679   52.2464   23.4975 C.2       1 UNK         0.0000 
     21 O21         2.3033   53.0169   23.7119 O.2       1 UNK         0.0000 
     22 C22         1.4970   51.9303   21.0374 C.ar      1 UNK         0.0000 
     23 C23         2.8970   51.9360   20.9197 C.ar      1 UNK         0.0000 
     24 C24         3.5045   52.0981   19.6780 C.ar      1 UNK         0.0000 
     25 C25         2.7300   52.2527   18.5316 C.ar      1 UNK         0.0000 
     26 C26         1.3312   52.2676   18.6116 C.ar      1 UNK         0.0000 
     27 C27         0.7322   52.0966   19.8683 C.ar      1 UNK         0.0000 
     28 N28         0.5018   52.4753   17.4004 N.pl3     1 UNK         0.0000 
     29 O29        -0.7174   52.5567   17.5332 O.co2     1 UNK         0.0000 
     30 O30         1.0624   52.5701   16.3124 O.co2     1 UNK         0.0000 
     31 C31        -1.6519   50.7825   24.8950 C.3       1 UNK         0.0000 
     32 N32        -1.0668   51.2767   26.1610 N.3       1 UNK         0.0000 
     33 C33        -3.1316   51.0025   24.7484 C.ar      1 UNK         0.0000 
     34 C34        -3.8928   52.1743   24.6930 C.ar      1 UNK         0.0000 
     35 C35        -5.2799   52.0866   24.5490 C.ar      1 UNK         0.0000 
     36 C36        -5.9013   50.8367   24.4685 C.ar      1 UNK         0.0000 
     37 C37        -5.1392   49.6672   24.5313 C.ar      1 UNK         0.0000 
     38 C38        -3.7559   49.7715   24.6698 C.ar      1 UNK         0.0000 
     39 N39        -2.8066   48.7658   24.7421 N.am      1 UNK         0.0000 
     40 C40        -1.5492   49.2287   24.8451 C.2       1 UNK         0.0000 
     41 O41        -0.5237   48.5476   24.8692 O.2       1 UNK         0.0000 
     42 H42         2.2862   56.9254   28.9221 H         1 UNK         0.0000 
     43 H43         1.1632   56.8800   31.1895 H         1 UNK         0.0000 
     44 H44         0.0256   54.8966   31.9899 H         1 UNK         0.0000 
     45 H45         0.6365   50.8961   29.6787 H         1 UNK         0.0000 
     46 H46        -0.9672   51.3195   29.0116 H         1 UNK         0.0000 
     47 H47         2.1765   54.9580   27.5199 H         1 UNK         0.0000 
     48 H48         2.0905   52.5634   26.6842 H         1 UNK         0.0000 
     49 H49         1.5044   50.9858   27.1578 H         1 UNK         0.0000 
     50 H50         3.5292   51.8043   21.7852 H         1 UNK         0.0000 
     51 H51         4.5818   52.0935   19.5919 H         1 UNK         0.0000 
     52 H52         3.2335   52.3591   17.5801 H         1 UNK         0.0000 
     53 H53        -0.3458   52.1137   19.9331 H         1 UNK         0.0000 
     54 H54        -1.7534   51.7238   26.7508 H         1 UNK         0.0000 
     55 H55        -3.4249   53.1458   24.7566 H         1 UNK         0.0000 
     56 H56        -5.8764   52.9859   24.4961 H         1 UNK         0.0000 
     57 H57        -6.9740   50.7754   24.3562 H         1 UNK         0.0000 
     58 H58        -5.6264   48.7051   24.4692 H         1 UNK         0.0000 
     59 H59        -3.0140   47.7804   24.7182 H         1 UNK         0.0000 
     60 H60        -0.6584   52.3388   31.3528 H         1 UNK         0.0000 
@<TRIPOS>BOND
     1    1    9 2    
     2    1    2 1    
     3    1   42 1    
     4    2    3 2    
     5    2   43 1    
     6    3    4 1    
     7    3   44 1    
     8    4    8 1    
     9    4    5 2    
    10    5    6 1    
    11    5   60 1    
    12    6    7 1    
    13    6   45 1    
    14    6   46 1    
    15    7    8 2    
    16    7   10 1    
    17    8    9 1    
    18    9   47 1    
    19   10   11 1    
    20   10   48 1    
    21   10   49 1    
    22   11   12 1    
    23   11   32 1    
    24   11   13 1    
    25   13   14 1    
    26   13   20 1    
    27   13   15 1    
    28   15   16 1    
    29   15   17 1    
    30   15   31 1    
    31   17   18 2    
    32   17   19 am   BACKBONE|DICT|INTERRES
    33   19   20 am   BACKBONE|DICT|INTERRES
    34   19   22 1    
    35   20   21 2    
    36   22   27 ar   
    37   22   23 ar   
    38   23   24 ar   
    39   23   50 1    
    40   24   25 ar   
    41   24   51 1    
    42   25   26 ar   
    43   25   52 1    
    44   26   27 ar   
    45   26   28 1    
    46   27   53 1    
    47   28   29 2    
    48   28   30 1    
    49   31   40 1    
    50   31   32 1    
    51   31   33 1    
    52   32   54 1    
    53   33   38 ar   
    54   33   34 ar   
    55   34   35 ar   
    56   34   55 1    
    57   35   36 ar   
    58   35   56 1    
    59   36   37 ar   
    60   36   57 1    
    61   37   38 ar   
    62   37   58 1    
    63   38   39 1    
    64   39   40 am   BACKBONE|DICT|INTERRES
    65   39   59 1    
    66   40   41 2    
@<TRIPOS>SUBSTRUCTURE
     1 UNK         1 GROUP             0       ****    0 ROOT    
