@<TRIPOS>MOLECULE
ZINC26804535_5991
53   56    1
SMALL
USER_CHARGES


@<TRIPOS>ATOM
      1 C1          8.8552   57.6485   17.0961 C.3       1 UNK         0.0000 
      2 C2          8.1025   56.9446   18.2147 C.ar      1 UNK         0.0000 
      3 C3          8.8248   56.3274   19.2387 C.ar      1 UNK         0.0000 
      4 C4          8.1690   55.6965   20.2940 C.ar      1 UNK         0.0000 
      5 C5          6.7756   55.6457   20.3285 C.ar      1 UNK         0.0000 
      6 C6          6.0477   56.2534   19.2905 C.ar      1 UNK         0.0000 
      7 C7          6.6994   56.9149   18.2463 C.ar      1 UNK         0.0000 
      8 C8          5.8673   57.5976   17.1692 C.3       1 UNK         0.0000 
      9 N9          6.1862   55.0462   21.4594 N.am      1 UNK         0.0000 
     10 C10         4.9502   54.4964   21.5696 C.2       1 UNK         0.0000 
     11 O11         4.2277   54.3648   20.5841 O.2       1 UNK         0.0000 
     12 C12         4.4789   54.1455   22.9293 C.2       1 UNK         0.0000 
     13 C13         5.2223   54.4648   24.0312 C.2       1 UNK         0.0000 
     14 C14         4.8888   54.3376   25.4741 C.ar      1 UNK         0.0000 
     15 C15         5.9372   54.0966   26.3892 C.ar      1 UNK         0.0000 
     16 C16         5.7014   54.0142   27.7702 C.ar      1 UNK         0.0000 
     17 C17         4.3912   54.1652   28.2084 C.ar      1 UNK         0.0000 
     18 C18         3.3680   54.3964   27.3361 C.ar      1 UNK         0.0000 
     19 C19         3.5785   54.4967   25.9663 C.ar      1 UNK         0.0000 
     20 O20         2.2122   54.5690   28.0277 O.3       1 UNK         0.0000 
     21 C21         2.5097   54.2330   29.3553 C.3       1 UNK         0.0000 
     22 O22         3.9077   54.1779   29.4801 O.3       1 UNK         0.0000 
     23 N23         3.2357   53.5621   23.0960 N.am      1 UNK         0.0000 
     24 C24         2.7045   52.4761   22.4806 C.2       1 UNK         0.0000 
     25 O25         3.2390   51.8900   21.5391 O.2       1 UNK         0.0000 
     26 C26         1.3907   51.9849   23.0543 C.ar      1 UNK         0.0000 
     27 C27         0.4719   52.9120   23.5777 C.ar      1 UNK         0.0000 
     28 C28        -0.7442   52.4976   24.1153 C.ar      1 UNK         0.0000 
     29 C29        -1.0647   51.1445   24.1501 C.ar      1 UNK         0.0000 
     30 C30        -0.1684   50.2080   23.6420 C.ar      1 UNK         0.0000 
     31 C31         1.0503   50.6111   23.0897 C.ar      1 UNK         0.0000 
     32 Cl32        2.0795   49.3513   22.4821 Cl        1 UNK         0.0000 
     33 Cl33       -2.5721   50.6321   24.8163 Cl        1 UNK         0.0000 
     34 H34         8.6475   57.1655   16.1410 H         1 UNK         0.0000 
     35 H35         8.5316   58.6869   17.0161 H         1 UNK         0.0000 
     36 H36         9.9344   57.6467   17.2579 H         1 UNK         0.0000 
     37 H37         9.9042   56.3562   19.2311 H         1 UNK         0.0000 
     38 H38         8.7567   55.2594   21.0883 H         1 UNK         0.0000 
     39 H39         4.9689   56.2473   19.2864 H         1 UNK         0.0000 
     40 H40         6.0352   58.6763   17.1872 H         1 UNK         0.0000 
     41 H41         6.1529   57.2348   16.1808 H         1 UNK         0.0000 
     42 H42         4.7982   57.4188   17.2912 H         1 UNK         0.0000 
     43 H43         6.8014   54.9484   22.2503 H         1 UNK         0.0000 
     44 H44         6.1910   54.9238   23.8989 H         1 UNK         0.0000 
     45 H45         6.9487   53.9741   26.0306 H         1 UNK         0.0000 
     46 H46         6.5154   53.8513   28.4618 H         1 UNK         0.0000 
     47 H47         2.7500   54.7341   25.3189 H         1 UNK         0.0000 
     48 H48         2.0868   53.2496   29.5752 H         1 UNK         0.0000 
     49 H49         2.0890   54.9808   30.0290 H         1 UNK         0.0000 
     50 H50         2.8101   53.7447   23.9888 H         1 UNK         0.0000 
     51 H51         0.6795   53.9731   23.5620 H         1 UNK         0.0000 
     52 H52        -1.4369   53.2280   24.5065 H         1 UNK         0.0000 
     53 H53        -0.4202   49.1572   23.6748 H         1 UNK         0.0000 
@<TRIPOS>BOND
     1    1    2 1    
     2    1   34 1    
     3    1   35 1    
     4    1   36 1    
     5    2    7 ar   
     6    2    3 ar   
     7    3    4 ar   
     8    3   37 1    
     9    4    5 ar   
    10    4   38 1    
    11    5    6 ar   
    12    5    9 1    
    13    6    7 ar   
    14    6   39 1    
    15    7    8 1    
    16    8   40 1    
    17    8   41 1    
    18    8   42 1    
    19    9   10 am   BACKBONE|DICT|INTERRES
    20    9   43 1    
    21   10   11 2    
    22   10   12 1    
    23   12   13 2    
    24   12   23 1    
    25   13   14 1    
    26   13   44 1    
    27   14   19 ar   
    28   14   15 ar   
    29   15   16 ar   
    30   15   45 1    
    31   16   17 ar   
    32   16   46 1    
    33   17   22 1    
    34   17   18 ar   
    35   18   19 ar   
    36   18   20 1    
    37   19   47 1    
    38   20   21 1    
    39   21   22 1    
    40   21   48 1    
    41   21   49 1    
    42   23   24 am   BACKBONE|DICT|INTERRES
    43   23   50 1    
    44   24   25 2    
    45   24   26 1    
    46   26   31 ar   
    47   26   27 ar   
    48   27   28 ar   
    49   27   51 1    
    50   28   29 ar   
    51   28   52 1    
    52   29   30 ar   
    53   29   33 1    
    54   30   31 ar   
    55   30   53 1    
    56   31   32 1    
@<TRIPOS>SUBSTRUCTURE
     1 UNK         1 GROUP             0       ****    0 ROOT    
