@<TRIPOS>MOLECULE
ZINC39666026_1241
69   72    1
SMALL
USER_CHARGES


@<TRIPOS>ATOM
      1 C1         -2.0485   58.6617   15.5907 C.3       1 UNK         0.0000 
      2 C2         -0.9826   57.5805   15.5856 C.ar      1 UNK         0.0000 
      3 C3         -0.2630   57.3042   14.4202 C.ar      1 UNK         0.0000 
      4 C4          0.7299   56.3272   14.4340 C.ar      1 UNK         0.0000 
      5 C5          1.0188   55.6210   15.6025 C.ar      1 UNK         0.0000 
      6 C6          0.2755   55.8931   16.7638 C.ar      1 UNK         0.0000 
      7 C7         -0.7118   56.8737   16.7581 C.ar      1 UNK         0.0000 
      8 O8          2.0417   54.6920   15.5187 O.3       1 UNK         0.0000 
      9 C9          2.5113   54.0181   16.6894 C.3       1 UNK         0.0000 
     10 H10         2.4476   54.6720   17.5608 H         1 UNK         0.0000 
     11 C11         1.6498   52.7649   16.9426 C.3       1 UNK         0.0000 
     12 C12         4.0108   53.6794   16.4910 C.3       1 UNK         0.0000 
     13 N13         4.6899   53.2969   17.7326 N.am      1 UNK         0.0000 
     14 C14         4.9638   54.1465   18.7384 C.2       1 UNK         0.0000 
     15 O15         4.7616   55.3597   18.6538 O.2       1 UNK         0.0000 
     16 C16         5.5061   53.4914   20.0350 C.3       1 UNK         0.0000 
     17 H17         6.3007   52.8277   19.6820 H         1 UNK         0.0000 
     18 C18         6.1005   54.5982   20.9590 C.3       1 UNK         0.0000 
     19 N19         5.8263   54.1305   22.3238 N.am      1 UNK         0.0000 
     20 C20         5.0433   52.9035   22.3442 C.3       1 UNK         0.0000 
     21 C21         4.4484   52.7736   20.9324 C.3       1 UNK         0.0000 
     22 C22         4.1641   51.3224   20.4818 C.3       1 UNK         0.0000 
     23 C23         3.1709   50.5753   21.3957 C.3       1 UNK         0.0000 
     24 N24         1.8415   51.3553   21.4027 N.4       1 UNK         0.0000 
     25 C25         1.9969   52.8357   21.8061 C.3       1 UNK         0.0000 
     26 C26         3.0728   53.4807   20.9031 C.3       1 UNK         0.0000 
     27 C27         6.2532   54.7940   23.4302 C.2       1 UNK         0.0000 
     28 O28         7.0831   55.6963   23.3668 O.2       1 UNK         0.0000 
     29 C29         5.6294   54.4746   24.7725 C.ar      1 UNK         0.0000 
     30 C30         4.2390   54.4970   24.9556 C.ar      1 UNK         0.0000 
     31 C31         3.6783   54.2357   26.2057 C.ar      1 UNK         0.0000 
     32 C32         4.4949   53.9657   27.3104 C.ar      1 UNK         0.0000 
     33 C33         5.8833   53.9635   27.1385 C.ar      1 UNK         0.0000 
     34 C34         6.4364   54.2267   25.8858 C.ar      1 UNK         0.0000 
     35 F35         6.7066   53.6981   28.1776 F         1 UNK         0.0000 
     36 C36         3.8948   53.6884   28.6899 C.3       1 UNK         0.0000 
     37 F37         2.5620   53.7023   28.6703 F         1 UNK         0.0000 
     38 F38         4.2883   52.4958   29.1314 F         1 UNK         0.0000 
     39 F39         4.3032   54.6150   29.5538 F         1 UNK         0.0000 
     40 H40        -1.9320   59.2926   16.4708 H         1 UNK         0.0000 
     41 H41        -3.0417   58.2173   15.6243 H         1 UNK         0.0000 
     42 H42        -1.9743   59.3097   14.7170 H         1 UNK         0.0000 
     43 H43        -0.4658   57.8450   13.5068 H         1 UNK         0.0000 
     44 H44         1.2944   56.1214   13.5351 H         1 UNK         0.0000 
     45 H45         0.4530   55.3588   17.6823 H         1 UNK         0.0000 
     46 H46        -1.2590   57.0874   17.6660 H         1 UNK         0.0000 
     47 H47         1.9979   52.2160   17.8187 H         1 UNK         0.0000 
     48 H48         0.6054   53.0279   17.1114 H         1 UNK         0.0000 
     49 H49         1.6834   52.0828   16.0898 H         1 UNK         0.0000 
     50 H50         4.1134   52.8665   15.7710 H         1 UNK         0.0000 
     51 H51         4.5265   54.5308   16.0397 H         1 UNK         0.0000 
     52 H52         4.9314   52.3145   17.8345 H         1 UNK         0.0000 
     53 H53         7.1622   54.7666   20.7728 H         1 UNK         0.0000 
     54 H54         5.5408   55.5322   20.8780 H         1 UNK         0.0000 
     55 H55         4.2819   52.8799   23.1146 H         1 UNK         0.0000 
     56 H56         5.7388   52.0769   22.4970 H         1 UNK         0.0000 
     57 H57         3.8205   51.2967   19.4470 H         1 UNK         0.0000 
     58 H58         5.1043   50.7791   20.4818 H         1 UNK         0.0000 
     59 H59         2.9389   49.5750   21.0249 H         1 UNK         0.0000 
     60 H60         3.5007   50.4966   22.4309 H         1 UNK         0.0000 
     61 H61         1.4461   51.3177   20.4717 H         1 UNK         0.0000 
     62 H62         1.0196   53.2966   21.6558 H         1 UNK         0.0000 
     63 H63         2.2254   52.8549   22.8712 H         1 UNK         0.0000 
     64 H64         3.1921   54.5193   21.2142 H         1 UNK         0.0000 
     65 H65         2.7041   53.5206   19.8801 H         1 UNK         0.0000 
     66 H66         3.5810   54.7329   24.1302 H         1 UNK         0.0000 
     67 H67         2.6038   54.2544   26.3082 H         1 UNK         0.0000 
     68 H68         7.5043   54.2213   25.7817 H         1 UNK         0.0000 
     69 H69         1.1798   50.8968   22.0150 H         1 UNK         0.0000 
@<TRIPOS>BOND
     1    1    2 1    
     2    1   40 1    
     3    1   41 1    
     4    1   42 1    
     5    2    7 ar   
     6    2    3 ar   
     7    3    4 ar   
     8    3   43 1    
     9    4    5 ar   
    10    4   44 1    
    11    5    6 ar   
    12    5    8 1    
    13    6    7 ar   
    14    6   45 1    
    15    7   46 1    
    16    8    9 1    
    17    9   10 1    
    18    9   11 1    
    19    9   12 1    
    20   11   47 1    
    21   11   48 1    
    22   11   49 1    
    23   12   13 1    
    24   12   50 1    
    25   12   51 1    
    26   13   14 am   BACKBONE|DICT|INTERRES
    27   13   52 1    
    28   14   15 2    
    29   14   16 1    
    30   16   17 1    
    31   16   21 1    
    32   16   18 1    
    33   18   19 1    
    34   18   53 1    
    35   18   54 1    
    36   19   20 1    
    37   19   27 am   BACKBONE|DICT|INTERRES
    38   20   21 1    
    39   20   55 1    
    40   20   56 1    
    41   21   26 1    
    42   21   22 1    
    43   22   23 1    
    44   22   57 1    
    45   22   58 1    
    46   23   24 1    
    47   23   59 1    
    48   23   60 1    
    49   24   25 1    
    50   24   61 1    
    51   24   69 1    
    52   25   26 1    
    53   25   62 1    
    54   25   63 1    
    55   26   64 1    
    56   26   65 1    
    57   27   28 2    
    58   27   29 1    
    59   29   34 ar   
    60   29   30 ar   
    61   30   31 ar   
    62   30   66 1    
    63   31   32 ar   
    64   31   67 1    
    65   32   33 ar   
    66   32   36 1    
    67   33   34 ar   
    68   33   35 1    
    69   34   68 1    
    70   36   37 1    
    71   36   38 1    
    72   36   39 1    
@<TRIPOS>SUBSTRUCTURE
     1 UNK         1 GROUP             0       ****    0 ROOT    
