ZINC55175898_1658
                    3D
 Schrodinger Suite 2024-2.
 33 35  0  0  1  0            999 V2000
    4.1044   52.0967   30.7271 C   0  0  0  0  0  0
    2.9207   52.7622   30.0776 C   0  0  0  0  0  0
    2.8590   53.6091   28.9547 C   0  0  0  0  0  0
    1.2021   54.1506   28.7883 S   0  0  0  0  0  0
    0.7871   53.0950   30.1002 C   0  0  0  0  0  0
    1.7819   52.4965   30.6731 N   0  0  0  0  0  0
   -0.4956   52.8967   30.4817 N   0  0  0  0  0  0
    3.9934   54.0985   28.1906 C   0  0  0  0  0  0
    4.9286   54.4967   28.8814 O   0  0  0  0  0  0
    4.0526   53.9683   26.8147 N   0  0  0  0  0  0
    2.8903   53.4691   26.0331 C   0  0  0  0  0  0
    2.7774   54.2334   24.6987 C   0  0  0  0  0  0
    4.0357   54.0967   23.9128 C   0  0  0  0  0  0
    5.2679   54.0360   24.5321 C   0  0  0  0  0  0
    6.3040   54.1209   23.5789 C   0  0  0  0  0  0
    5.8432   54.3070   22.2823 C   0  0  0  0  0  0
    4.1232   54.1961   22.1855 S   0  0  0  0  0  0
    5.3727   53.8600   26.0656 C   0  0  1  0  0  0
    5.6781   52.8350   26.2401 H   0  0  0  0  0  0
    6.6209   54.6004   26.5882 C   0  0  0  0  0  0
    7.3414   53.9921   27.4052 O   0  0  0  0  0  0
    6.9057   55.7022   26.0816 O   0  5  0  0  0  0
    4.9832   52.0894   30.0818 H   0  0  0  0  0  0
    4.3680   52.6105   31.6508 H   0  0  0  0  0  0
    3.9044   51.0684   31.0093 H   0  0  0  0  0  0
   -0.6858   52.4195   31.3632 H   0  0  0  0  0  0
   -1.1723   52.6725   29.7682 H   0  0  0  0  0  0
    2.9995   52.4154   25.8241 H   0  0  0  0  0  0
    1.9313   53.6360   26.5009 H   0  0  0  0  0  0
    1.8974   53.9334   24.1291 H   0  0  0  0  0  0
    2.7044   55.2967   24.8815 H   0  0  0  0  0  0
    7.3519   54.1027   23.8401 H   0  0  0  0  0  0
    6.4172   54.4967   21.3886 H   0  0  0  0  0  0
  1  2  1  0  0  0
  1 23  1  0  0  0
  1 24  1  0  0  0
  1 25  1  0  0  0
  2  6  1  0  0  0
  2  3  2  0  0  0
  3  4  1  0  0  0
  3  8  1  0  0  0
  4  5  1  0  0  0
  5  6  2  0  0  0
  5  7  1  0  0  0
  7 26  1  0  0  0
  7 27  1  0  0  0
  8  9  2  0  0  0
  8 10  1  0  0  0
 10 18  1  0  0  0
 10 11  1  0  0  0
 11 12  1  0  0  0
 11 28  1  0  0  0
 11 29  1  0  0  0
 12 13  1  0  0  0
 12 30  1  0  0  0
 12 31  1  0  0  0
 13 17  1  0  0  0
 13 14  2  0  0  0
 14 15  1  0  0  0
 14 18  1  0  0  0
 15 16  2  0  0  0
 15 32  1  0  0  0
 16 17  1  0  0  0
 16 33  1  0  0  0
 18 19  1  0  0  0
 18 20  1  0  0  0
 20 21  2  0  0  0
 20 22  1  0  0  0
M  CHG  1  22  -1
M  END
> <i_i_glide_confnum>
10

> <i_i_glide_lignum>
1659

> <i_i_glide_posenum>
156

> <i_i_glide_rotatable_bonds>
3

> <i_m_Source_File_Index>
3004

> <b_m_subgroup_collapsed>
0

> <r_i_docking_score>
-7.51399

> <r_i_glide_ecoul>
-5.57726

> <r_i_glide_eff_state_penalty>
0

> <r_i_glide_einternal>
13.4001

> <r_i_glide_emodel>
-49.4792

> <r_i_glide_energy>
-38.96

> <r_i_glide_erotb>
0.359843

> <r_i_glide_esite>
-0.0789414

> <r_i_glide_evdw>
-33.3828

> <r_i_glide_gscore>
-7.51399

> <r_i_glide_hbond>
-0.325673

> <r_i_glide_ligand_efficiency>
-0.357809

> <r_i_glide_ligand_efficiency_ln>
-1.85782

> <r_i_glide_ligand_efficiency_sa>
-0.987168

> <r_i_glide_lipo>
-2.6631

> <r_i_glide_metal>
0

> <r_i_glide_rewards>
-2.30039

> <s_i_glide_gridfile>
wee1_glide-grid

> <s_m_Source_File>
wee1_decoys_glide_SP.sdf

> <s_m_Source_Path>
/Users/zhangxujun/Desktop

> <s_m_entry_id>
3279

> <s_m_entry_name>
wee1_decoys_glide_SP.3004

> <s_m_subgroup_title>
wee1_decoys_glide_SP

> <s_m_subgroupid>
wee1_decoys_glide_SP


$$$$
