ZINC40733284_1144
                    3D
 Schrodinger Suite 2024-2.
 55 58  0  0  1  0            999 V2000
    1.3221   56.7608   30.5226 C   0  0  0  0  0  0
    1.5018   55.3536   29.9903 C   0  0  0  0  0  0
    0.7053   54.3064   30.4667 C   0  0  0  0  0  0
    0.8754   53.0162   29.9633 C   0  0  0  0  0  0
    1.8292   52.7693   28.9759 C   0  0  0  0  0  0
    2.6255   53.8132   28.4852 C   0  0  0  0  0  0
    2.4550   55.1022   28.9996 C   0  0  0  0  0  0
    3.6719   53.5415   27.4105 C   0  0  0  0  0  0
    3.7598   54.6442   26.5036 O   0  0  0  0  0  0
    3.9656   54.3093   25.1852 C   0  0  0  0  0  0
    2.9072   53.8175   24.4041 C   0  0  0  0  0  0
    3.1475   53.4881   23.0587 C   0  0  0  0  0  0
    4.4275   53.6227   22.5033 C   0  0  0  0  0  0
    5.4680   54.1046   23.3006 C   0  0  0  0  0  0
    5.2394   54.4646   24.6288 C   0  0  0  0  0  0
    6.6815   55.1446   25.6736 Br  0  0  0  0  0  0
    4.7189   53.2487   21.0549 C   0  0  0  0  0  0
    3.5010   53.2607   20.1106 N   0  3  0  0  0  0
    3.8261   53.0851   18.6164 C   0  0  0  0  0  0
    4.6351   54.2556   18.0757 C   0  0  0  0  0  0
    6.0080   54.1070   17.7961 C   0  0  0  0  0  0
    6.7734   55.2004   17.3636 C   0  0  0  0  0  0
    6.1302   56.4245   17.2176 C   0  0  0  0  0  0
    4.7954   56.5665   17.4655 C   0  0  0  0  0  0
    4.0100   55.5007   17.8865 C   0  0  0  0  0  0
    4.4218   57.8502   17.2254 O   0  0  0  0  0  0
    5.5973   58.5580   16.9155 C   0  0  0  0  0  0
    6.6413   57.6188   16.8118 O   0  0  0  0  0  0
    1.6772   53.6808   25.0215 O   0  0  0  0  0  0
    0.6015   53.0704   24.3154 C   0  0  0  0  0  0
    0.3038   56.9149   30.8609 H   0  0  0  0  0  0
    1.9826   56.9574   31.3659 H   0  0  0  0  0  0
    1.5149   57.5013   29.7457 H   0  0  0  0  0  0
   -0.0313   54.4858   31.2380 H   0  0  0  0  0  0
    0.2641   52.2091   30.3458 H   0  0  0  0  0  0
    1.9453   51.7640   28.5935 H   0  0  0  0  0  0
    3.0679   55.9115   28.6326 H   0  0  0  0  0  0
    3.4295   52.6071   26.9023 H   0  0  0  0  0  0
    4.6407   53.4044   27.8920 H   0  0  0  0  0  0
    2.3444   53.1097   22.4426 H   0  0  0  0  0  0
    6.4621   54.2167   22.8885 H   0  0  0  0  0  0
    5.1319   52.2413   20.9780 H   0  0  0  0  0  0
    5.4331   53.9480   20.6172 H   0  0  0  0  0  0
    3.0003   54.1399   20.2197 H   0  0  0  0  0  0
    2.8491   53.0370   18.1354 H   0  0  0  0  0  0
    4.3038   52.0989   18.5245 H   0  0  0  0  0  0
    6.4852   53.1433   17.9288 H   0  0  0  0  0  0
    7.8273   55.0873   17.1570 H   0  0  0  0  0  0
    2.9548   55.6284   18.0824 H   0  0  0  0  0  0
    5.4659   59.0905   15.9693 H   0  0  0  0  0  0
    5.8170   59.2839   17.7046 H   0  0  0  0  0  0
   -0.2537   52.9557   24.9832 H   0  0  0  0  0  0
    0.2860   53.6855   23.4709 H   0  0  0  0  0  0
    0.8680   52.0730   23.9581 H   0  0  0  0  0  0
    2.8680   52.5272   20.3958 H   0  0  0  0  0  0
  1  2  1  0  0  0
  1 31  1  0  0  0
  1 32  1  0  0  0
  1 33  1  0  0  0
  2  7  2  0  0  0
  2  3  1  0  0  0
  3  4  2  0  0  0
  3 34  1  0  0  0
  4  5  1  0  0  0
  4 35  1  0  0  0
  5  6  2  0  0  0
  5 36  1  0  0  0
  6  7  1  0  0  0
  6  8  1  0  0  0
  7 37  1  0  0  0
  8  9  1  0  0  0
  8 38  1  0  0  0
  8 39  1  0  0  0
  9 10  1  0  0  0
 10 15  2  0  0  0
 10 11  1  0  0  0
 11 12  2  0  0  0
 11 29  1  0  0  0
 12 13  1  0  0  0
 12 40  1  0  0  0
 13 14  2  0  0  0
 13 17  1  0  0  0
 14 15  1  0  0  0
 14 41  1  0  0  0
 15 16  1  0  0  0
 17 18  1  0  0  0
 17 42  1  0  0  0
 17 43  1  0  0  0
 18 19  1  0  0  0
 18 44  1  0  0  0
 18 55  1  0  0  0
 19 20  1  0  0  0
 19 45  1  0  0  0
 19 46  1  0  0  0
 20 25  2  0  0  0
 20 21  1  0  0  0
 21 22  2  0  0  0
 21 47  1  0  0  0
 22 23  1  0  0  0
 22 48  1  0  0  0
 23 28  1  0  0  0
 23 24  2  0  0  0
 24 25  1  0  0  0
 24 26  1  0  0  0
 25 49  1  0  0  0
 26 27  1  0  0  0
 27 28  1  0  0  0
 27 50  1  0  0  0
 27 51  1  0  0  0
 29 30  1  0  0  0
 30 52  1  0  0  0
 30 53  1  0  0  0
 30 54  1  0  0  0
M  CHG  1  18   1
M  END
> <i_i_glide_confnum>
75

> <i_i_glide_lignum>
1145

> <i_i_glide_posenum>
46

> <i_i_glide_rotatable_bonds>
8

> <i_m_Source_File_Index>
4337

> <b_m_subgroup_collapsed>
0

> <r_i_docking_score>
-6.70402

> <r_i_glide_ecoul>
-5.82262

> <r_i_glide_eff_state_penalty>
0

> <r_i_glide_einternal>
4.65806

> <r_i_glide_emodel>
-69.7809

> <r_i_glide_energy>
-48.9798

> <r_i_glide_erotb>
0.545819

> <r_i_glide_esite>
-0.0863413

> <r_i_glide_evdw>
-43.1572

> <r_i_glide_gscore>
-6.70402

> <r_i_glide_hbond>
0

> <r_i_glide_ligand_efficiency>
-0.223467

> <r_i_glide_ligand_efficiency_ln>
-1.52323

> <r_i_glide_ligand_efficiency_sa>
-0.694365

> <r_i_glide_lipo>
-3.887

> <r_i_glide_metal>
0

> <r_i_glide_rewards>
-0.245248

> <s_i_glide_gridfile>
wee1_glide-grid

> <s_m_Source_File>
wee1_decoys_glide_SP.sdf

> <s_m_Source_Path>
/Users/zhangxujun/Desktop

> <s_m_entry_id>
4612

> <s_m_entry_name>
wee1_decoys_glide_SP.4337

> <s_m_subgroup_title>
wee1_decoys_glide_SP

> <s_m_subgroupid>
wee1_decoys_glide_SP


$$$$
