ZINC38687909_6012
                    3D
 Schrodinger Suite 2024-2.
 48 51  0  0  1  0            999 V2000
    0.5914   54.2642   30.5075 C   0  0  0  0  0  0
    1.8518   53.6022   30.4814 O   0  0  0  0  0  0
    2.7189   53.8117   29.4246 C   0  0  0  0  0  0
    2.4434   54.6665   28.3477 C   0  0  0  0  0  0
    3.3579   54.8097   27.3062 C   0  0  0  0  0  0
    4.5759   54.1153   27.3148 C   0  0  0  0  0  0
    4.8691   53.2950   28.4104 C   0  0  0  0  0  0
    3.9383   53.1227   29.4398 C   0  0  0  0  0  0
    4.3028   52.0253   30.7263 Cl  0  0  0  0  0  0
    5.5394   54.2362   26.1747 C   0  0  0  0  0  0
    6.7575   54.0957   26.2949 O   0  0  0  0  0  0
    4.8739   54.3849   24.9907 O   0  0  0  0  0  0
    5.4563   54.4968   23.7406 C   0  0  0  0  0  0
    6.6997   55.0948   23.4623 C   0  0  0  0  0  0
    7.1046   55.2968   22.1386 C   0  0  0  0  0  0
    6.3074   54.8965   21.0575 C   0  0  0  0  0  0
    5.0698   54.2964   21.3578 C   0  0  0  0  0  0
    4.6541   54.1016   22.6713 C   0  0  0  0  0  0
    4.2045   53.8392   20.3870 O   0  0  0  0  0  0
    4.6008   53.8507   19.0941 C   0  0  0  0  0  0
    5.7772   54.3316   18.6473 C   0  0  0  0  0  0
    6.8158   54.9278   19.6009 C   0  0  1  0  0  0
    7.6512   54.2292   19.5397 H   0  0  0  0  0  0
    7.3915   56.2687   19.1405 C   0  0  0  0  0  0
    6.5423   57.3199   18.7780 C   0  0  0  0  0  0
    7.0719   58.4927   18.2468 C   0  0  0  0  0  0
    8.4509   58.6191   18.0837 C   0  0  0  0  0  0
    9.3050   57.5856   18.4635 C   0  0  0  0  0  0
    8.7751   56.4106   18.9859 C   0  0  0  0  0  0
    9.1814   60.2243   17.3707 Br  0  0  0  0  0  0
    6.0993   54.2540   17.2573 C   0  0  0  0  0  0
    6.3526   54.2093   16.1295 N   0  0  0  0  0  0
    3.6147   53.2673   18.3478 N   0  0  0  0  0  0
    0.0493   53.9700   31.4067 H   0  0  0  0  0  0
    0.7064   55.3486   30.5341 H   0  0  0  0  0  0
   -0.0230   53.9894   29.6495 H   0  0  0  0  0  0
    1.5170   55.2170   28.2922 H   0  0  0  0  0  0
    3.1047   55.4463   26.4758 H   0  0  0  0  0  0
    5.8007   52.7471   28.4438 H   0  0  0  0  0  0
    7.3421   55.4405   24.2578 H   0  0  0  0  0  0
    8.0748   55.7375   21.9567 H   0  0  0  0  0  0
    3.6864   53.6580   22.8573 H   0  0  0  0  0  0
    5.4708   57.2170   18.8778 H   0  0  0  0  0  0
    6.4106   59.2941   17.9482 H   0  0  0  0  0  0
   10.3736   57.6867   18.3443 H   0  0  0  0  0  0
    9.4496   55.6068   19.2511 H   0  0  0  0  0  0
    3.7801   53.0774   17.3698 H   0  0  0  0  0  0
    2.9335   52.6839   18.8111 H   0  0  0  0  0  0
  1  2  1  0  0  0
  1 34  1  0  0  0
  1 35  1  0  0  0
  1 36  1  0  0  0
  2  3  1  0  0  0
  3  8  2  0  0  0
  3  4  1  0  0  0
  4  5  2  0  0  0
  4 37  1  0  0  0
  5  6  1  0  0  0
  5 38  1  0  0  0
  6  7  2  0  0  0
  6 10  1  0  0  0
  7  8  1  0  0  0
  7 39  1  0  0  0
  8  9  1  0  0  0
 10 11  2  0  0  0
 10 12  1  0  0  0
 12 13  1  0  0  0
 13 18  2  0  0  0
 13 14  1  0  0  0
 14 15  2  0  0  0
 14 40  1  0  0  0
 15 16  1  0  0  0
 15 41  1  0  0  0
 16 22  1  0  0  0
 16 17  2  0  0  0
 17 18  1  0  0  0
 17 19  1  0  0  0
 18 42  1  0  0  0
 19 20  1  0  0  0
 20 21  2  0  0  0
 20 33  1  0  0  0
 21 22  1  0  0  0
 21 31  1  0  0  0
 22 23  1  0  0  0
 22 24  1  0  0  0
 24 29  2  0  0  0
 24 25  1  0  0  0
 25 26  2  0  0  0
 25 43  1  0  0  0
 26 27  1  0  0  0
 26 44  1  0  0  0
 27 28  2  0  0  0
 27 30  1  0  0  0
 28 29  1  0  0  0
 28 45  1  0  0  0
 29 46  1  0  0  0
 31 32  3  0  0  0
 33 47  1  0  0  0
 33 48  1  0  0  0
M  END
> <i_i_glide_confnum>
16

> <i_i_glide_lignum>
6013

> <i_i_glide_posenum>
338

> <i_i_glide_rotatable_bonds>
6

> <i_m_Source_File_Index>
3313

> <b_m_subgroup_collapsed>
0

> <r_i_docking_score>
-6.12625

> <r_i_glide_ecoul>
-5.034

> <r_i_glide_eff_state_penalty>
0

> <r_i_glide_einternal>
2.34981

> <r_i_glide_emodel>
-64.683

> <r_i_glide_energy>
-50.1449

> <r_i_glide_erotb>
0.313034

> <r_i_glide_esite>
-0.0466367

> <r_i_glide_evdw>
-45.1109

> <r_i_glide_gscore>
-6.12625

> <r_i_glide_hbond>
-0.243728

> <r_i_glide_ligand_efficiency>
-0.191445

> <r_i_glide_ligand_efficiency_ln>
-1.37183

> <r_i_glide_ligand_efficiency_sa>
-0.607801

> <r_i_glide_lipo>
-2.86621

> <r_i_glide_metal>
0

> <r_i_glide_rewards>
-0.272067

> <s_i_glide_gridfile>
wee1_glide-grid

> <s_m_Source_File>
wee1_decoys_glide_SP.sdf

> <s_m_Source_Path>
/Users/zhangxujun/Desktop

> <s_m_entry_id>
3588

> <s_m_entry_name>
wee1_decoys_glide_SP.3313

> <s_m_subgroup_title>
wee1_decoys_glide_SP

> <s_m_subgroupid>
wee1_decoys_glide_SP


$$$$
