@<TRIPOS>MOLECULE
ZINC09434568_1728
25   26    1
SMALL
USER_CHARGES


@<TRIPOS>ATOM
      1 C1          7.3915   55.4573   21.3024 C.ar      1 UNK         0.0000 
      2 C2          8.0187   55.7323   20.0929 C.ar      1 UNK         0.0000 
      3 C3          7.3688   55.4387   18.8983 C.ar      1 UNK         0.0000 
      4 C4          6.0985   54.8707   18.9020 C.ar      1 UNK         0.0000 
      5 C5          5.4748   54.5805   20.1135 C.ar      1 UNK         0.0000 
      6 C6          6.1215   54.8659   21.3206 C.ar      1 UNK         0.0000 
      7 C7          5.4781   54.4969   22.6164 C.2       1 UNK         0.0000 
      8 C8          4.1964   54.0981   22.9775 C.2       1 UNK         0.0000 
      9 C9          4.1508   54.0967   24.3746 C.2       1 UNK         0.0000 
     10 C10         5.4447   54.3629   24.8195 C.2       1 UNK         0.0000 
     11 O11         6.2274   54.6423   23.7450 O.3       1 UNK         0.0000 
     12 C12         6.0157   54.5196   26.1290 C.2       1 UNK         0.0000 
     13 O13         7.1043   55.0801   26.2865 O.2       1 UNK         0.0000 
     14 N14         5.2526   54.0293   27.1260 N.am      1 UNK         0.0000 
     15 N15         5.7045   54.0916   28.4513 N.3       1 UNK         0.0000 
     16 F16         7.9802   55.7119   17.7241 F         1 UNK         0.0000 
     17 H17         7.9035   55.6820   22.2262 H         1 UNK         0.0000 
     18 H18         9.0088   56.1638   20.0798 H         1 UNK         0.0000 
     19 H19         5.6089   54.6425   17.9678 H         1 UNK         0.0000 
     20 H20         4.4975   54.1223   20.1030 H         1 UNK         0.0000 
     21 H21         3.3658   53.9166   22.3112 H         1 UNK         0.0000 
     22 H22         3.2819   53.8896   24.9850 H         1 UNK         0.0000 
     23 H23         4.5145   53.3572   26.9668 H         1 UNK         0.0000 
     24 H24         6.7115   53.9807   28.4334 H         1 UNK         0.0000 
     25 H25         5.5105   55.0224   28.7987 H         1 UNK         0.0000 
@<TRIPOS>BOND
     1    1    6 ar   
     2    1    2 ar   
     3    1   17 1    
     4    2    3 ar   
     5    2   18 1    
     6    3    4 ar   
     7    3   16 1    
     8    4    5 ar   
     9    4   19 1    
    10    5    6 ar   
    11    5   20 1    
    12    6    7 1    
    13    7   11 1    
    14    7    8 2    
    15    8    9 1    
    16    8   21 1    
    17    9   10 2    
    18    9   22 1    
    19   10   11 1    
    20   10   12 1    
    21   12   13 2    
    22   12   14 am   BACKBONE|DICT|INTERRES
    23   14   15 1    
    24   14   23 1    
    25   15   24 1    
    26   15   25 1    
@<TRIPOS>SUBSTRUCTURE
     1 UNK         1 GROUP             0       ****    0 ROOT    
