ZINC16699506_3595
                    3D
 Schrodinger Suite 2024-2.
 32 34  0  0  1  0            999 V2000
    3.6718   53.7039   22.0776 C   0  0  0  0  0  0
    4.2563   54.0547   23.4347 C   0  0  0  0  0  0
    5.5368   54.4967   23.5535 C   0  0  0  0  0  0
    6.1464   54.9434   24.7990 C   0  0  0  0  0  0
    7.1045   55.6961   24.8818 O   0  0  0  0  0  0
    5.4828   54.5744   25.9113 N   0  0  0  0  0  0
    5.9070   54.8664   26.7778 H   0  0  0  0  0  0
    4.1970   54.0843   25.8710 C   0  0  0  0  0  0
    3.4945   53.8464   24.6878 C   0  0  0  0  0  0
    2.1864   53.4014   24.9601 C   0  0  0  0  0  0
    1.9170   53.2713   26.3356 C   0  0  0  0  0  0
    3.3231   53.6968   27.2893 S   0  0  0  0  0  0
    0.7045   52.7880   27.0130 C   0  0  0  0  0  0
   -0.0804   52.0620   26.4007 O   0  0  0  0  0  0
    0.5079   53.0689   28.4686 C   0  0  0  0  0  0
   -0.0105   52.0622   29.2858 C   0  0  0  0  0  0
   -0.0984   52.2665   30.6552 C   0  0  0  0  0  0
    0.3044   53.4758   31.2117 C   0  0  0  0  0  0
    0.7222   54.5209   30.3967 C   0  0  0  0  0  0
    0.8104   54.3224   29.0232 C   0  0  0  0  0  0
    0.3043   53.6969   33.0989 Br  0  0  0  0  0  0
    1.2743   53.1148   23.9831 N   0  0  0  0  0  0
    4.3938   53.8442   21.2726 H   0  0  0  0  0  0
    3.3528   52.6614   22.0573 H   0  0  0  0  0  0
    2.8125   54.3380   21.8628 H   0  0  0  0  0  0
    6.1372   54.6223   22.6649 H   0  0  0  0  0  0
   -0.3071   51.1026   28.8795 H   0  0  0  0  0  0
   -0.4951   51.4806   31.2817 H   0  0  0  0  0  0
    0.9996   55.4712   30.8300 H   0  0  0  0  0  0
    1.1491   55.1401   28.4022 H   0  0  0  0  0  0
    1.5006   53.2034   23.0038 H   0  0  0  0  0  0
    0.3746   52.7166   24.2185 H   0  0  0  0  0  0
  1  2  1  0  0  0
  1 23  1  0  0  0
  1 24  1  0  0  0
  1 25  1  0  0  0
  2  9  1  0  0  0
  2  3  2  0  0  0
  3  4  1  0  0  0
  3 26  1  0  0  0
  4  5  2  0  0  0
  4  6  1  0  0  0
  6  7  1  0  0  0
  6  8  1  0  0  0
  8 12  1  0  0  0
  8  9  2  0  0  0
  9 10  1  0  0  0
 10 11  2  0  0  0
 10 22  1  0  0  0
 11 12  1  0  0  0
 11 13  1  0  0  0
 13 14  2  0  0  0
 13 15  1  0  0  0
 15 20  2  0  0  0
 15 16  1  0  0  0
 16 17  2  0  0  0
 16 27  1  0  0  0
 17 18  1  0  0  0
 17 28  1  0  0  0
 18 19  2  0  0  0
 18 21  1  0  0  0
 19 20  1  0  0  0
 19 29  1  0  0  0
 20 30  1  0  0  0
 22 31  1  0  0  0
 22 32  1  0  0  0
M  END
> <i_i_glide_confnum>
12

> <i_i_glide_lignum>
3596

> <i_i_glide_posenum>
141

> <i_i_glide_rotatable_bonds>
2

> <i_m_Source_File_Index>
3156

> <b_m_subgroup_collapsed>
0

> <r_i_docking_score>
-6.31901

> <r_i_glide_ecoul>
-2.22392

> <r_i_glide_eff_state_penalty>
0

> <r_i_glide_einternal>
3.21144

> <r_i_glide_emodel>
-52.7965

> <r_i_glide_energy>
-39.8139

> <r_i_glide_erotb>
0.291218

> <r_i_glide_esite>
0

> <r_i_glide_evdw>
-37.59

> <r_i_glide_gscore>
-6.31901

> <r_i_glide_hbond>
-0.32

> <r_i_glide_ligand_efficiency>
-0.300905

> <r_i_glide_ligand_efficiency_ln>
-1.56236

> <r_i_glide_ligand_efficiency_sa>
-0.830175

> <r_i_glide_lipo>
-2.5208

> <r_i_glide_metal>
0

> <r_i_glide_rewards>
-1.55634

> <s_i_glide_gridfile>
wee1_glide-grid

> <s_m_Source_File>
wee1_decoys_glide_SP.sdf

> <s_m_Source_Path>
/Users/zhangxujun/Desktop

> <s_m_entry_id>
3431

> <s_m_entry_name>
wee1_decoys_glide_SP.3156

> <s_m_subgroup_title>
wee1_decoys_glide_SP

> <s_m_subgroupid>
wee1_decoys_glide_SP


$$$$
