@<TRIPOS>MOLECULE
ZINC39652862_3065
67   70    1
SMALL
USER_CHARGES


@<TRIPOS>ATOM
      1 C1         -6.1295   51.6268   24.0834 C.3       1 UNK         0.0000 
      2 O2         -4.9686   52.2912   24.5668 O.3       1 UNK         0.0000 
      3 C3         -3.7284   51.7388   24.3200 C.ar      1 UNK         0.0000 
      4 C4         -3.4951   50.6375   23.4813 C.ar      1 UNK         0.0000 
      5 C5         -2.2039   50.1431   23.3070 C.ar      1 UNK         0.0000 
      6 C6         -1.1204   50.7402   23.9611 C.ar      1 UNK         0.0000 
      7 C7         -1.3449   51.8563   24.7870 C.ar      1 UNK         0.0000 
      8 C8         -2.6428   52.3348   24.9604 C.ar      1 UNK         0.0000 
      9 O9         -0.3407   52.4967   25.4726 O.3       1 UNK         0.0000 
     10 C10         0.5439   53.2765   24.6745 C.3       1 UNK         0.0000 
     11 C11         0.2524   50.1413   23.8257 C.2       1 UNK         0.0000 
     12 O12         0.7043   49.4721   24.7515 O.2       1 UNK         0.0000 
     13 N13         0.9457   50.3973   22.6907 N.am      1 UNK         0.0000 
     14 C14         2.2965   49.8733   22.4814 C.3       1 UNK         0.0000 
     15 C15         2.7266   50.4915   21.1453 C.3       1 UNK         0.0000 
     16 H16         3.3117   49.7411   20.6217 H         1 UNK         0.0000 
     17 C17         1.4004   50.7906   20.3784 C.3       1 UNK         0.0000 
     18 C18         0.4440   51.1563   21.5363 C.3       1 UNK         0.0000 
     19 C19         1.3863   51.8642   19.2548 C.3       1 UNK         0.0000 
     20 C20         2.3497   51.4803   18.1135 C.3       1 UNK         0.0000 
     21 N21         1.9044   50.1255   17.5173 N.4       1 UNK         0.0000 
     22 C22         1.7067   48.9972   18.5507 C.3       1 UNK         0.0000 
     23 C23         0.8121   49.5168   19.6957 C.3       1 UNK         0.0000 
     24 C24         3.6847   51.7049   21.2816 C.2       1 UNK         0.0000 
     25 O25         4.7397   51.6985   20.6535 O.2       1 UNK         0.0000 
     26 N26         3.3100   52.7632   22.0272 N.am      1 UNK         0.0000 
     27 C27         4.0463   54.0358   22.0409 C.3       1 UNK         0.0000 
     28 C28         5.3684   54.0446   22.8558 C.3       1 UNK         0.0000 
     29 C29         5.2735   54.1354   24.3800 C.ar      1 UNK         0.0000 
     30 C30         4.0479   54.0973   25.0512 C.ar      1 UNK         0.0000 
     31 C31         3.9997   54.1978   26.4376 C.ar      1 UNK         0.0000 
     32 C32         5.1797   54.3450   27.1595 C.ar      1 UNK         0.0000 
     33 C33         6.4078   54.3895   26.5052 C.ar      1 UNK         0.0000 
     34 C34         6.4536   54.2905   25.1149 C.ar      1 UNK         0.0000 
     35 Br35        5.1039   54.4975   29.0539 Br        1 UNK         0.0000 
     36 H36        -7.0143   52.1923   24.3724 H         1 UNK         0.0000 
     37 H37        -6.1318   51.5451   22.9963 H         1 UNK         0.0000 
     38 H38        -6.2201   50.6279   24.5115 H         1 UNK         0.0000 
     39 H39        -4.3074   50.1452   22.9679 H         1 UNK         0.0000 
     40 H40        -2.0532   49.2771   22.6765 H         1 UNK         0.0000 
     41 H41        -2.8119   53.1812   25.6096 H         1 UNK         0.0000 
     42 H42         1.1045   53.9554   25.3146 H         1 UNK         0.0000 
     43 H43         1.2737   52.6603   24.1555 H         1 UNK         0.0000 
     44 H44         0.0104   53.8837   23.9419 H         1 UNK         0.0000 
     45 H45         2.2491   48.7894   22.3644 H         1 UNK         0.0000 
     46 H46         3.0062   50.0680   23.2845 H         1 UNK         0.0000 
     47 H47         0.5634   52.2198   21.7499 H         1 UNK         0.0000 
     48 H48        -0.6011   50.9985   21.2642 H         1 UNK         0.0000 
     49 H49         0.3784   52.0264   18.8720 H         1 UNK         0.0000 
     50 H50         1.6929   52.8327   19.6527 H         1 UNK         0.0000 
     51 H51         2.3465   52.1968   17.2903 H         1 UNK         0.0000 
     52 H52         3.3802   51.3341   18.4396 H         1 UNK         0.0000 
     53 H53         1.0663   50.2525   16.9695 H         1 UNK         0.0000 
     54 H54         1.2546   48.1660   18.0071 H         1 UNK         0.0000 
     55 H55         2.7101   48.6978   18.8548 H         1 UNK         0.0000 
     56 H56         0.7026   48.7151   20.4284 H         1 UNK         0.0000 
     57 H57        -0.2011   49.6949   19.3304 H         1 UNK         0.0000 
     58 H58         2.4496   52.7109   22.5488 H         1 UNK         0.0000 
     59 H59         3.3733   54.7941   22.4471 H         1 UNK         0.0000 
     60 H60         4.2298   54.3950   21.0245 H         1 UNK         0.0000 
     61 H61         5.9563   54.9009   22.5232 H         1 UNK         0.0000 
     62 H62         5.9711   53.1763   22.5873 H         1 UNK         0.0000 
     63 H63         3.1311   53.9863   24.5028 H         1 UNK         0.0000 
     64 H64         3.0504   54.1623   26.9524 H         1 UNK         0.0000 
     65 H65         7.3159   54.4981   27.0782 H         1 UNK         0.0000 
     66 H66         7.4069   54.3293   24.6051 H         1 UNK         0.0000 
     67 H67         2.6427   49.8083   16.8822 H         1 UNK         0.0000 
@<TRIPOS>BOND
     1    1    2 1    
     2    1   36 1    
     3    1   37 1    
     4    1   38 1    
     5    2    3 1    
     6    3    8 ar   
     7    3    4 ar   
     8    4    5 ar   
     9    4   39 1    
    10    5    6 ar   
    11    5   40 1    
    12    6    7 ar   
    13    6   11 1    
    14    7    8 ar   
    15    7    9 1    
    16    8   41 1    
    17    9   10 1    
    18   10   42 1    
    19   10   43 1    
    20   10   44 1    
    21   11   12 2    
    22   11   13 am   BACKBONE|DICT|INTERRES
    23   13   18 1    
    24   13   14 1    
    25   14   15 1    
    26   14   45 1    
    27   14   46 1    
    28   15   16 1    
    29   15   17 1    
    30   15   24 1    
    31   17   23 1    
    32   17   18 1    
    33   17   19 1    
    34   18   47 1    
    35   18   48 1    
    36   19   20 1    
    37   19   49 1    
    38   19   50 1    
    39   20   21 1    
    40   20   51 1    
    41   20   52 1    
    42   21   22 1    
    43   21   53 1    
    44   21   67 1    
    45   22   23 1    
    46   22   54 1    
    47   22   55 1    
    48   23   56 1    
    49   23   57 1    
    50   24   25 2    
    51   24   26 am   BACKBONE|DICT|INTERRES
    52   26   27 1    
    53   26   58 1    
    54   27   28 1    
    55   27   59 1    
    56   27   60 1    
    57   28   29 1    
    58   28   61 1    
    59   28   62 1    
    60   29   34 ar   
    61   29   30 ar   
    62   30   31 ar   
    63   30   63 1    
    64   31   32 ar   
    65   31   64 1    
    66   32   33 ar   
    67   32   35 1    
    68   33   34 ar   
    69   33   65 1    
    70   34   66 1    
@<TRIPOS>SUBSTRUCTURE
     1 UNK         1 GROUP             0       ****    0 ROOT    
