@<TRIPOS>MOLECULE
ZINC05033447_3910
54   59    1
SMALL
USER_CHARGES


@<TRIPOS>ATOM
      1 C1          5.2712   54.5109   26.0743 C.ar      1 UNK         0.0000 
      2 C2          6.4705   55.1781   25.8932 C.ar      1 UNK         0.0000 
      3 C3          6.9922   55.4055   24.6219 C.ar      1 UNK         0.0000 
      4 C4          6.2786   54.8991   23.5328 C.ar      1 UNK         0.0000 
      5 C5          5.0175   54.2497   23.6787 C.ar      1 UNK         0.0000 
      6 C6          4.5242   54.0718   24.9817 C.ar      1 UNK         0.0000 
      7 C7          4.5198   53.9428   22.3522 C.ar      1 UNK         0.0000 
      8 C8          5.5036   54.3890   21.4883 C.ar      1 UNK         0.0000 
      9 N9          6.5483   54.9407   22.1850 N.pl3     1 UNK         0.0000 
     10 H10         7.3671   55.3238   21.7377 H         1 UNK         0.0000 
     11 C11         3.2545   53.3338   21.9570 C.2       1 UNK         0.0000 
     12 N12         2.4161   52.9497   22.8258 N.2       1 UNK         0.0000 
     13 N13         1.2619   52.4875   22.2960 N.am      1 UNK         0.0000 
     14 C14         0.2434   51.9443   23.0060 C.2       1 UNK         0.0000 
     15 O15        -0.7441   51.4797   22.4360 O.2       1 UNK         0.0000 
     16 C16         0.3261   51.9198   24.4519 C.ar      1 UNK         0.0000 
     17 C17         0.8591   52.8226   25.3608 C.ar      1 UNK         0.0000 
     18 C18         0.6298   52.3122   26.6482 C.ar      1 UNK         0.0000 
     19 N19        -0.1092   51.2245   26.5716 N.2       1 UNK         0.0000 
     20 N20        -0.3083   51.0170   25.2652 N.pl3     1 UNK         0.0000 
     21 H21        -0.8569   50.2369   24.9330 H         1 UNK         0.0000 
     22 C22         1.1004   52.8569   27.9990 C.3       1 UNK         0.0000 
     23 C23         2.0003   54.1165   27.8133 C.3       1 UNK         0.0000 
     24 C24         2.5080   54.6804   29.1596 C.3       1 UNK         0.0000 
     25 C25         1.2780   55.0839   30.0160 C.3       1 UNK         0.0000 
     26 C26         0.3864   53.8399   30.2604 C.3       1 UNK         0.0000 
     27 C27        -0.0957   53.2852   28.8949 C.3       1 UNK         0.0000 
     28 C28         1.2000   52.7430   30.9900 C.3       1 UNK         0.0000 
     29 C29         2.4313   52.3483   30.1323 C.3       1 UNK         0.0000 
     30 C30         3.3350   53.5769   29.8648 C.3       1 UNK         0.0000 
     31 C31         1.9268   51.7880   28.7778 C.3       1 UNK         0.0000 
     32 H32         4.9216   54.3433   27.0813 H         1 UNK         0.0000 
     33 H33         7.0007   55.5308   26.7669 H         1 UNK         0.0000 
     34 H34         7.9043   55.9631   24.4815 H         1 UNK         0.0000 
     35 H35         3.5963   53.5515   25.1382 H         1 UNK         0.0000 
     36 H36         5.5442   54.3593   20.4074 H         1 UNK         0.0000 
     37 H37         3.1196   53.2627   20.8782 H         1 UNK         0.0000 
     38 H38         1.2056   52.5203   21.2879 H         1 UNK         0.0000 
     39 H39         1.3829   53.7325   25.1167 H         1 UNK         0.0000 
     40 H40         1.4577   54.8968   27.2821 H         1 UNK         0.0000 
     41 H41         2.8435   53.8520   27.1865 H         1 UNK         0.0000 
     42 H42         3.1364   55.5547   28.9832 H         1 UNK         0.0000 
     43 H43         1.5817   55.5327   30.9586 H         1 UNK         0.0000 
     44 H44         0.7053   55.8581   29.5025 H         1 UNK         0.0000 
     45 H45        -0.4751   54.1211   30.8667 H         1 UNK         0.0000 
     46 H46        -0.7727   52.4443   29.0571 H         1 UNK         0.0000 
     47 H47        -0.6714   54.0476   28.3720 H         1 UNK         0.0000 
     48 H48         0.5647   51.8736   31.1666 H         1 UNK         0.0000 
     49 H49         1.5038   53.0803   31.9785 H         1 UNK         0.0000 
     50 H50         3.0155   51.5977   30.6574 H         1 UNK         0.0000 
     51 H51         3.7825   53.9383   30.7880 H         1 UNK         0.0000 
     52 H52         4.1836   53.2885   29.2415 H         1 UNK         0.0000 
     53 H53         2.7678   51.4595   28.1695 H         1 UNK         0.0000 
     54 H54         1.3216   50.8967   28.9504 H         1 UNK         0.0000 
@<TRIPOS>BOND
     1    1    6 ar   
     2    1    2 ar   
     3    1   32 1    
     4    2    3 ar   
     5    2   33 1    
     6    3    4 ar   
     7    3   34 1    
     8    4    9 ar   
     9    4    5 ar   
    10    5    6 ar   
    11    5    7 ar   
    12    6   35 1    
    13    7    8 ar   
    14    7   11 1    
    15    8    9 ar   
    16    8   36 1    
    17    9   10 1    
    18   11   12 2    
    19   11   37 1    
    20   12   13 1    
    21   13   14 am   BACKBONE|DICT|INTERRES
    22   13   38 1    
    23   14   15 2    
    24   14   16 1    
    25   16   20 ar   
    26   16   17 ar   
    27   17   18 ar   
    28   17   39 1    
    29   18   19 ar   
    30   18   22 1    
    31   19   20 ar   
    32   20   21 1    
    33   22   27 1    
    34   22   31 1    
    35   22   23 1    
    36   23   24 1    
    37   23   40 1    
    38   23   41 1    
    39   24   30 1    
    40   24   25 1    
    41   24   42 1    
    42   25   26 1    
    43   25   43 1    
    44   25   44 1    
    45   26   27 1    
    46   26   28 1    
    47   26   45 1    
    48   27   46 1    
    49   27   47 1    
    50   28   29 1    
    51   28   48 1    
    52   28   49 1    
    53   29   30 1    
    54   29   31 1    
    55   29   50 1    
    56   30   51 1    
    57   30   52 1    
    58   31   53 1    
    59   31   54 1    
@<TRIPOS>SUBSTRUCTURE
     1 UNK         1 GROUP             0       ****    0 ROOT    
