@<TRIPOS>MOLECULE
ZINC01921408_3315
43   46    1
SMALL
USER_CHARGES


@<TRIPOS>ATOM
      1 C1          3.7850   52.7915   28.9091 C.ar      1 UNK         0.0000 
      2 C2          2.8519   52.5591   29.9147 C.ar      1 UNK         0.0000 
      3 C3          1.7839   53.4374   30.0815 C.ar      1 UNK         0.0000 
      4 C4          1.6672   54.5782   29.2937 C.ar      1 UNK         0.0000 
      5 C5          2.6053   54.8197   28.2978 C.ar      1 UNK         0.0000 
      6 C6          3.6490   53.9120   28.0822 C.ar      1 UNK         0.0000 
      7 N7          4.5230   54.0967   26.9761 N.pl3     1 UNK         0.0000 
      8 C8          4.0117   54.0629   25.6767 C.ar      1 UNK         0.0000 
      9 C9          4.7640   54.4949   24.6312 C.ar      1 UNK         0.0000 
     10 C10         6.1047   54.9957   24.8924 C.ar      1 UNK         0.0000 
     11 O11         6.7040   55.4517   23.9241 O.2       1 UNK         0.0000 
     12 N12         6.5635   54.9156   26.1373 N.2       1 UNK         0.0000 
     13 C13         5.8532   54.4525   27.1730 C.ar      1 UNK         0.0000 
     14 O14         6.3044   54.3258   28.3088 O.2       1 UNK         0.0000 
     15 N15         2.8383   53.3675   25.4947 N.am      1 UNK         0.0000 
     16 C16         1.9059   53.4782   24.5297 C.2       1 UNK         0.0000 
     17 O17         1.8869   54.3655   23.6758 O.2       1 UNK         0.0000 
     18 C18         0.8293   52.3840   24.5797 C.3       1 UNK         0.0000 
     19 S19        -0.4413   52.4967   23.2811 S.3       1 UNK         0.0000 
     20 C20        -1.4165   51.0701   23.6133 C.2       1 UNK         0.0000 
     21 N21        -1.1450   50.1513   24.5016 N.2       1 UNK         0.0000 
     22 C22        -2.0885   49.1724   24.5174 C.ar      1 UNK         0.0000 
     23 C23        -2.0745   48.0473   25.3534 C.ar      1 UNK         0.0000 
     24 C24        -3.1304   47.1226   25.2828 C.ar      1 UNK         0.0000 
     25 C25        -4.1716   47.3332   24.3638 C.ar      1 UNK         0.0000 
     26 C26        -4.2015   48.4339   23.5099 C.ar      1 UNK         0.0000 
     27 C27        -3.1509   49.3514   23.5967 C.ar      1 UNK         0.0000 
     28 S28        -2.8817   50.8286   22.6921 S.3       1 UNK         0.0000 
     29 N29        -3.1460   45.9263   26.1639 N.pl3     1 UNK         0.0000 
     30 O30        -4.0998   45.1557   26.0818 O.co2     1 UNK         0.0000 
     31 O31        -2.1760   45.6987   26.8781 O.co2     1 UNK         0.0000 
     32 Cl32        0.5934   53.1135   31.2815 Cl        1 UNK         0.0000 
     33 H33         4.5988   52.0975   28.7555 H         1 UNK         0.0000 
     34 H34         2.9453   51.6965   30.5544 H         1 UNK         0.0000 
     35 H35         0.8473   55.2652   29.4444 H         1 UNK         0.0000 
     36 H36         2.5033   55.6967   27.6807 H         1 UNK         0.0000 
     37 H37         4.4371   54.4087   23.6058 H         1 UNK         0.0000 
     38 H38         2.6859   52.6454   26.1816 H         1 UNK         0.0000 
     39 H39         1.3243   51.4176   24.4851 H         1 UNK         0.0000 
     40 H40         0.3373   52.4095   25.5520 H         1 UNK         0.0000 
     41 H41        -1.2802   47.9175   26.0810 H         1 UNK         0.0000 
     42 H42        -4.9890   46.6272   24.3081 H         1 UNK         0.0000 
     43 H43        -5.0141   48.5775   22.8113 H         1 UNK         0.0000 
@<TRIPOS>BOND
     1    1    6 ar   
     2    1    2 ar   
     3    1   33 1    
     4    2    3 ar   
     5    2   34 1    
     6    3    4 ar   
     7    3   32 1    
     8    4    5 ar   
     9    4   35 1    
    10    5    6 ar   
    11    5   36 1    
    12    6    7 1    
    13    7   13 ar   
    14    7    8 ar   
    15    8    9 ar   
    16    8   15 1    
    17    9   10 ar   
    18    9   37 1    
    19   10   11 2    
    20   10   12 ar   
    21   12   13 ar   
    22   13   14 2    
    23   15   16 am   BACKBONE|DICT|INTERRES
    24   15   38 1    
    25   16   17 2    
    26   16   18 1    
    27   18   19 1    
    28   18   39 1    
    29   18   40 1    
    30   19   20 1    
    31   20   28 1    
    32   20   21 2    
    33   21   22 1    
    34   22   27 ar   
    35   22   23 ar   
    36   23   24 ar   
    37   23   41 1    
    38   24   25 ar   
    39   24   29 1    
    40   25   26 ar   
    41   25   42 1    
    42   26   27 ar   
    43   26   43 1    
    44   27   28 1    
    45   29   30 2    
    46   29   31 1    
@<TRIPOS>SUBSTRUCTURE
     1 UNK         1 GROUP             0       ****    0 ROOT    
