@<TRIPOS>MOLECULE
ZINC36395877_1626
34   35    1
SMALL
USER_CHARGES


@<TRIPOS>ATOM
      1 C1          7.1048   54.4895   24.5862 C.3       1 UNK         0.0000 
      2 C2          6.1033   54.3091   25.7084 C.ar      1 UNK         0.0000 
      3 C3          6.4824   53.6975   26.9056 C.ar      1 UNK         0.0000 
      4 C4          5.5313   53.4625   27.8972 C.ar      1 UNK         0.0000 
      5 C5          4.1997   53.8347   27.6958 C.ar      1 UNK         0.0000 
      6 C6          3.8437   54.4967   26.5130 C.ar      1 UNK         0.0000 
      7 C7          4.7877   54.7226   25.5205 C.ar      1 UNK         0.0000 
      8 S8          3.0039   53.4729   29.0054 S.o2      1 UNK         0.0000 
      9 O9          3.1596   52.0376   29.2758 O.2       1 UNK         0.0000 
     10 O10         3.3761   54.3962   30.0811 O.2       1 UNK         0.0000 
     11 N11         1.6448   53.8588   28.3239 N.2       1 UNK         0.0000 
     12 C12         0.8169   52.8706   27.8614 C.ar      1 UNK         0.0000 
     13 C13         0.8117   52.5246   26.5009 C.ar      1 UNK         0.0000 
     14 C14        -0.0923   51.5909   25.9868 C.ar      1 UNK         0.0000 
     15 C15        -0.9946   50.9669   26.8480 C.ar      1 UNK         0.0000 
     16 C16        -1.0034   51.2969   28.2007 C.ar      1 UNK         0.0000 
     17 C17        -0.1058   52.2337   28.7075 C.ar      1 UNK         0.0000 
     18 F18        -0.1616   52.5369   30.0280 F         1 UNK         0.0000 
     19 S19        -0.1422   51.2531   24.2269 S.o2      1 UNK         0.0000 
     20 O20        -0.8761   50.0019   24.0204 O.2       1 UNK         0.0000 
     21 O21        -0.5655   52.4975   23.5773 O.2       1 UNK         0.0000 
     22 N22         1.5040   50.9666   23.7387 N.pl3     1 UNK         0.0000 
     23 H23         7.5689   53.5333   24.3426 H         1 UNK         0.0000 
     24 H24         7.9042   55.1671   24.8822 H         1 UNK         0.0000 
     25 H25         6.6455   54.8736   23.6752 H         1 UNK         0.0000 
     26 H26         7.5021   53.3764   27.0595 H         1 UNK         0.0000 
     27 H27         5.8214   52.9695   28.8135 H         1 UNK         0.0000 
     28 H28         2.8342   54.8306   26.3406 H         1 UNK         0.0000 
     29 H29         4.4881   55.2049   24.6018 H         1 UNK         0.0000 
     30 H30         1.4950   53.0148   25.8241 H         1 UNK         0.0000 
     31 H31        -1.6972   50.2319   26.4806 H         1 UNK         0.0000 
     32 H32        -1.7092   50.8191   28.8643 H         1 UNK         0.0000 
     33 H33         1.7484   49.9743   23.6854 H         1 UNK         0.0000 
     34 H34         1.7726   51.4936   22.9055 H         1 UNK         0.0000 
@<TRIPOS>BOND
     1    1    2 1    
     2    1   23 1    
     3    1   24 1    
     4    1   25 1    
     5    2    7 ar   
     6    2    3 ar   
     7    3    4 ar   
     8    3   26 1    
     9    4    5 ar   
    10    4   27 1    
    11    5    6 ar   
    12    5    8 1    
    13    6    7 ar   
    14    6   28 1    
    15    7   29 1    
    16    8    9 2    
    17    8   10 2    
    18    8   11 1    
    19   11   12 1    
    20   12   17 ar   
    21   12   13 ar   
    22   13   14 ar   
    23   13   30 1    
    24   14   15 ar   
    25   14   19 1    
    26   15   16 ar   
    27   15   31 1    
    28   16   17 ar   
    29   16   32 1    
    30   17   18 1    
    31   19   20 2    
    32   19   21 2    
    33   19   22 1    
    34   22   33 1    
    35   22   34 1    
@<TRIPOS>SUBSTRUCTURE
     1 UNK         1 GROUP             0       ****    0 ROOT    
