@<TRIPOS>MOLECULE
ZINC16044748_2095
54   56    1
SMALL
USER_CHARGES


@<TRIPOS>ATOM
      1 C1          0.7038   54.1430   30.5739 C.3       1 UNK         0.0000 
      2 C2          1.6261   54.8128   29.5316 C.3       1 UNK         0.0000 
      3 H3          1.6368   55.8851   29.7360 H         1 UNK         0.0000 
      4 C4          3.1013   54.3358   29.5362 C.3       1 UNK         0.0000 
      5 C5          3.1907   52.8436   29.1591 C.3       1 UNK         0.0000 
      6 H6          2.5265   52.2555   29.7938 H         1 UNK         0.0000 
      7 C7          2.7065   52.7331   27.7060 C.3       1 UNK         0.0000 
      8 N8          1.3284   53.2412   27.6014 N.pl3     1 UNK         0.0000 
      9 C9          1.0868   54.6187   28.1014 C.3       1 UNK         0.0000 
     10 S10         0.0474   52.1635   27.0276 S.o2      1 UNK         0.0000 
     11 O11        -1.2324   52.8777   27.0340 O.2       1 UNK         0.0000 
     12 O12         0.2048   50.8967   27.7436 O.2       1 UNK         0.0000 
     13 C13         0.4390   51.8500   25.3120 C.ar      1 UNK         0.0000 
     14 C14         0.3223   50.5565   24.8035 C.ar      1 UNK         0.0000 
     15 C15         0.6413   50.3098   23.4717 C.ar      1 UNK         0.0000 
     16 C16         1.0608   51.3526   22.6335 C.ar      1 UNK         0.0000 
     17 C17         1.1770   52.6489   23.1610 C.ar      1 UNK         0.0000 
     18 C18         0.8650   52.8962   24.4934 C.ar      1 UNK         0.0000 
     19 C19         1.3652   51.0613   21.1819 C.2       1 UNK         0.0000 
     20 O20         1.7085   49.9268   20.8352 O.2       1 UNK         0.0000 
     21 N21         1.1840   52.0970   20.3331 N.am      1 UNK         0.0000 
     22 N22         1.4335   51.8931   18.9795 N.am      1 UNK         0.0000 
     23 C23         0.4262   52.1519   18.1142 C.2       1 UNK         0.0000 
     24 O24        -0.7112   52.4963   18.4604 O.2       1 UNK         0.0000 
     25 C25         0.7647   52.0120   16.6444 C.ar      1 UNK         0.0000 
     26 C26         1.9210   51.3374   16.2177 C.ar      1 UNK         0.0000 
     27 C27         2.2103   51.2129   14.8627 C.ar      1 UNK         0.0000 
     28 C28         1.3469   51.7596   13.9180 C.ar      1 UNK         0.0000 
     29 C29         0.1955   52.4305   14.3207 C.ar      1 UNK         0.0000 
     30 C30        -0.0950   52.5546   15.6773 C.ar      1 UNK         0.0000 
     31 Br31        1.7415   51.5868   12.0642 Br        1 UNK         0.0000 
     32 C32         4.5998   52.2819   29.3294 C.3       1 UNK         0.0000 
     33 H33         0.5345   53.0859   30.3669 H         1 UNK         0.0000 
     34 H34         1.1023   54.2211   31.5828 H         1 UNK         0.0000 
     35 H35        -0.2759   54.6202   30.5816 H         1 UNK         0.0000 
     36 H36         3.5553   54.4659   30.5057 H         1 UNK         0.0000 
     37 H37         3.7278   54.9364   28.8733 H         1 UNK         0.0000 
     38 H38         2.7042   51.6967   27.3829 H         1 UNK         0.0000 
     39 H39         3.3316   53.2922   27.0080 H         1 UNK         0.0000 
     40 H40         1.5829   55.2964   27.4152 H         1 UNK         0.0000 
     41 H41         0.0170   54.8182   28.0817 H         1 UNK         0.0000 
     42 H42        -0.0044   49.7430   25.4376 H         1 UNK         0.0000 
     43 H43         0.5512   49.2997   23.0957 H         1 UNK         0.0000 
     44 H44         1.5071   53.4787   22.5521 H         1 UNK         0.0000 
     45 H45         0.9598   53.8992   24.8821 H         1 UNK         0.0000 
     46 H46         1.3603   53.0540   20.6069 H         1 UNK         0.0000 
     47 H47         2.3969   52.0773   18.7368 H         1 UNK         0.0000 
     48 H48         2.6178   50.8967   16.9185 H         1 UNK         0.0000 
     49 H49         3.1035   50.6867   14.5562 H         1 UNK         0.0000 
     50 H50        -0.4710   52.8524   13.5830 H         1 UNK         0.0000 
     51 H51        -0.9952   53.0775   15.9691 H         1 UNK         0.0000 
     52 H52         5.3638   52.9208   28.8840 H         1 UNK         0.0000 
     53 H53         4.8235   52.1353   30.3853 H         1 UNK         0.0000 
     54 H54         4.6838   51.2983   28.8819 H         1 UNK         0.0000 
@<TRIPOS>BOND
     1    1    2 1    
     2    1   33 1    
     3    1   34 1    
     4    1   35 1    
     5    2    3 1    
     6    2    9 1    
     7    2    4 1    
     8    4    5 1    
     9    4   36 1    
    10    4   37 1    
    11    5    6 1    
    12    5    7 1    
    13    5   32 1    
    14    7    8 1    
    15    7   38 1    
    16    7   39 1    
    17    8    9 1    
    18    8   10 1    
    19    9   40 1    
    20    9   41 1    
    21   10   11 2    
    22   10   12 2    
    23   10   13 1    
    24   13   18 ar   
    25   13   14 ar   
    26   14   15 ar   
    27   14   42 1    
    28   15   16 ar   
    29   15   43 1    
    30   16   17 ar   
    31   16   19 1    
    32   17   18 ar   
    33   17   44 1    
    34   18   45 1    
    35   19   20 2    
    36   19   21 am   BACKBONE|DICT|INTERRES
    37   21   22 1    
    38   21   46 1    
    39   22   23 am   BACKBONE|DICT|INTERRES
    40   22   47 1    
    41   23   24 2    
    42   23   25 1    
    43   25   30 ar   
    44   25   26 ar   
    45   26   27 ar   
    46   26   48 1    
    47   27   28 ar   
    48   27   49 1    
    49   28   29 ar   
    50   28   31 1    
    51   29   30 ar   
    52   29   50 1    
    53   30   51 1    
    54   32   52 1    
    55   32   53 1    
    56   32   54 1    
@<TRIPOS>SUBSTRUCTURE
     1 UNK         1 GROUP             0       ****    0 ROOT    
