@<TRIPOS>MOLECULE
ZINC02962919_5203
64   68    1
SMALL
USER_CHARGES


@<TRIPOS>ATOM
      1 C1         -2.4064   50.2908   18.3019 C.3       1 UNK         0.0000 
      2 C2         -2.1970   50.3689   19.8027 C.ar      1 UNK         0.0000 
      3 C3         -3.2994   50.4337   20.6588 C.ar      1 UNK         0.0000 
      4 C4         -3.1080   50.4969   22.0369 C.ar      1 UNK         0.0000 
      5 C5         -1.8093   50.4845   22.5551 C.ar      1 UNK         0.0000 
      6 C6         -0.7044   50.4106   21.7003 C.ar      1 UNK         0.0000 
      7 C7         -0.9005   50.3523   20.3233 C.ar      1 UNK         0.0000 
      8 N8         -1.6011   50.6003   23.9529 N.pl3     1 UNK         0.0000 
      9 C9         -1.3879   49.4761   24.7459 C.2       1 UNK         0.0000 
     10 S10        -1.3039   47.8794   24.2497 S.2       1 UNK         0.0000 
     11 N11        -1.2360   49.6967   26.0817 N.pl3     1 UNK         0.0000 
     12 C12        -1.5375   50.9456   26.7909 C.3       1 UNK         0.0000 
     13 H13        -1.0280   50.9169   27.7553 H         1 UNK         0.0000 
     14 C14        -3.0281   51.1649   26.9951 C.ar      1 UNK         0.0000 
     15 C15        -3.6957   50.7858   28.1636 C.ar      1 UNK         0.0000 
     16 C16        -5.0624   51.0192   28.3321 C.ar      1 UNK         0.0000 
     17 C17        -5.7765   51.6326   27.2899 C.ar      1 UNK         0.0000 
     18 C18        -5.1295   52.0090   26.1139 C.ar      1 UNK         0.0000 
     19 C19        -3.7635   51.7830   25.9669 C.ar      1 UNK         0.0000 
     20 O20        -3.2020   52.2259   24.7727 O.3       1 UNK         0.0000 
     21 C21        -1.8242   51.9521   24.5420 C.3       1 UNK         0.0000 
     22 C22        -1.0450   52.1030   25.8971 C.3       1 UNK         0.0000 
     23 H23        -1.3432   53.0540   26.3395 H         1 UNK         0.0000 
     24 C24         0.5040   52.1926   25.8065 C.2       1 UNK         0.0000 
     25 O25         1.1044   51.6530   24.8795 O.2       1 UNK         0.0000 
     26 N26         1.1020   52.9226   26.7718 N.am      1 UNK         0.0000 
     27 C27         2.4550   53.2907   26.8655 C.ar      1 UNK         0.0000 
     28 C28         3.0567   53.0758   28.1098 C.ar      1 UNK         0.0000 
     29 C29         4.3907   53.4171   28.3231 C.ar      1 UNK         0.0000 
     30 C30         5.1381   53.9967   27.2989 C.ar      1 UNK         0.0000 
     31 C31         4.5384   54.2364   26.0608 C.ar      1 UNK         0.0000 
     32 C32         3.2001   53.8965   25.8271 C.ar      1 UNK         0.0000 
     33 C33         2.6059   54.2515   24.4681 C.3       1 UNK         0.0000 
     34 C34         6.5965   54.3508   27.5216 C.3       1 UNK         0.0000 
     35 C35        -1.3897   53.0643   23.5614 C.3       1 UNK         0.0000 
     36 O36        -5.6152   50.6331   29.5369 O.3       1 UNK         0.0000 
     37 C37        -7.0108   50.8047   29.7501 C.3       1 UNK         0.0000 
     38 H38        -3.3568   49.8117   18.0601 H         1 UNK         0.0000 
     39 H39        -2.3918   51.2874   17.8585 H         1 UNK         0.0000 
     40 H40        -1.6262   49.6891   17.8322 H         1 UNK         0.0000 
     41 H41        -4.3035   50.4377   20.2600 H         1 UNK         0.0000 
     42 H42        -3.9603   50.5569   22.6996 H         1 UNK         0.0000 
     43 H43         0.2988   50.4076   22.1057 H         1 UNK         0.0000 
     44 H44        -0.0446   50.2951   19.6656 H         1 UNK         0.0000 
     45 H45        -1.1869   48.8542   26.6510 H         1 UNK         0.0000 
     46 H46        -3.1429   50.2973   28.9561 H         1 UNK         0.0000 
     47 H47        -6.8344   51.8261   27.3766 H         1 UNK         0.0000 
     48 H48        -5.6856   52.4820   25.3180 H         1 UNK         0.0000 
     49 H49         0.5431   53.1392   27.5812 H         1 UNK         0.0000 
     50 H50         2.4985   52.6236   28.9163 H         1 UNK         0.0000 
     51 H51         4.8437   53.2236   29.2836 H         1 UNK         0.0000 
     52 H52         5.1182   54.6920   25.2712 H         1 UNK         0.0000 
     53 H53         2.7288   53.4234   23.7694 H         1 UNK         0.0000 
     54 H54         1.5460   54.4962   24.5385 H         1 UNK         0.0000 
     55 H55         3.0903   55.1320   24.0443 H         1 UNK         0.0000 
     56 H56         7.0169   53.8205   28.3767 H         1 UNK         0.0000 
     57 H57         6.7044   55.4226   27.6806 H         1 UNK         0.0000 
     58 H58         7.1905   54.0719   26.6512 H         1 UNK         0.0000 
     59 H59        -0.3944   52.8754   23.1576 H         1 UNK         0.0000 
     60 H60        -2.0957   53.1406   22.7335 H         1 UNK         0.0000 
     61 H61        -1.3684   54.0255   24.0684 H         1 UNK         0.0000 
     62 H62        -7.2699   50.4334   30.7411 H         1 UNK         0.0000 
     63 H63        -7.2962   51.8569   29.7074 H         1 UNK         0.0000 
     64 H64        -7.5988   50.2425   29.0237 H         1 UNK         0.0000 
@<TRIPOS>BOND
     1    1    2 1    
     2    1   38 1    
     3    1   39 1    
     4    1   40 1    
     5    2    7 ar   
     6    2    3 ar   
     7    3    4 ar   
     8    3   41 1    
     9    4    5 ar   
    10    4   42 1    
    11    5    6 ar   
    12    5    8 1    
    13    6    7 ar   
    14    6   43 1    
    15    7   44 1    
    16    8   21 1    
    17    8    9 1    
    18    9   10 2    
    19    9   11 1    
    20   11   12 1    
    21   11   45 1    
    22   12   13 1    
    23   12   22 1    
    24   12   14 1    
    25   14   19 ar   
    26   14   15 ar   
    27   15   16 ar   
    28   15   46 1    
    29   16   17 ar   
    30   16   36 1    
    31   17   18 ar   
    32   17   47 1    
    33   18   19 ar   
    34   18   48 1    
    35   19   20 1    
    36   20   21 1    
    37   21   22 1    
    38   21   35 1    
    39   22   23 1    
    40   22   24 1    
    41   24   25 2    
    42   24   26 am   BACKBONE|DICT|INTERRES
    43   26   27 1    
    44   26   49 1    
    45   27   32 ar   
    46   27   28 ar   
    47   28   29 ar   
    48   28   50 1    
    49   29   30 ar   
    50   29   51 1    
    51   30   31 ar   
    52   30   34 1    
    53   31   32 ar   
    54   31   52 1    
    55   32   33 1    
    56   33   53 1    
    57   33   54 1    
    58   33   55 1    
    59   34   56 1    
    60   34   57 1    
    61   34   58 1    
    62   35   59 1    
    63   35   60 1    
    64   35   61 1    
    65   36   37 1    
    66   37   62 1    
    67   37   63 1    
    68   37   64 1    
@<TRIPOS>SUBSTRUCTURE
     1 UNK         1 GROUP             0       ****    0 ROOT    
