@<TRIPOS>MOLECULE
ZINC35685008_2742
48   51    1
SMALL
USER_CHARGES


@<TRIPOS>ATOM
      1 C1          6.6867   54.2083   27.1906 C.3       1 UNK         0.0000 
      2 C2          5.2126   54.0411   26.8860 C.ar      1 UNK         0.0000 
      3 C3          4.5135   54.1011   25.6484 C.ar      1 UNK         0.0000 
      4 N4          3.2290   53.8559   25.8245 N.2       1 UNK         0.0000 
      5 N5          3.0708   53.4674   27.0919 N.pl3     1 UNK         0.0000 
      6 C6          4.2457   53.6021   27.7792 C.ar      1 UNK         0.0000 
      7 N7          4.2979   53.2399   29.1078 N.am      1 UNK         0.0000 
      8 C8          3.3866   52.4955   29.7628 C.2       1 UNK         0.0000 
      9 O9          3.5692   52.1193   30.9161 O.2       1 UNK         0.0000 
     10 C10         2.1386   52.1013   28.9288 C.3       1 UNK         0.0000 
     11 C11         1.7983   53.0621   27.7281 C.3       1 UNK         0.0000 
     12 H12         1.3209   53.9571   28.1298 H         1 UNK         0.0000 
     13 C13         0.7257   52.3992   26.8139 C.2       1 UNK         0.0000 
     14 O14         0.9372   52.2496   25.6107 O.2       1 UNK         0.0000 
     15 N15        -0.4225   52.0236   27.4228 N.am      1 UNK         0.0000 
     16 C16        -1.5480   51.3672   26.8842 C.ar      1 UNK         0.0000 
     17 C17        -2.6737   51.2969   27.7086 C.ar      1 UNK         0.0000 
     18 C18        -3.8340   50.6616   27.2720 C.ar      1 UNK         0.0000 
     19 C19        -3.8751   50.0795   26.0072 C.ar      1 UNK         0.0000 
     20 C20        -2.7595   50.1089   25.1699 C.ar      1 UNK         0.0000 
     21 C21        -1.5964   50.7593   25.6164 C.ar      1 UNK         0.0000 
     22 O22        -2.8944   49.4779   23.9464 O.3       1 UNK         0.0000 
     23 C23        -1.7762   49.3473   23.0684 C.3       1 UNK         0.0000 
     24 F24        -1.3518   50.5365   22.6347 F         1 UNK         0.0000 
     25 F25        -0.7790   48.6629   23.6323 F         1 UNK         0.0000 
     26 F26        -2.1841   48.6544   22.0061 F         1 UNK         0.0000 
     27 C27         5.0125   54.3870   24.2503 C.ar      1 UNK         0.0000 
     28 C28         6.2777   54.9402   24.0130 C.ar      1 UNK         0.0000 
     29 C29         6.7053   55.1970   22.7119 C.ar      1 UNK         0.0000 
     30 C30         5.8839   54.8940   21.6328 C.ar      1 UNK         0.0000 
     31 C31         4.6299   54.3335   21.8433 C.ar      1 UNK         0.0000 
     32 C32         4.1959   54.0894   23.1435 C.ar      1 UNK         0.0000 
     33 F33         6.3052   55.1527   20.3752 F         1 UNK         0.0000 
     34 H34         7.3046   53.7563   26.4175 H         1 UNK         0.0000 
     35 H35         6.9706   55.2577   27.2660 H         1 UNK         0.0000 
     36 H36         6.9786   53.7121   28.1170 H         1 UNK         0.0000 
     37 H37         5.1124   53.4648   29.6581 H         1 UNK         0.0000 
     38 H38         2.3018   51.0810   28.5769 H         1 UNK         0.0000 
     39 H39         1.3165   52.0939   29.6461 H         1 UNK         0.0000 
     40 H40        -0.4978   52.2244   28.4075 H         1 UNK         0.0000 
     41 H41        -2.6520   51.6972   28.7104 H         1 UNK         0.0000 
     42 H42        -4.6938   50.6008   27.9225 H         1 UNK         0.0000 
     43 H43        -4.7744   49.5787   25.6800 H         1 UNK         0.0000 
     44 H44        -0.7286   50.7624   24.9816 H         1 UNK         0.0000 
     45 H45         6.9342   55.2115   24.8212 H         1 UNK         0.0000 
     46 H46         7.6763   55.6358   22.5339 H         1 UNK         0.0000 
     47 H47         3.9918   54.1014   21.0024 H         1 UNK         0.0000 
     48 H48         3.2153   53.6562   23.2796 H         1 UNK         0.0000 
@<TRIPOS>BOND
     1    1    2 1    
     2    1   34 1    
     3    1   35 1    
     4    1   36 1    
     5    2    6 ar   
     6    2    3 ar   
     7    3    4 ar   
     8    3   27 1    
     9    4    5 ar   
    10    5   11 1    
    11    5    6 ar   
    12    6    7 1    
    13    7    8 am   BACKBONE|DICT|INTERRES
    14    7   37 1    
    15    8    9 2    
    16    8   10 1    
    17   10   11 1    
    18   10   38 1    
    19   10   39 1    
    20   11   12 1    
    21   11   13 1    
    22   13   14 2    
    23   13   15 am   BACKBONE|DICT|INTERRES
    24   15   16 1    
    25   15   40 1    
    26   16   21 ar   
    27   16   17 ar   
    28   17   18 ar   
    29   17   41 1    
    30   18   19 ar   
    31   18   42 1    
    32   19   20 ar   
    33   19   43 1    
    34   20   21 ar   
    35   20   22 1    
    36   21   44 1    
    37   22   23 1    
    38   23   24 1    
    39   23   25 1    
    40   23   26 1    
    41   27   32 ar   
    42   27   28 ar   
    43   28   29 ar   
    44   28   45 1    
    45   29   30 ar   
    46   29   46 1    
    47   30   31 ar   
    48   30   33 1    
    49   31   32 ar   
    50   31   47 1    
    51   32   48 1    
@<TRIPOS>SUBSTRUCTURE
     1 UNK         1 GROUP             0       ****    0 ROOT    
