@<TRIPOS>MOLECULE
ZINC61671015_1769
38   39    1
SMALL
USER_CHARGES


@<TRIPOS>ATOM
      1 C1         -1.8469   50.7835   26.6218 C.3       1 UNK         0.0000 
      2 C2         -0.9171   51.5523   27.5531 C.ar      1 UNK         0.0000 
      3 C3         -1.2934   51.6961   28.8878 C.ar      1 UNK         0.0000 
      4 C4         -0.4954   52.3946   29.7810 C.ar      1 UNK         0.0000 
      5 C5          0.6944   52.9676   29.3496 C.ar      1 UNK         0.0000 
      6 C6          1.1263   52.7928   28.0158 C.ar      1 UNK         0.0000 
      7 C7          0.2990   52.0973   27.1040 C.ar      1 UNK         0.0000 
      8 C8          0.7069   51.8921   25.6393 C.3       1 UNK         0.0000 
      9 N9          2.3551   53.2988   27.5393 N.am      1 UNK         0.0000 
     10 C10         3.5803   53.1185   28.0792 C.2       1 UNK         0.0000 
     11 O11         3.7708   52.6247   29.1940 O.2       1 UNK         0.0000 
     12 C12         4.8000   53.4858   27.2012 C.3       1 UNK         0.0000 
     13 C13         4.4635   54.3333   25.9446 C.3       1 UNK         0.0000 
     14 C14         5.7604   54.6345   25.1644 C.3       1 UNK         0.0000 
     15 O15         6.7389   55.2349   26.0140 O.3       1 UNK         0.0000 
     16 C16         7.1038   54.4405   27.1431 C.3       1 UNK         0.0000 
     17 C17         5.8880   54.1842   28.0473 C.3       1 UNK         0.0000 
     18 N18         1.4272   53.6992   30.2774 N.pl3     1 UNK         0.0000 
     19 H19        -2.0551   51.3617   25.7214 H         1 UNK         0.0000 
     20 H20        -1.3853   49.8414   26.3206 H         1 UNK         0.0000 
     21 H21        -2.8044   50.5544   27.0942 H         1 UNK         0.0000 
     22 H22        -2.2059   51.2420   29.2462 H         1 UNK         0.0000 
     23 H23        -0.8139   52.4878   30.8098 H         1 UNK         0.0000 
     24 H24         0.5541   50.8525   25.3485 H         1 UNK         0.0000 
     25 H25         0.0896   52.5109   24.9873 H         1 UNK         0.0000 
     26 H26         1.7546   52.1005   25.4319 H         1 UNK         0.0000 
     27 H27         2.3347   53.6524   26.5965 H         1 UNK         0.0000 
     28 H28         5.1920   52.5034   26.9310 H         1 UNK         0.0000 
     29 H29         4.0385   55.2994   26.2213 H         1 UNK         0.0000 
     30 H30         3.8153   53.7944   25.2513 H         1 UNK         0.0000 
     31 H31         5.5613   55.2953   24.3206 H         1 UNK         0.0000 
     32 H32         6.1589   53.7057   24.7502 H         1 UNK         0.0000 
     33 H33         7.9040   54.9379   27.6819 H         1 UNK         0.0000 
     34 H34         7.5044   53.4823   26.8093 H         1 UNK         0.0000 
     35 H35         6.2387   53.5615   28.8726 H         1 UNK         0.0000 
     36 H36         5.5623   55.1639   28.4004 H         1 UNK         0.0000 
     37 H37         1.1044   53.6080   31.2287 H         1 UNK         0.0000 
     38 H38         2.4205   53.5795   30.0909 H         1 UNK         0.0000 
@<TRIPOS>BOND
     1    1    2 1    
     2    1   19 1    
     3    1   20 1    
     4    1   21 1    
     5    2    7 ar   
     6    2    3 ar   
     7    3    4 ar   
     8    3   22 1    
     9    4    5 ar   
    10    4   23 1    
    11    5    6 ar   
    12    5   18 1    
    13    6    7 ar   
    14    6    9 1    
    15    7    8 1    
    16    8   24 1    
    17    8   25 1    
    18    8   26 1    
    19    9   10 am   BACKBONE|DICT|INTERRES
    20    9   27 1    
    21   10   11 2    
    22   10   12 1    
    23   12   17 1    
    24   12   13 1    
    25   12   28 1    
    26   13   14 1    
    27   13   29 1    
    28   13   30 1    
    29   14   15 1    
    30   14   31 1    
    31   14   32 1    
    32   15   16 1    
    33   16   17 1    
    34   16   33 1    
    35   16   34 1    
    36   17   35 1    
    37   17   36 1    
    38   18   37 1    
    39   18   38 1    
@<TRIPOS>SUBSTRUCTURE
     1 UNK         1 GROUP             0       ****    0 ROOT    
