@<TRIPOS>MOLECULE
ZINC10279251_2999
57   59    1
SMALL
USER_CHARGES


@<TRIPOS>ATOM
      1 C1          6.2060   55.3139   18.5681 C.3       1 UNK         0.0000 
      2 C2          5.9891   55.0183   20.0384 C.ar      1 UNK         0.0000 
      3 C3          6.9387   55.4051   20.9845 C.ar      1 UNK         0.0000 
      4 C4          6.7271   55.1421   22.3370 C.ar      1 UNK         0.0000 
      5 C5          5.5578   54.4946   22.7731 C.ar      1 UNK         0.0000 
      6 C6          4.6039   54.1032   21.8121 C.ar      1 UNK         0.0000 
      7 C7          4.8291   54.3651   20.4578 C.ar      1 UNK         0.0000 
      8 C8          3.2926   53.4340   22.2030 C.3       1 UNK         0.0000 
      9 N9          5.2764   54.2222   24.1342 N.am      1 UNK         0.0000 
     10 C10         5.9297   54.6101   25.2508 C.2       1 UNK         0.0000 
     11 O11         6.9372   55.3209   25.2696 O.2       1 UNK         0.0000 
     12 N12         5.3344   54.1106   26.3571 N.am      1 UNK         0.0000 
     13 C13         5.9046   53.9523   27.5761 C.2       1 UNK         0.0000 
     14 O14         7.1052   54.0956   27.8020 O.2       1 UNK         0.0000 
     15 C15         5.0071   53.5650   28.7639 C.3       1 UNK         0.0000 
     16 O16         3.6891   53.2319   28.3328 O.3       1 UNK         0.0000 
     17 C17         2.7269   52.8684   29.2169 C.2       1 UNK         0.0000 
     18 O18         2.8953   52.8425   30.4392 O.2       1 UNK         0.0000 
     19 C19         1.4412   52.4909   28.5496 C.ar      1 UNK         0.0000 
     20 C20         0.3400   52.0953   29.3262 C.ar      1 UNK         0.0000 
     21 C21        -0.8516   51.6969   28.7182 C.ar      1 UNK         0.0000 
     22 C22        -0.9665   51.7066   27.3280 C.ar      1 UNK         0.0000 
     23 C23         0.1104   52.1204   26.5428 C.ar      1 UNK         0.0000 
     24 C24         1.3046   52.5054   27.1503 C.ar      1 UNK         0.0000 
     25 S25        -0.0270   52.1906   24.7601 S.o2      1 UNK         0.0000 
     26 O26        -1.4523   52.2479   24.4093 O.2       1 UNK         0.0000 
     27 O27         0.9057   53.2230   24.2941 O.2       1 UNK         0.0000 
     28 N28         0.6132   50.6556   24.1656 N.pl3     1 UNK         0.0000 
     29 C29        -0.1645   49.4979   24.1182 C.ar      1 UNK         0.0000 
     30 C30        -0.6125   48.8963   25.2952 C.ar      1 UNK         0.0000 
     31 C31        -1.4084   47.7557   25.2352 C.ar      1 UNK         0.0000 
     32 C32        -1.7467   47.2133   23.9993 C.ar      1 UNK         0.0000 
     33 C33        -1.2970   47.8024   22.8200 C.ar      1 UNK         0.0000 
     34 C34        -0.4985   48.9445   22.8812 C.ar      1 UNK         0.0000 
     35 F35        -2.5084   46.0982   23.9415 F         1 UNK         0.0000 
     36 H36         6.6489   54.4551   18.0632 H         1 UNK         0.0000 
     37 H37         6.8546   56.1814   18.4291 H         1 UNK         0.0000 
     38 H38         5.2576   55.5465   18.0788 H         1 UNK         0.0000 
     39 H39         7.8470   55.9003   20.6751 H         1 UNK         0.0000 
     40 H40         7.5033   55.4540   23.0215 H         1 UNK         0.0000 
     41 H41         4.0915   54.0755   19.7224 H         1 UNK         0.0000 
     42 H42         2.7201   54.1021   22.8446 H         1 UNK         0.0000 
     43 H43         2.6769   53.1922   21.3354 H         1 UNK         0.0000 
     44 H44         3.4745   52.5123   22.7535 H         1 UNK         0.0000 
     45 H45         4.4469   53.6650   24.2652 H         1 UNK         0.0000 
     46 H46         4.3838   53.7880   26.2679 H         1 UNK         0.0000 
     47 H47         5.4616   52.7193   29.2812 H         1 UNK         0.0000 
     48 H48         4.9701   54.4147   29.4479 H         1 UNK         0.0000 
     49 H49         0.3974   52.0722   30.4071 H         1 UNK         0.0000 
     50 H50        -1.6808   51.3639   29.3263 H         1 UNK         0.0000 
     51 H51        -1.8932   51.3885   26.8690 H         1 UNK         0.0000 
     52 H52         2.1257   52.8116   26.5175 H         1 UNK         0.0000 
     53 H53         1.5325   50.6427   23.7530 H         1 UNK         0.0000 
     54 H54        -0.3487   49.2920   26.2659 H         1 UNK         0.0000 
     55 H55        -1.7476   47.2964   26.1538 H         1 UNK         0.0000 
     56 H56        -1.5592   47.3736   21.8674 H         1 UNK         0.0000 
     57 H57        -0.1515   49.4053   21.9657 H         1 UNK         0.0000 
@<TRIPOS>BOND
     1    1    2 1    
     2    1   36 1    
     3    1   37 1    
     4    1   38 1    
     5    2    7 ar   
     6    2    3 ar   
     7    3    4 ar   
     8    3   39 1    
     9    4    5 ar   
    10    4   40 1    
    11    5    6 ar   
    12    5    9 1    
    13    6    7 ar   
    14    6    8 1    
    15    7   41 1    
    16    8   42 1    
    17    8   43 1    
    18    8   44 1    
    19    9   10 am   BACKBONE|DICT|INTERRES
    20    9   45 1    
    21   10   11 2    
    22   10   12 am   BACKBONE|DICT|INTERRES
    23   12   13 am   BACKBONE|DICT|INTERRES
    24   12   46 1    
    25   13   14 2    
    26   13   15 1    
    27   15   16 1    
    28   15   47 1    
    29   15   48 1    
    30   16   17 1    
    31   17   18 2    
    32   17   19 1    
    33   19   24 ar   
    34   19   20 ar   
    35   20   21 ar   
    36   20   49 1    
    37   21   22 ar   
    38   21   50 1    
    39   22   23 ar   
    40   22   51 1    
    41   23   24 ar   
    42   23   25 1    
    43   24   52 1    
    44   25   26 2    
    45   25   27 2    
    46   25   28 1    
    47   28   29 1    
    48   28   53 1    
    49   29   34 ar   
    50   29   30 ar   
    51   30   31 ar   
    52   30   54 1    
    53   31   32 ar   
    54   31   55 1    
    55   32   33 ar   
    56   32   35 1    
    57   33   34 ar   
    58   33   56 1    
    59   34   57 1    
@<TRIPOS>SUBSTRUCTURE
     1 UNK         1 GROUP             0       ****    0 ROOT    
