@<TRIPOS>MOLECULE
ZINC40112198_3333
61   64    1
SMALL
USER_CHARGES


@<TRIPOS>ATOM
      1 C1          2.7144   53.8258   26.5743 C.3       1 UNK         0.0000 
      2 C2          2.7051   53.8664   25.0662 C.2       1 UNK         0.0000 
      3 C3          1.7269   54.0558   24.1100 C.2       1 UNK         0.0000 
      4 C4          2.3671   54.0011   22.8760 C.2       1 UNK         0.0000 
      5 C5          3.7183   53.7835   23.1044 C.2       1 UNK         0.0000 
      6 O6          3.9025   53.6968   24.4504 O.3       1 UNK         0.0000 
      7 C7          4.9633   53.5924   22.2245 C.3       1 UNK         0.0000 
      8 H8          5.2736   52.5543   22.3596 H         1 UNK         0.0000 
      9 C9          4.8302   53.9085   20.7496 C.2       1 UNK         0.0000 
     10 C10         5.6627   54.9354   20.4892 C.2       1 UNK         0.0000 
     11 C11         6.4957   55.2756   21.6282 C.2       1 UNK         0.0000 
     12 O12         7.4132   56.0967   21.7012 O.2       1 UNK         0.0000 
     13 N13         6.0686   54.4535   22.6149 N.am      1 UNK         0.0000 
     14 C14         6.7066   54.3765   23.9354 C.3       1 UNK         0.0000 
     15 C15         6.3832   55.5757   24.8466 C.3       1 UNK         0.0000 
     16 O16         6.7046   55.2912   26.1900 O.3       1 UNK         0.0000 
     17 O17         5.8580   55.5978   19.4016 O.co2     1 UNK         0.0000 
     18 C18         3.9232   53.1399   19.8677 C.2       1 UNK         0.0000 
     19 O19         3.0719   52.4134   20.3838 O.2       1 UNK         0.0000 
     20 C20         3.9505   53.2845   18.3715 C.ar      1 UNK         0.0000 
     21 C21         5.1584   53.2982   17.6599 C.ar      1 UNK         0.0000 
     22 C22         5.1629   53.3207   16.2678 C.ar      1 UNK         0.0000 
     23 C23         3.9558   53.2982   15.5693 C.ar      1 UNK         0.0000 
     24 C24         2.7463   53.2654   16.2653 C.ar      1 UNK         0.0000 
     25 C25         2.7445   53.2542   17.6584 C.ar      1 UNK         0.0000 
     26 S26         3.9622   53.3050   13.7755 S.o2      1 UNK         0.0000 
     27 O27         2.5930   53.0092   13.3342 O.2       1 UNK         0.0000 
     28 O28         4.6193   54.5520   13.3670 O.2       1 UNK         0.0000 
     29 N29         4.9983   51.9438   13.2886 N.pl3     1 UNK         0.0000 
     30 C30         6.4318   52.2355   13.0020 C.3       1 UNK         0.0000 
     31 C31         7.4354   51.1555   13.4469 C.3       1 UNK         0.0000 
     32 C32         7.4837   49.8930   12.5650 C.3       1 UNK         0.0000 
     33 C33         6.2867   48.9376   12.6882 C.3       1 UNK         0.0000 
     34 C34         4.9042   49.5565   12.4182 C.3       1 UNK         0.0000 
     35 C35         4.4521   50.5743   13.4782 C.3       1 UNK         0.0000 
     36 H36         1.7089   53.9061   26.9888 H         1 UNK         0.0000 
     37 H37         3.3008   54.6482   26.9865 H         1 UNK         0.0000 
     38 H38         3.1441   52.8968   26.9484 H         1 UNK         0.0000 
     39 H39         0.6741   54.2149   24.2874 H         1 UNK         0.0000 
     40 H40         1.8999   54.0968   21.9096 H         1 UNK         0.0000 
     41 H41         6.3926   53.4505   24.4184 H         1 UNK         0.0000 
     42 H42         7.7831   54.2882   23.7960 H         1 UNK         0.0000 
     43 H43         6.8363   56.4959   24.4813 H         1 UNK         0.0000 
     44 H44         5.3123   55.7671   24.8292 H         1 UNK         0.0000 
     45 H45         6.0896   54.6286   26.5171 H         1 UNK         0.0000 
     46 H46         6.1044   53.2574   18.1796 H         1 UNK         0.0000 
     47 H47         6.1043   53.3324   15.7398 H         1 UNK         0.0000 
     48 H48         1.8058   53.2410   15.7337 H         1 UNK         0.0000 
     49 H49         1.7985   53.2114   18.1803 H         1 UNK         0.0000 
     50 H50         6.5326   52.3398   11.9207 H         1 UNK         0.0000 
     51 H51         6.6987   53.1916   13.4550 H         1 UNK         0.0000 
     52 H52         8.4295   51.6049   13.4187 H         1 UNK         0.0000 
     53 H53         7.2678   50.8982   14.4904 H         1 UNK         0.0000 
     54 H54         7.6094   50.1852   11.5215 H         1 UNK         0.0000 
     55 H55         8.3852   49.3325   12.8179 H         1 UNK         0.0000 
     56 H56         6.2902   48.4884   13.6818 H         1 UNK         0.0000 
     57 H57         6.4383   48.1054   11.9990 H         1 UNK         0.0000 
     58 H58         4.1786   48.7416   12.4100 H         1 UNK         0.0000 
     59 H59         4.8634   49.9981   11.4207 H         1 UNK         0.0000 
     60 H60         4.6982   50.2287   14.4817 H         1 UNK         0.0000 
     61 H61         3.3650   50.6431   13.4330 H         1 UNK         0.0000 
@<TRIPOS>BOND
     1    1    2 1    
     2    1   36 1    
     3    1   37 1    
     4    1   38 1    
     5    2    6 1    
     6    2    3 2    
     7    3    4 1    
     8    3   39 1    
     9    4    5 2    
    10    4   40 1    
    11    5    6 1    
    12    5    7 1    
    13    7    8 1    
    14    7   13 1    
    15    7    9 1    
    16    9   10 2    
    17    9   18 1    
    18   10   11 1    
    19   10   17 1    
    20   11   12 2    
    21   11   13 am   BACKBONE|DICT|INTERRES
    22   13   14 1    
    23   14   15 1    
    24   14   41 1    
    25   14   42 1    
    26   15   16 1    
    27   15   43 1    
    28   15   44 1    
    29   16   45 1    
    30   18   19 2    
    31   18   20 1    
    32   20   25 ar   
    33   20   21 ar   
    34   21   22 ar   
    35   21   46 1    
    36   22   23 ar   
    37   22   47 1    
    38   23   24 ar   
    39   23   26 1    
    40   24   25 ar   
    41   24   48 1    
    42   25   49 1    
    43   26   27 2    
    44   26   28 2    
    45   26   29 1    
    46   29   35 1    
    47   29   30 1    
    48   30   31 1    
    49   30   50 1    
    50   30   51 1    
    51   31   32 1    
    52   31   52 1    
    53   31   53 1    
    54   32   33 1    
    55   32   54 1    
    56   32   55 1    
    57   33   34 1    
    58   33   56 1    
    59   33   57 1    
    60   34   35 1    
    61   34   58 1    
    62   34   59 1    
    63   35   60 1    
    64   35   61 1    
@<TRIPOS>SUBSTRUCTURE
     1 UNK         1 GROUP             0       ****    0 ROOT    
