@<TRIPOS>MOLECULE
ZINC38693695_87
57   60    1
SMALL
USER_CHARGES


@<TRIPOS>ATOM
      1 C1          9.9411   57.9178   18.4448 C.3       1 UNK         0.0000 
      2 O2          8.5254   58.0594   18.4767 O.3       1 UNK         0.0000 
      3 C3          7.7406   56.9246   18.5278 C.ar      1 UNK         0.0000 
      4 C4          6.3689   57.1261   18.6621 C.ar      1 UNK         0.0000 
      5 C5          5.5033   56.0421   18.7703 C.ar      1 UNK         0.0000 
      6 C6          6.0045   54.7380   18.7394 C.ar      1 UNK         0.0000 
      7 C7          7.3715   54.5305   18.5502 C.ar      1 UNK         0.0000 
      8 C8          8.2396   55.6135   18.4604 C.ar      1 UNK         0.0000 
      9 C9          5.0805   53.5372   18.9439 C.3       1 UNK         0.0000 
     10 N10         4.0707   53.6958   19.9981 N.am      1 UNK         0.0000 
     11 C11         4.3056   53.7184   21.3203 C.2       1 UNK         0.0000 
     12 O12         5.4293   53.7747   21.8191 O.2       1 UNK         0.0000 
     13 N13         3.1546   53.6208   22.0134 N.am      1 UNK         0.0000 
     14 C14         2.9823   53.6289   23.4069 C.ar      1 UNK         0.0000 
     15 C15         3.8094   54.3345   24.2853 C.ar      1 UNK         0.0000 
     16 C16         3.5511   54.3139   25.6525 C.ar      1 UNK         0.0000 
     17 C17         2.4695   53.5991   26.1819 C.ar      1 UNK         0.0000 
     18 C18         1.6197   52.8970   25.2932 C.ar      1 UNK         0.0000 
     19 C19         1.9019   52.9109   23.9202 C.ar      1 UNK         0.0000 
     20 N20         0.5451   52.0972   25.7715 N.pl3     1 UNK         0.0000 
     21 C21         0.6015   51.7178   27.1912 C.3       1 UNK         0.0000 
     22 C22         0.9034   52.9462   28.0623 C.3       1 UNK         0.0000 
     23 C23         2.2637   53.5511   27.6903 C.3       1 UNK         0.0000 
     24 S24        -1.0787   52.1322   25.0064 S.o2      1 UNK         0.0000 
     25 O25        -2.0469   52.4962   26.0487 O.2       1 UNK         0.0000 
     26 O26        -1.0139   52.8890   23.7482 O.2       1 UNK         0.0000 
     27 C27        -1.3590   50.4140   24.5902 C.ar      1 UNK         0.0000 
     28 C28        -1.0405   49.9388   23.3149 C.ar      1 UNK         0.0000 
     29 C29        -1.1980   48.5852   23.0259 C.ar      1 UNK         0.0000 
     30 C30        -1.6608   47.7157   24.0110 C.ar      1 UNK         0.0000 
     31 C31        -1.9728   48.1875   25.2819 C.ar      1 UNK         0.0000 
     32 C32        -1.8273   49.5393   25.5747 C.ar      1 UNK         0.0000 
     33 F33        -1.8049   46.4004   23.7340 F         1 UNK         0.0000 
     34 H34        10.4028   58.9048   18.4493 H         1 UNK         0.0000 
     35 H35        10.2715   57.4007   17.5428 H         1 UNK         0.0000 
     36 H36        10.3048   57.3786   19.3205 H         1 UNK         0.0000 
     37 H37         5.9780   58.1328   18.6927 H         1 UNK         0.0000 
     38 H38         4.4445   56.2183   18.8817 H         1 UNK         0.0000 
     39 H39         7.7687   53.5301   18.4826 H         1 UNK         0.0000 
     40 H40         9.2949   55.4175   18.3475 H         1 UNK         0.0000 
     41 H41         4.5625   53.3541   18.0030 H         1 UNK         0.0000 
     42 H42         5.6649   52.6364   19.1452 H         1 UNK         0.0000 
     43 H43         3.1384   53.9253   19.6838 H         1 UNK         0.0000 
     44 H44         2.3173   53.4661   21.4738 H         1 UNK         0.0000 
     45 H45         4.6559   54.8981   23.9208 H         1 UNK         0.0000 
     46 H46         4.2143   54.8497   26.3185 H         1 UNK         0.0000 
     47 H47         1.2889   52.3403   23.2378 H         1 UNK         0.0000 
     48 H48        -0.3034   51.2080   27.5217 H         1 UNK         0.0000 
     49 H49         1.4082   50.9869   27.2796 H         1 UNK         0.0000 
     50 H50         0.1132   53.6874   27.9345 H         1 UNK         0.0000 
     51 H51         0.8876   52.6764   29.1187 H         1 UNK         0.0000 
     52 H52         3.0561   52.9299   28.1141 H         1 UNK         0.0000 
     53 H53         2.3750   54.5441   28.1327 H         1 UNK         0.0000 
     54 H54        -0.6618   50.6089   22.5561 H         1 UNK         0.0000 
     55 H55        -0.9521   48.2070   22.0450 H         1 UNK         0.0000 
     56 H56        -2.3095   47.5091   26.0546 H         1 UNK         0.0000 
     57 H57        -2.0579   49.8877   26.5732 H         1 UNK         0.0000 
@<TRIPOS>BOND
     1    1    2 1    
     2    1   34 1    
     3    1   35 1    
     4    1   36 1    
     5    2    3 1    
     6    3    8 ar   
     7    3    4 ar   
     8    4    5 ar   
     9    4   37 1    
    10    5    6 ar   
    11    5   38 1    
    12    6    7 ar   
    13    6    9 1    
    14    7    8 ar   
    15    7   39 1    
    16    8   40 1    
    17    9   10 1    
    18    9   41 1    
    19    9   42 1    
    20   10   11 am   BACKBONE|DICT|INTERRES
    21   10   43 1    
    22   11   12 2    
    23   11   13 am   BACKBONE|DICT|INTERRES
    24   13   14 1    
    25   13   44 1    
    26   14   19 ar   
    27   14   15 ar   
    28   15   16 ar   
    29   15   45 1    
    30   16   17 ar   
    31   16   46 1    
    32   17   23 1    
    33   17   18 ar   
    34   18   19 ar   
    35   18   20 1    
    36   19   47 1    
    37   20   21 1    
    38   20   24 1    
    39   21   22 1    
    40   21   48 1    
    41   21   49 1    
    42   22   23 1    
    43   22   50 1    
    44   22   51 1    
    45   23   52 1    
    46   23   53 1    
    47   24   25 2    
    48   24   26 2    
    49   24   27 1    
    50   27   32 ar   
    51   27   28 ar   
    52   28   29 ar   
    53   28   54 1    
    54   29   30 ar   
    55   29   55 1    
    56   30   31 ar   
    57   30   33 1    
    58   31   32 ar   
    59   31   56 1    
    60   32   57 1    
@<TRIPOS>SUBSTRUCTURE
     1 UNK         1 GROUP             0       ****    0 ROOT    
