@<TRIPOS>MOLECULE
ZINC09490179_3707
62   66    1
SMALL
USER_CHARGES


@<TRIPOS>ATOM
      1 C1          0.8975   52.8440   24.7439 C.3       1 UNK         0.0000 
      2 O2          2.2373   53.3163   24.7627 O.3       1 UNK         0.0000 
      3 C3          2.8423   53.6880   25.9550 C.ar      1 UNK         0.0000 
      4 C4          2.2055   53.6482   27.2064 C.ar      1 UNK         0.0000 
      5 C5          2.8853   54.0143   28.3809 C.ar      1 UNK         0.0000 
      6 C6          4.2195   54.4252   28.2796 C.ar      1 UNK         0.0000 
      7 C7          4.8633   54.4756   27.0467 C.ar      1 UNK         0.0000 
      8 C8          4.1775   54.1144   25.8822 C.ar      1 UNK         0.0000 
      9 N9          4.7288   54.1697   24.5932 N.am      1 UNK         0.0000 
     10 C10         5.9562   54.4969   24.1432 C.2       1 UNK         0.0000 
     11 O11         6.9161   54.7799   24.8627 O.2       1 UNK         0.0000 
     12 C12         6.0482   54.5667   22.6304 C.ar      1 UNK         0.0000 
     13 C13         5.0890   53.9491   21.8099 C.ar      1 UNK         0.0000 
     14 C14         5.1215   54.1066   20.4306 C.ar      1 UNK         0.0000 
     15 C15         6.1115   54.8748   19.8110 C.ar      1 UNK         0.0000 
     16 C16         7.1276   55.4355   20.6186 C.ar      1 UNK         0.0000 
     17 C17         7.0734   55.2967   22.0096 C.ar      1 UNK         0.0000 
     18 N18         8.2356   56.0967   20.0805 N.pl3     1 UNK         0.0000 
     19 N19         6.0392   54.9649   18.4250 N.pl3     1 UNK         0.0000 
     20 C20         6.4527   56.1370   17.6386 C.3       1 UNK         0.0000 
     21 C21         5.6735   56.2643   16.2992 C.3       1 UNK         0.0000 
     22 H22         6.0235   57.1199   15.7206 H         1 UNK         0.0000 
     23 C23         5.9834   55.0250   15.4491 C.3       1 UNK         0.0000 
     24 C24         5.5471   53.7946   16.2539 C.3       1 UNK         0.0000 
     25 H25         5.8387   52.9057   15.6920 H         1 UNK         0.0000 
     26 C26         6.2641   53.7471   17.6276 C.3       1 UNK         0.0000 
     27 C27         4.0245   53.8082   16.4449 C.ar      1 UNK         0.0000 
     28 C28         3.3257   52.6507   16.4720 C.ar      1 UNK         0.0000 
     29 C29         1.9004   52.7014   16.7066 C.ar      1 UNK         0.0000 
     30 C30         1.3115   53.9010   16.8824 C.ar      1 UNK         0.0000 
     31 C31         2.0367   55.1629   16.8040 C.ar      1 UNK         0.0000 
     32 O32         1.4122   56.2231   16.8814 O.2       1 UNK         0.0000 
     33 N33         3.4027   55.0609   16.6063 N.pl3     1 UNK         0.0000 
     34 C34         4.1335   56.3591   16.5048 C.3       1 UNK         0.0000 
     35 Cl35        5.1041   54.8965   29.6815 Cl        1 UNK         0.0000 
     36 O36         2.3173   53.9941   29.6439 O.3       1 UNK         0.0000 
     37 C37         0.9694   53.5620   29.8018 C.3       1 UNK         0.0000 
     38 H38         0.6916   52.4137   23.7640 H         1 UNK         0.0000 
     39 H39         0.7116   52.0638   25.4835 H         1 UNK         0.0000 
     40 H40         0.2016   53.6687   24.8815 H         1 UNK         0.0000 
     41 H41         1.1779   53.3309   27.2664 H         1 UNK         0.0000 
     42 H42         5.8891   54.8077   27.0209 H         1 UNK         0.0000 
     43 H43         4.0492   53.9535   23.8798 H         1 UNK         0.0000 
     44 H44         4.2859   53.3526   22.2169 H         1 UNK         0.0000 
     45 H45         4.3503   53.6385   19.8334 H         1 UNK         0.0000 
     46 H46         7.8429   55.7604   22.6115 H         1 UNK         0.0000 
     47 H47         8.3412   56.1113   19.0760 H         1 UNK         0.0000 
     48 H48         8.9970   56.3814   20.6809 H         1 UNK         0.0000 
     49 H49         6.2309   57.0292   18.2260 H         1 UNK         0.0000 
     50 H50         7.5301   56.1587   17.4685 H         1 UNK         0.0000 
     51 H51         5.4714   55.0668   14.4855 H         1 UNK         0.0000 
     52 H52         7.0506   54.9722   15.2264 H         1 UNK         0.0000 
     53 H53         7.3415   53.6462   17.4875 H         1 UNK         0.0000 
     54 H54         5.9371   52.8548   18.1641 H         1 UNK         0.0000 
     55 H55         3.8271   51.6968   16.3738 H         1 UNK         0.0000 
     56 H56         1.3276   51.7863   16.7694 H         1 UNK         0.0000 
     57 H57         0.2520   53.9529   17.0790 H         1 UNK         0.0000 
     58 H58         3.9210   56.9591   17.3915 H         1 UNK         0.0000 
     59 H59         3.6951   56.9494   15.6976 H         1 UNK         0.0000 
     60 H60         0.6986   53.6062   30.8572 H         1 UNK         0.0000 
     61 H61         0.8363   52.5304   29.4724 H         1 UNK         0.0000 
     62 H62         0.2764   54.2052   29.2579 H         1 UNK         0.0000 
@<TRIPOS>BOND
     1    1    2 1    
     2    1   38 1    
     3    1   39 1    
     4    1   40 1    
     5    2    3 1    
     6    3    8 ar   
     7    3    4 ar   
     8    4    5 ar   
     9    4   41 1    
    10    5    6 ar   
    11    5   36 1    
    12    6    7 ar   
    13    6   35 1    
    14    7    8 ar   
    15    7   42 1    
    16    8    9 1    
    17    9   10 am   BACKBONE|DICT|INTERRES
    18    9   43 1    
    19   10   11 2    
    20   10   12 1    
    21   12   17 ar   
    22   12   13 ar   
    23   13   14 ar   
    24   13   44 1    
    25   14   15 ar   
    26   14   45 1    
    27   15   16 ar   
    28   15   19 1    
    29   16   17 ar   
    30   16   18 1    
    31   17   46 1    
    32   18   47 1    
    33   18   48 1    
    34   19   26 1    
    35   19   20 1    
    36   20   21 1    
    37   20   49 1    
    38   20   50 1    
    39   21   22 1    
    40   21   34 1    
    41   21   23 1    
    42   23   24 1    
    43   23   51 1    
    44   23   52 1    
    45   24   25 1    
    46   24   26 1    
    47   24   27 1    
    48   26   53 1    
    49   26   54 1    
    50   27   33 ar   
    51   27   28 ar   
    52   28   29 ar   
    53   28   55 1    
    54   29   30 ar   
    55   29   56 1    
    56   30   31 ar   
    57   30   57 1    
    58   31   32 2    
    59   31   33 ar   
    60   33   34 1    
    61   34   58 1    
    62   34   59 1    
    63   36   37 1    
    64   37   60 1    
    65   37   61 1    
    66   37   62 1    
@<TRIPOS>SUBSTRUCTURE
     1 UNK         1 GROUP             0       ****    0 ROOT    
