ZINC39608863_128
                    3D
 Schrodinger Suite 2024-2.
 73 77  0  0  1  0            999 V2000
   -5.5762   45.9041   24.4577 C   0  0  0  0  0  0
   -4.1441   46.3961   24.3406 C   0  0  0  0  0  0
   -3.3388   46.4743   25.4780 C   0  0  0  0  0  0
   -2.0243   46.9140   25.3668 C   0  0  0  0  0  0
   -1.5120   47.2978   24.1289 C   0  0  0  0  0  0
   -2.3202   47.2797   22.9763 C   0  0  0  0  0  0
   -3.6345   46.8004   23.1004 C   0  0  0  0  0  0
   -1.8169   47.7195   21.6105 C   0  0  0  0  0  0
   -2.2382   47.1229   20.6148 O   0  0  0  0  0  0
   -0.9539   48.7636   21.4888 N   0  0  0  0  0  0
   -0.5039   49.6428   22.5683 C   0  0  0  0  0  0
    0.0029   50.9045   21.8413 C   0  0  2  0  0  0
   -0.8263   51.6039   21.7244 H   0  0  0  0  0  0
    0.4982   50.3915   20.4563 C   0  0  0  0  0  0
   -0.5302   49.2669   20.1739 C   0  0  0  0  0  0
    0.5357   51.5352   19.4080 C   0  0  0  0  0  0
    0.9074   51.0306   17.9983 C   0  0  0  0  0  0
    2.3039   50.3765   18.0839 N   0  3  0  0  0  0
    2.3800   49.2298   19.1103 C   0  0  0  0  0  0
    1.9485   49.7955   20.4766 C   0  0  0  0  0  0
    1.0930   51.5498   22.7286 C   0  0  0  0  0  0
    1.9247   50.8354   23.2821 O   0  0  0  0  0  0
    1.0533   52.8866   22.8851 N   0  0  0  0  0  0
    2.0640   53.7388   23.5377 C   0  0  2  0  0  0
    1.6653   54.7454   23.6788 H   0  0  0  0  0  0
    3.3397   53.8956   22.6859 C   0  0  0  0  0  0
    4.5205   54.0017   23.6643 C   0  0  0  0  0  0
    3.9201   53.9767   25.0757 C   0  0  0  0  0  0
    2.5619   53.2820   24.9288 C   0  0  1  0  0  0
    2.7047   52.2093   25.0230 H   0  0  0  0  0  0
    1.6846   53.6966   25.9704 O   0  0  0  0  0  0
    1.8344   53.0036   27.2116 C   0  0  0  0  0  0
    1.5596   53.9494   28.3705 C   0  0  0  0  0  0
    2.1505   55.2153   28.3792 C   0  0  0  0  0  0
    1.9044   56.0960   29.4275 C   0  0  0  0  0  0
    1.0960   55.6907   30.4819 C   0  0  0  0  0  0
    0.5236   54.4189   30.4977 C   0  0  0  0  0  0
    0.7498   53.5450   29.4337 C   0  0  0  0  0  0
   -5.6213   44.8199   24.3418 H   0  0  0  0  0  0
   -5.9988   46.1693   25.4291 H   0  0  0  0  0  0
   -6.2155   46.3674   23.7037 H   0  0  0  0  0  0
   -3.7214   46.1895   26.4489 H   0  0  0  0  0  0
   -1.3975   46.9653   26.2487 H   0  0  0  0  0  0
   -0.4755   47.5897   24.0982 H   0  0  0  0  0  0
   -4.2761   46.7532   22.2300 H   0  0  0  0  0  0
   -1.2820   49.9049   23.2883 H   0  0  0  0  0  0
    0.3417   49.1211   23.0197 H   0  0  0  0  0  0
   -0.2128   48.5078   19.4608 H   0  0  0  0  0  0
   -1.4116   49.7297   19.7279 H   0  0  0  0  0  0
   -0.4486   52.0027   19.3440 H   0  0  0  0  0  0
    1.2076   52.3343   19.7240 H   0  0  0  0  0  0
    0.2258   50.2702   17.6128 H   0  0  0  0  0  0
    0.9934   51.8399   17.2707 H   0  0  0  0  0  0
    2.6284   50.0139   17.1881 H   0  0  0  0  0  0
    1.7627   48.4182   18.7283 H   0  0  0  0  0  0
    3.4213   48.8993   19.0955 H   0  0  0  0  0  0
    2.6893   50.5309   20.7920 H   0  0  0  0  0  0
    2.0160   48.9929   21.2141 H   0  0  0  0  0  0
    0.3518   53.3810   22.3590 H   0  0  0  0  0  0
    3.4971   53.0258   22.0427 H   0  0  0  0  0  0
    3.2680   54.7521   22.0128 H   0  0  0  0  0  0
    5.1135   54.8985   23.4952 H   0  0  0  0  0  0
    5.1990   53.1557   23.5203 H   0  0  0  0  0  0
    3.8015   54.9877   25.4658 H   0  0  0  0  0  0
    4.5785   53.4300   25.7535 H   0  0  0  0  0  0
    1.1515   52.1519   27.2199 H   0  0  0  0  0  0
    2.8393   52.5994   27.3481 H   0  0  0  0  0  0
    2.7846   55.5213   27.5631 H   0  0  0  0  0  0
    2.3431   57.0797   29.4284 H   0  0  0  0  0  0
    0.9203   56.3752   31.2970 H   0  0  0  0  0  0
   -0.0950   54.1115   31.3280 H   0  0  0  0  0  0
    0.3028   52.5602   29.4449 H   0  0  0  0  0  0
    3.0003   51.0684   18.3327 H   0  0  0  0  0  0
  1  2  1  0  0  0
  1 39  1  0  0  0
  1 40  1  0  0  0
  1 41  1  0  0  0
  2  7  2  0  0  0
  2  3  1  0  0  0
  3  4  2  0  0  0
  3 42  1  0  0  0
  4  5  1  0  0  0
  4 43  1  0  0  0
  5  6  2  0  0  0
  5 44  1  0  0  0
  6  7  1  0  0  0
  6  8  1  0  0  0
  7 45  1  0  0  0
  8  9  2  0  0  0
  8 10  1  0  0  0
 10 15  1  0  0  0
 10 11  1  0  0  0
 11 12  1  0  0  0
 11 46  1  0  0  0
 11 47  1  0  0  0
 12 13  1  0  0  0
 12 14  1  0  0  0
 12 21  1  0  0  0
 14 20  1  0  0  0
 14 15  1  0  0  0
 14 16  1  0  0  0
 15 48  1  0  0  0
 15 49  1  0  0  0
 16 17  1  0  0  0
 16 50  1  0  0  0
 16 51  1  0  0  0
 17 18  1  0  0  0
 17 52  1  0  0  0
 17 53  1  0  0  0
 18 19  1  0  0  0
 18 54  1  0  0  0
 18 73  1  0  0  0
 19 20  1  0  0  0
 19 55  1  0  0  0
 19 56  1  0  0  0
 20 57  1  0  0  0
 20 58  1  0  0  0
 21 22  2  0  0  0
 21 23  1  0  0  0
 23 24  1  0  0  0
 23 59  1  0  0  0
 24 25  1  0  0  0
 24 29  1  0  0  0
 24 26  1  0  0  0
 26 27  1  0  0  0
 26 60  1  0  0  0
 26 61  1  0  0  0
 27 28  1  0  0  0
 27 62  1  0  0  0
 27 63  1  0  0  0
 28 29  1  0  0  0
 28 64  1  0  0  0
 28 65  1  0  0  0
 29 30  1  0  0  0
 29 31  1  0  0  0
 31 32  1  0  0  0
 32 33  1  0  0  0
 32 66  1  0  0  0
 32 67  1  0  0  0
 33 38  2  0  0  0
 33 34  1  0  0  0
 34 35  2  0  0  0
 34 68  1  0  0  0
 35 36  1  0  0  0
 35 69  1  0  0  0
 36 37  2  0  0  0
 36 70  1  0  0  0
 37 38  1  0  0  0
 37 71  1  0  0  0
 38 72  1  0  0  0
M  CHG  1  18   1
M  END
> <i_i_glide_confnum>
904

> <i_i_glide_lignum>
129

> <i_i_glide_posenum>
197

> <i_i_glide_rotatable_bonds>
8

> <i_m_Source_File_Index>
240

> <b_m_subgroup_collapsed>
0

> <r_i_docking_score>
-5.23771

> <r_i_glide_ecoul>
-5.27817

> <r_i_glide_eff_state_penalty>
0

> <r_i_glide_einternal>
7.01021

> <r_i_glide_emodel>
-55.6598

> <r_i_glide_energy>
-42.0073

> <r_i_glide_erotb>
0.713144

> <r_i_glide_esite>
-0.1

> <r_i_glide_evdw>
-36.7292

> <r_i_glide_gscore>
-5.23771

> <r_i_glide_hbond>
-0.134118

> <r_i_glide_ligand_efficiency>
-0.149649

> <r_i_glide_ligand_efficiency_ln>
-1.14979

> <r_i_glide_ligand_efficiency_sa>
-0.489511

> <r_i_glide_lipo>
-2.80254

> <r_i_glide_metal>
0

> <r_i_glide_rewards>
-0.28601

> <s_i_glide_gridfile>
wee1_glide-grid

> <s_m_Source_File>
wee1_decoys_glide_SP.sdf

> <s_m_Source_Path>
/Users/zhangxujun/Desktop

> <s_m_entry_id>
515

> <s_m_entry_name>
wee1_decoys_glide_SP.240

> <s_m_subgroup_title>
wee1_decoys_glide_SP

> <s_m_subgroupid>
wee1_decoys_glide_SP


$$$$
