ZINC22405240_4381
                    3D
 Schrodinger Suite 2024-2.
 54 56  0  0  1  0            999 V2000
    1.8995   50.8388   28.0165 C   0  0  0  0  0  0
    0.4982   51.0424   27.4177 C   0  0  2  0  0  0
   -0.2138   50.4968   28.0408 H   0  0  0  0  0  0
    0.3929   50.4668   25.9843 C   0  0  0  0  0  0
   -1.0322   50.5866   25.4103 C   0  0  0  0  0  0
   -1.5420   52.0428   25.4657 C   0  0  0  0  0  0
   -1.3987   52.6286   26.8837 C   0  0  0  0  0  0
    0.0611   52.5275   27.3861 C   0  0  1  0  0  0
    0.7250   53.0838   26.7228 H   0  0  0  0  0  0
    0.1271   53.0722   28.7656 N   0  0  0  0  0  0
    1.1592   54.4525   29.1339 S   0  0  0  0  0  0
    0.9745   54.7874   30.5474 O   0  0  0  0  0  0
    0.9341   55.4559   28.0988 O   0  0  0  0  0  0
    2.8490   53.9169   28.9139 C   0  0  0  0  0  0
    3.5763   54.4164   27.8268 C   0  0  0  0  0  0
    4.8699   53.9564   27.5606 C   0  0  0  0  0  0
    5.4343   53.0044   28.4059 C   0  0  0  0  0  0
    4.7012   52.4966   29.4734 C   0  0  0  0  0  0
    3.4200   52.9729   29.7724 C   0  0  0  0  0  0
    2.6607   52.4957   30.8232 O   0  0  0  0  0  0
    3.2893   51.8103   31.8990 C   0  0  0  0  0  0
    5.6103   54.3874   26.3284 C   0  0  0  0  0  0
    6.7896   54.7378   26.3895 O   0  0  0  0  0  0
    4.8696   54.2676   25.2100 N   0  0  0  0  0  0
    5.2143   54.4285   23.8600 C   0  0  0  0  0  0
    6.4625   54.8967   23.4170 C   0  0  0  0  0  0
    6.7045   55.0676   22.0559 C   0  0  0  0  0  0
    5.7190   54.7493   21.1227 C   0  0  0  0  0  0
    4.4890   54.2534   21.5511 C   0  0  0  0  0  0
    4.2296   54.0970   22.9130 C   0  0  0  0  0  0
    2.5064   53.4614   23.4433 Br  0  0  0  0  0  0
    2.6005   51.5869   27.6577 H   0  0  0  0  0  0
    1.8610   50.8943   29.1025 H   0  0  0  0  0  0
    2.3044   49.8610   27.7613 H   0  0  0  0  0  0
    1.1041   50.9683   25.3257 H   0  0  0  0  0  0
    0.6991   49.4183   25.9857 H   0  0  0  0  0  0
   -1.7059   49.9414   25.9797 H   0  0  0  0  0  0
   -1.0559   50.2198   24.3831 H   0  0  0  0  0  0
   -2.5862   52.0823   25.1497 H   0  0  0  0  0  0
   -0.9826   52.6559   24.7565 H   0  0  0  0  0  0
   -2.0647   52.0888   27.5610 H   0  0  0  0  0  0
   -1.7449   53.6600   26.8818 H   0  0  0  0  0  0
   -0.1080   52.4394   29.5371 H   0  0  0  0  0  0
    3.1224   55.1388   27.1620 H   0  0  0  0  0  0
    6.4145   52.6012   28.1907 H   0  0  0  0  0  0
    5.1045   51.6974   30.0612 H   0  0  0  0  0  0
    2.5039   51.4079   32.5362 H   0  0  0  0  0  0
    3.9044   50.9640   31.6009 H   0  0  0  0  0  0
    3.9039   52.4966   32.4816 H   0  0  0  0  0  0
    3.9282   53.9324   25.3469 H   0  0  0  0  0  0
    7.2550   55.1578   24.0997 H   0  0  0  0  0  0
    7.6645   55.4394   21.7266 H   0  0  0  0  0  0
    5.9092   54.8793   20.0672 H   0  0  0  0  0  0
    3.7268   54.0109   20.8241 H   0  0  0  0  0  0
  1  2  1  0  0  0
  1 32  1  0  0  0
  1 33  1  0  0  0
  1 34  1  0  0  0
  2  3  1  0  0  0
  2  8  1  0  0  0
  2  4  1  0  0  0
  4  5  1  0  0  0
  4 35  1  0  0  0
  4 36  1  0  0  0
  5  6  1  0  0  0
  5 37  1  0  0  0
  5 38  1  0  0  0
  6  7  1  0  0  0
  6 39  1  0  0  0
  6 40  1  0  0  0
  7  8  1  0  0  0
  7 41  1  0  0  0
  7 42  1  0  0  0
  8  9  1  0  0  0
  8 10  1  0  0  0
 10 11  1  0  0  0
 10 43  1  0  0  0
 11 12  2  0  0  0
 11 13  2  0  0  0
 11 14  1  0  0  0
 14 19  2  0  0  0
 14 15  1  0  0  0
 15 16  2  0  0  0
 15 44  1  0  0  0
 16 17  1  0  0  0
 16 22  1  0  0  0
 17 18  2  0  0  0
 17 45  1  0  0  0
 18 19  1  0  0  0
 18 46  1  0  0  0
 19 20  1  0  0  0
 20 21  1  0  0  0
 21 47  1  0  0  0
 21 48  1  0  0  0
 21 49  1  0  0  0
 22 23  2  0  0  0
 22 24  1  0  0  0
 24 25  1  0  0  0
 24 50  1  0  0  0
 25 30  2  0  0  0
 25 26  1  0  0  0
 26 27  2  0  0  0
 26 51  1  0  0  0
 27 28  1  0  0  0
 27 52  1  0  0  0
 28 29  2  0  0  0
 28 53  1  0  0  0
 29 30  1  0  0  0
 29 54  1  0  0  0
 30 31  1  0  0  0
M  END
> <i_i_glide_confnum>
85

> <i_i_glide_lignum>
4382

> <i_i_glide_posenum>
150

> <i_i_glide_rotatable_bonds>
7

> <i_m_Source_File_Index>
5246

> <b_m_subgroup_collapsed>
0

> <r_i_docking_score>
-5.72867

> <r_i_glide_ecoul>
-3.90621

> <r_i_glide_eff_state_penalty>
0

> <r_i_glide_einternal>
7.80048

> <r_i_glide_emodel>
-52.1188

> <r_i_glide_energy>
-42.0913

> <r_i_glide_erotb>
0.525206

> <r_i_glide_esite>
0

> <r_i_glide_evdw>
-38.1851

> <r_i_glide_gscore>
-5.72867

> <r_i_glide_hbond>
-0.438767

> <r_i_glide_ligand_efficiency>
-0.19754

> <r_i_glide_ligand_efficiency_ln>
-1.31172

> <r_i_glide_ligand_efficiency_sa>
-0.606906

> <r_i_glide_lipo>
-2.87856

> <r_i_glide_metal>
0

> <r_i_glide_rewards>
-0.441361

> <s_i_glide_gridfile>
wee1_glide-grid

> <s_m_Source_File>
wee1_decoys_glide_SP.sdf

> <s_m_Source_Path>
/Users/zhangxujun/Desktop

> <s_m_entry_id>
5521

> <s_m_entry_name>
wee1_decoys_glide_SP.5246

> <s_m_subgroup_title>
wee1_decoys_glide_SP

> <s_m_subgroupid>
wee1_decoys_glide_SP


$$$$
