ZINC39759978_3138
                    3D
 Schrodinger Suite 2024-2.
 63 66  0  0  1  0            999 V2000
    2.1182   48.4056   20.6537 C   0  0  0  0  0  0
    1.9407   49.6549   21.5341 C   0  0  0  0  0  0
    0.8574   50.4947   21.0251 N   0  0  0  0  0  0
    0.9220   51.6747   20.3014 C   0  0  0  0  0  0
   -0.2854   52.0967   20.0177 N   0  0  0  0  0  0
   -1.1889   51.1898   20.5511 N   0  0  0  0  0  0
   -0.4950   50.2454   21.1355 C   0  0  0  0  0  0
   -1.2164   48.8606   21.9529 S   0  0  0  0  0  0
   -1.5745   49.6978   23.5331 C   0  0  0  0  0  0
   -2.9020   50.4683   23.5685 C   0  0  0  0  0  0
   -3.7059   50.3796   22.6384 O   0  0  0  0  0  0
   -3.0899   51.2416   24.6580 N   0  0  0  0  0  0
   -4.2066   52.0401   24.9532 C   0  0  0  0  0  0
   -3.9850   53.1820   25.7306 C   0  0  0  0  0  0
   -5.0465   54.0167   26.0818 C   0  0  0  0  0  0
   -6.3413   53.6969   25.6803 C   0  0  0  0  0  0
   -6.5716   52.5557   24.8972 C   0  0  0  0  0  0
   -5.5132   51.7222   24.5452 C   0  0  0  0  0  0
   -7.8400   52.1829   24.5023 O   0  0  0  0  0  0
   -8.7857   53.2558   24.5264 C   0  0  0  0  0  0
   -8.6723   54.0326   25.8606 C   0  0  0  0  0  0
   -7.3538   54.5657   26.0324 O   0  0  0  0  0  0
    2.1888   52.4020   19.8456 C   0  0  2  0  0  0
    1.8935   53.2964   19.2838 H   0  0  0  0  0  0
    3.0360   51.5181   18.8892 C   0  0  0  0  0  0
    2.3045   50.9123   17.8352 O   0  0  0  0  0  0
    2.9274   52.8592   21.0381 N   0  0  0  0  0  0
    4.0413   53.6183   21.0426 C   0  0  0  0  0  0
    4.5939   53.9931   20.0078 O   0  0  0  0  0  0
    4.6291   53.9731   22.3932 C   0  0  0  0  0  0
    5.9274   54.4962   22.4553 C   0  0  0  0  0  0
    6.5058   54.8145   23.6784 C   0  0  0  0  0  0
    5.8175   54.6107   24.8691 C   0  0  0  0  0  0
    4.5078   54.1080   24.8172 C   0  0  0  0  0  0
    3.9182   53.7984   23.5914 C   0  0  0  0  0  0
    6.4993   54.9283   26.0282 O   0  0  0  0  0  0
    5.8842   54.6641   27.2826 C   0  0  0  0  0  0
    2.7896   47.6973   21.1324 H   0  0  0  0  0  0
    1.1751   47.8837   20.4819 H   0  0  0  0  0  0
    2.5362   48.6493   19.6758 H   0  0  0  0  0  0
    2.8615   50.2324   21.5987 H   0  0  0  0  0  0
    1.6920   49.3691   22.5570 H   0  0  0  0  0  0
   -0.7441   50.3546   23.7955 H   0  0  0  0  0  0
   -1.6235   48.9268   24.3034 H   0  0  0  0  0  0
   -2.3273   51.3055   25.3147 H   0  0  0  0  0  0
   -2.9884   53.4299   26.0681 H   0  0  0  0  0  0
   -4.8697   54.8994   26.6774 H   0  0  0  0  0  0
   -5.7239   50.8310   23.9728 H   0  0  0  0  0  0
   -8.5834   53.9336   23.6949 H   0  0  0  0  0  0
   -9.7911   52.8572   24.3948 H   0  0  0  0  0  0
   -9.3977   54.8441   25.8956 H   0  0  0  0  0  0
   -8.8925   53.3539   26.6849 H   0  0  0  0  0  0
    3.8524   52.0966   18.4527 H   0  0  0  0  0  0
    3.5048   50.7177   19.4527 H   0  0  0  0  0  0
    2.9192   50.3263   17.3579 H   0  0  0  0  0  0
    2.4153   52.8056   21.9028 H   0  0  0  0  0  0
    6.5027   54.6612   21.5538 H   0  0  0  0  0  0
    7.5043   55.2190   23.7048 H   0  0  0  0  0  0
    3.9364   53.9438   25.7168 H   0  0  0  0  0  0
    2.9103   53.4092   23.5969 H   0  0  0  0  0  0
    6.5891   54.8974   28.0800 H   0  0  0  0  0  0
    4.9994   55.2847   27.4295 H   0  0  0  0  0  0
    5.6106   53.6127   27.3841 H   0  0  0  0  0  0
  1  2  1  0  0  0
  1 38  1  0  0  0
  1 39  1  0  0  0
  1 40  1  0  0  0
  2  3  1  0  0  0
  2 41  1  0  0  0
  2 42  1  0  0  0
  3  7  1  0  0  0
  3  4  1  0  0  0
  4  5  2  0  0  0
  4 23  1  0  0  0
  5  6  1  0  0  0
  6  7  2  0  0  0
  7  8  1  0  0  0
  8  9  1  0  0  0
  9 10  1  0  0  0
  9 43  1  0  0  0
  9 44  1  0  0  0
 10 11  2  0  0  0
 10 12  1  0  0  0
 12 13  1  0  0  0
 12 45  1  0  0  0
 13 18  2  0  0  0
 13 14  1  0  0  0
 14 15  2  0  0  0
 14 46  1  0  0  0
 15 16  1  0  0  0
 15 47  1  0  0  0
 16 22  1  0  0  0
 16 17  2  0  0  0
 17 18  1  0  0  0
 17 19  1  0  0  0
 18 48  1  0  0  0
 19 20  1  0  0  0
 20 21  1  0  0  0
 20 49  1  0  0  0
 20 50  1  0  0  0
 21 22  1  0  0  0
 21 51  1  0  0  0
 21 52  1  0  0  0
 23 24  1  0  0  0
 23 25  1  0  0  0
 23 27  1  0  0  0
 25 26  1  0  0  0
 25 53  1  0  0  0
 25 54  1  0  0  0
 26 55  1  0  0  0
 27 28  1  0  0  0
 27 56  1  0  0  0
 28 29  2  0  0  0
 28 30  1  0  0  0
 30 35  2  0  0  0
 30 31  1  0  0  0
 31 32  2  0  0  0
 31 57  1  0  0  0
 32 33  1  0  0  0
 32 58  1  0  0  0
 33 34  2  0  0  0
 33 36  1  0  0  0
 34 35  1  0  0  0
 34 59  1  0  0  0
 35 60  1  0  0  0
 36 37  1  0  0  0
 37 61  1  0  0  0
 37 62  1  0  0  0
 37 63  1  0  0  0
M  END
> <i_i_glide_confnum>
265

> <i_i_glide_lignum>
3139

> <i_i_glide_posenum>
134

> <i_i_glide_rotatable_bonds>
13

> <i_m_Source_File_Index>
1630

> <b_m_subgroup_collapsed>
0

> <r_i_docking_score>
-5.16397

> <r_i_glide_ecoul>
-8.37555

> <r_i_glide_eff_state_penalty>
0

> <r_i_glide_einternal>
9.58621

> <r_i_glide_emodel>
-59.6448

> <r_i_glide_energy>
-46.8181

> <r_i_glide_erotb>
0.69976

> <r_i_glide_esite>
-0.0483095

> <r_i_glide_evdw>
-38.4426

> <r_i_glide_gscore>
-5.16397

> <r_i_glide_hbond>
-0.331154

> <r_i_glide_ligand_efficiency>
-0.143444

> <r_i_glide_ligand_efficiency_ln>
-1.12664

> <r_i_glide_ligand_efficiency_sa>
-0.473641

> <r_i_glide_lipo>
-2.2559

> <r_i_glide_metal>
0

> <r_i_glide_rewards>
-0.0499134

> <s_i_glide_gridfile>
wee1_glide-grid

> <s_m_Source_File>
wee1_decoys_glide_SP.sdf

> <s_m_Source_Path>
/Users/zhangxujun/Desktop

> <s_m_entry_id>
1905

> <s_m_entry_name>
wee1_decoys_glide_SP.1630

> <s_m_subgroup_title>
wee1_decoys_glide_SP

> <s_m_subgroupid>
wee1_decoys_glide_SP


$$$$
