@<TRIPOS>MOLECULE
ZINC31399412_3732
64   67    1
SMALL
USER_CHARGES


@<TRIPOS>ATOM
      1 C1          8.5983   51.1413   13.7387 C.3       1 UNK         0.0000 
      2 C2          7.3118   51.7384   14.2923 C.ar      1 UNK         0.0000 
      3 C3          7.3899   52.8144   15.1829 C.ar      1 UNK         0.0000 
      4 C4          6.2329   53.3793   15.7163 C.ar      1 UNK         0.0000 
      5 C5          4.9797   52.8667   15.3732 C.ar      1 UNK         0.0000 
      6 C6          4.8960   51.7904   14.4826 C.ar      1 UNK         0.0000 
      7 C7          6.0520   51.2251   13.9342 C.ar      1 UNK         0.0000 
      8 C8          5.9229   50.0487   12.9769 C.3       1 UNK         0.0000 
      9 S9          3.4883   53.5653   16.0897 S.o2      1 UNK         0.0000 
     10 O10         2.3499   53.0111   15.3464 O.2       1 UNK         0.0000 
     11 O11         3.6645   55.0172   16.1963 O.2       1 UNK         0.0000 
     12 N12         3.3584   52.8914   17.7305 N.pl3     1 UNK         0.0000 
     13 C13         4.0251   53.3369   18.8842 C.ar      1 UNK         0.0000 
     14 C14         3.7578   52.6620   20.0772 C.ar      1 UNK         0.0000 
     15 C15         4.3822   53.0379   21.2659 C.ar      1 UNK         0.0000 
     16 C16         5.3007   54.0972   21.2750 C.ar      1 UNK         0.0000 
     17 C17         5.5602   54.7745   20.0780 C.ar      1 UNK         0.0000 
     18 C18         4.9237   54.4076   18.8973 C.ar      1 UNK         0.0000 
     19 C19         6.0502   54.4979   22.5255 C.2       1 UNK         0.0000 
     20 O20         7.1042   55.1283   22.4321 O.2       1 UNK         0.0000 
     21 N21         5.5032   54.1696   23.7109 N.am      1 UNK         0.0000 
     22 C22         6.0630   54.4117   25.0528 C.3       1 UNK         0.0000 
     23 H23         6.8870   53.7009   25.1548 H         1 UNK         0.0000 
     24 C24         6.6208   55.8367   25.2725 C.3       1 UNK         0.0000 
     25 C25         5.0651   54.0956   26.1706 C.ar      1 UNK         0.0000 
     26 C26         5.5543   53.6967   27.4186 C.ar      1 UNK         0.0000 
     27 C27         4.6780   53.3611   28.4458 C.ar      1 UNK         0.0000 
     28 C28         3.2932   53.4108   28.2313 C.ar      1 UNK         0.0000 
     29 C29         2.8036   53.8220   26.9900 C.ar      1 UNK         0.0000 
     30 C30         3.6796   54.1567   25.9645 C.ar      1 UNK         0.0000 
     31 N31         2.3179   53.0868   29.1919 N.am      1 UNK         0.0000 
     32 C32         2.4442   52.4967   30.4035 C.2       1 UNK         0.0000 
     33 O33         3.5051   52.0932   30.8761 O.2       1 UNK         0.0000 
     34 C34         1.1662   52.2930   31.2443 C.3       1 UNK         0.0000 
     35 C35         0.1911   53.4738   31.2530 C.3       1 UNK         0.0000 
     36 C36        -0.1657   52.2421   30.4863 C.3       1 UNK         0.0000 
     37 H37         8.6364   51.2614   12.6570 H         1 UNK         0.0000 
     38 H38         9.4865   51.6074   14.1675 H         1 UNK         0.0000 
     39 H39         8.6486   50.0734   13.9550 H         1 UNK         0.0000 
     40 H40         8.3525   53.2131   15.4693 H         1 UNK         0.0000 
     41 H41         6.3187   54.2140   16.3943 H         1 UNK         0.0000 
     42 H42         3.9283   51.3814   14.2311 H         1 UNK         0.0000 
     43 H43         6.4232   49.1680   13.3842 H         1 UNK         0.0000 
     44 H44         4.8827   49.7861   12.7778 H         1 UNK         0.0000 
     45 H45         6.4001   50.2841   12.0244 H         1 UNK         0.0000 
     46 H46         2.8949   51.9985   17.7908 H         1 UNK         0.0000 
     47 H47         3.0629   51.8340   20.0859 H         1 UNK         0.0000 
     48 H48         4.1525   52.4804   22.1625 H         1 UNK         0.0000 
     49 H49         6.2649   55.5934   20.0485 H         1 UNK         0.0000 
     50 H50         5.1519   54.9704   18.0118 H         1 UNK         0.0000 
     51 H51         4.7077   53.5550   23.6846 H         1 UNK         0.0000 
     52 H52         6.9249   55.9871   26.3064 H         1 UNK         0.0000 
     53 H53         7.4943   56.0389   24.6552 H         1 UNK         0.0000 
     54 H54         5.8693   56.5877   25.0357 H         1 UNK         0.0000 
     55 H55         6.6176   53.6381   27.5943 H         1 UNK         0.0000 
     56 H56         5.1007   53.0577   29.3895 H         1 UNK         0.0000 
     57 H57         1.7396   53.8733   26.8076 H         1 UNK         0.0000 
     58 H58         3.2730   54.4667   25.0127 H         1 UNK         0.0000 
     59 H59         1.3719   53.2992   28.9182 H         1 UNK         0.0000 
     60 H60         1.2856   51.6974   32.1506 H         1 UNK         0.0000 
     61 H61         0.4345   54.3912   30.7126 H         1 UNK         0.0000 
     62 H62        -0.3319   53.6875   32.1864 H         1 UNK         0.0000 
     63 H63        -0.9381   51.5768   30.8743 H         1 UNK         0.0000 
     64 H64        -0.1869   52.2667   29.3961 H         1 UNK         0.0000 
@<TRIPOS>BOND
     1    1    2 1    
     2    1   37 1    
     3    1   38 1    
     4    1   39 1    
     5    2    7 ar   
     6    2    3 ar   
     7    3    4 ar   
     8    3   40 1    
     9    4    5 ar   
    10    4   41 1    
    11    5    6 ar   
    12    5    9 1    
    13    6    7 ar   
    14    6   42 1    
    15    7    8 1    
    16    8   43 1    
    17    8   44 1    
    18    8   45 1    
    19    9   10 2    
    20    9   11 2    
    21    9   12 1    
    22   12   13 1    
    23   12   46 1    
    24   13   18 ar   
    25   13   14 ar   
    26   14   15 ar   
    27   14   47 1    
    28   15   16 ar   
    29   15   48 1    
    30   16   17 ar   
    31   16   19 1    
    32   17   18 ar   
    33   17   49 1    
    34   18   50 1    
    35   19   20 2    
    36   19   21 am   BACKBONE|DICT|INTERRES
    37   21   22 1    
    38   21   51 1    
    39   22   23 1    
    40   22   24 1    
    41   22   25 1    
    42   24   52 1    
    43   24   53 1    
    44   24   54 1    
    45   25   30 ar   
    46   25   26 ar   
    47   26   27 ar   
    48   26   55 1    
    49   27   28 ar   
    50   27   56 1    
    51   28   29 ar   
    52   28   31 1    
    53   29   30 ar   
    54   29   57 1    
    55   30   58 1    
    56   31   32 am   BACKBONE|DICT|INTERRES
    57   31   59 1    
    58   32   33 2    
    59   32   34 1    
    60   34   36 1    
    61   34   35 1    
    62   34   60 1    
    63   35   36 1    
    64   35   61 1    
    65   35   62 1    
    66   36   63 1    
    67   36   64 1    
@<TRIPOS>SUBSTRUCTURE
     1 UNK         1 GROUP             0       ****    0 ROOT    
