@<TRIPOS>MOLECULE
ZINC00619816_4670
40   42    1
SMALL
USER_CHARGES


@<TRIPOS>ATOM
      1 C1          3.9112   52.2588   30.8388 C.3       1 UNK         0.0000 
      2 C2          4.4200   52.2266   29.3904 C.3       1 UNK         0.0000 
      3 C3          5.0773   53.5536   28.9238 C.3       1 UNK         0.0000 
      4 C4          5.0159   53.8315   27.4344 C.ar      1 UNK         0.0000 
      5 C5          3.9206   53.6965   26.5532 C.ar      1 UNK         0.0000 
      6 C6          4.3947   54.2280   25.3758 C.ar      1 UNK         0.0000 
      7 N7          5.6957   54.5721   25.5641 N.pl3     1 UNK         0.0000 
      8 H8          6.3065   54.9612   24.8601 H         1 UNK         0.0000 
      9 N9          6.0815   54.3297   26.8229 N.2       1 UNK         0.0000 
     10 O10         3.7307   54.3974   24.1906 O.3       1 UNK         0.0000 
     11 C11         2.4436   53.9473   24.2236 C.2       1 UNK         0.0000 
     12 C12         1.7948   53.4042   25.2910 C.2       1 UNK         0.0000 
     13 C13         2.4665   53.2128   26.6744 C.3       1 UNK         0.0000 
     14 H14         2.5071   52.1364   26.8253 H         1 UNK         0.0000 
     15 C15         1.7307   53.7650   27.9173 C.ar      1 UNK         0.0000 
     16 C16         2.0076   55.0730   28.3416 C.ar      1 UNK         0.0000 
     17 C17         1.5044   55.5735   29.5398 C.ar      1 UNK         0.0000 
     18 C18         0.7042   54.7662   30.3397 C.ar      1 UNK         0.0000 
     19 C19         0.3781   53.4777   29.9220 C.ar      1 UNK         0.0000 
     20 C20         0.8861   52.9655   28.7216 C.ar      1 UNK         0.0000 
     21 C21         0.5397   51.5268   28.3619 C.3       1 UNK         0.0000 
     22 C22         0.4744   52.8959   25.0962 C.1       1 UNK         0.0000 
     23 N23        -0.5905   52.4970   24.8818 N.1       1 UNK         0.0000 
     24 N24         1.9389   54.0966   22.9609 N.pl3     1 UNK         0.0000 
     25 H25         3.5035   51.2976   31.1345 H         1 UNK         0.0000 
     26 H26         4.6949   52.4953   31.5565 H         1 UNK         0.0000 
     27 H27         3.1102   52.9870   30.9389 H         1 UNK         0.0000 
     28 H28         3.5776   51.9635   28.7624 H         1 UNK         0.0000 
     29 H29         5.1055   51.3926   29.2806 H         1 UNK         0.0000 
     30 H30         6.1074   53.5889   29.2775 H         1 UNK         0.0000 
     31 H31         4.5824   54.3834   29.4298 H         1 UNK         0.0000 
     32 H32         2.6600   55.6948   27.7507 H         1 UNK         0.0000 
     33 H33         1.7475   56.5795   29.8511 H         1 UNK         0.0000 
     34 H34         0.3227   55.1440   31.2763 H         1 UNK         0.0000 
     35 H35        -0.2512   52.8676   30.5561 H         1 UNK         0.0000 
     36 H36         0.1760   51.4562   27.3374 H         1 UNK         0.0000 
     37 H37         1.4225   50.8940   28.4464 H         1 UNK         0.0000 
     38 H38        -0.2428   51.1152   29.0022 H         1 UNK         0.0000 
     39 H39         0.9922   53.8155   22.7512 H         1 UNK         0.0000 
     40 H40         2.5617   54.2181   22.1772 H         1 UNK         0.0000 
@<TRIPOS>BOND
     1    1    2 1    
     2    1   25 1    
     3    1   26 1    
     4    1   27 1    
     5    2    3 1    
     6    2   28 1    
     7    2   29 1    
     8    3    4 1    
     9    3   30 1    
    10    3   31 1    
    11    4    9 ar   
    12    4    5 ar   
    13    5   13 1    
    14    5    6 ar   
    15    6    7 ar   
    16    6   10 1    
    17    7    8 1    
    18    7    9 ar   
    19   10   11 1    
    20   11   12 2    
    21   11   24 1    
    22   12   13 1    
    23   12   22 1    
    24   13   14 1    
    25   13   15 1    
    26   15   20 ar   
    27   15   16 ar   
    28   16   17 ar   
    29   16   32 1    
    30   17   18 ar   
    31   17   33 1    
    32   18   19 ar   
    33   18   34 1    
    34   19   20 ar   
    35   19   35 1    
    36   20   21 1    
    37   21   36 1    
    38   21   37 1    
    39   21   38 1    
    40   22   23 3    
    41   24   39 1    
    42   24   40 1    
@<TRIPOS>SUBSTRUCTURE
     1 UNK         1 GROUP             0       ****    0 ROOT    
