@<TRIPOS>MOLECULE
ZINC33018421_4543
54   57    1
SMALL
USER_CHARGES


@<TRIPOS>ATOM
      1 C1          6.6572   59.2093   15.4939 C.3       1 UNK         0.0000 
      2 C2          7.3322   58.1604   16.3590 C.ar      1 UNK         0.0000 
      3 C3          8.7187   58.0173   16.3435 C.ar      1 UNK         0.0000 
      4 C4          9.3371   57.0514   17.1380 C.ar      1 UNK         0.0000 
      5 C5          8.5767   56.2198   17.9674 C.ar      1 UNK         0.0000 
      6 C6          7.1750   56.3733   17.9923 C.ar      1 UNK         0.0000 
      7 C7          6.5617   57.3271   17.1749 C.ar      1 UNK         0.0000 
      8 N8          6.3390   55.6001   18.8067 N.am      1 UNK         0.0000 
      9 C9          6.3522   55.6401   20.1486 C.2       1 UNK         0.0000 
     10 O10         7.0436   56.4217   20.8090 O.2       1 UNK         0.0000 
     11 N11         5.5054   54.7262   20.6629 N.am      1 UNK         0.0000 
     12 C12         5.2436   54.4967   22.0231 C.ar      1 UNK         0.0000 
     13 C13         3.9464   54.0896   22.3543 C.ar      1 UNK         0.0000 
     14 C14         3.5501   53.9234   23.6834 C.ar      1 UNK         0.0000 
     15 C15         4.4869   54.1827   24.6914 C.ar      1 UNK         0.0000 
     16 C16         5.8062   54.5734   24.3524 C.ar      1 UNK         0.0000 
     17 C17         6.2101   54.6968   23.0197 C.ar      1 UNK         0.0000 
     18 S18         6.7026   54.8860   25.8197 S.3       1 UNK         0.0000 
     19 C19         5.2818   54.4485   26.7271 C.2       1 UNK         0.0000 
     20 N20         4.2374   54.1047   26.0225 N.2       1 UNK         0.0000 
     21 S21         5.3380   54.4965   28.4819 S.3       1 UNK         0.0000 
     22 C22         4.6399   52.8571   28.8152 C.3       1 UNK         0.0000 
     23 C23         3.1446   52.8804   29.0967 C.2       1 UNK         0.0000 
     24 O24         2.7426   53.2175   30.2126 O.2       1 UNK         0.0000 
     25 N25         2.3735   52.4957   28.0617 N.am      1 UNK         0.0000 
     26 C26         1.0008   52.2326   28.0282 C.ar      1 UNK         0.0000 
     27 C27         0.4254   52.1130   26.7607 C.ar      1 UNK         0.0000 
     28 C28        -0.9253   51.8054   26.6354 C.ar      1 UNK         0.0000 
     29 C29        -1.6927   51.5941   27.7764 C.ar      1 UNK         0.0000 
     30 C30        -1.1186   51.6963   29.0420 C.ar      1 UNK         0.0000 
     31 C31         0.2231   52.0257   29.1754 C.ar      1 UNK         0.0000 
     32 F32        -3.0073   51.2964   27.6561 F         1 UNK         0.0000 
     33 C33         9.2907   55.1448   18.7781 C.3       1 UNK         0.0000 
     34 H34         7.2873   59.5004   14.6519 H         1 UNK         0.0000 
     35 H35         5.7304   58.8186   15.0773 H         1 UNK         0.0000 
     36 H36         6.4158   60.0961   16.0813 H         1 UNK         0.0000 
     37 H37         9.3252   58.6556   15.7170 H         1 UNK         0.0000 
     38 H38        10.4110   56.9442   17.1020 H         1 UNK         0.0000 
     39 H39         5.4862   57.4475   17.1902 H         1 UNK         0.0000 
     40 H40         5.5928   55.1026   18.3457 H         1 UNK         0.0000 
     41 H41         4.9049   54.2440   20.0127 H         1 UNK         0.0000 
     42 H42         3.2143   53.9322   21.5720 H         1 UNK         0.0000 
     43 H43         2.5396   53.6302   23.9275 H         1 UNK         0.0000 
     44 H44         7.2215   54.9937   22.7856 H         1 UNK         0.0000 
     45 H45         5.1057   52.4533   29.7046 H         1 UNK         0.0000 
     46 H46         4.9019   52.1636   28.0185 H         1 UNK         0.0000 
     47 H47         2.8476   52.4027   27.1742 H         1 UNK         0.0000 
     48 H48         1.0180   52.2533   25.8673 H         1 UNK         0.0000 
     49 H49        -1.3752   51.7146   25.6599 H         1 UNK         0.0000 
     50 H50        -1.6962   51.4857   29.9264 H         1 UNK         0.0000 
     51 H51         0.6356   52.0693   30.1714 H         1 UNK         0.0000 
     52 H52        10.2762   54.9171   18.3694 H         1 UNK         0.0000 
     53 H53         9.4066   55.4615   19.8152 H         1 UNK         0.0000 
     54 H54         8.7305   54.2086   18.7645 H         1 UNK         0.0000 
@<TRIPOS>BOND
     1    1    2 1    
     2    1   34 1    
     3    1   35 1    
     4    1   36 1    
     5    2    7 ar   
     6    2    3 ar   
     7    3    4 ar   
     8    3   37 1    
     9    4    5 ar   
    10    4   38 1    
    11    5    6 ar   
    12    5   33 1    
    13    6    7 ar   
    14    6    8 1    
    15    7   39 1    
    16    8    9 am   BACKBONE|DICT|INTERRES
    17    8   40 1    
    18    9   10 2    
    19    9   11 am   BACKBONE|DICT|INTERRES
    20   11   12 1    
    21   11   41 1    
    22   12   17 ar   
    23   12   13 ar   
    24   13   14 ar   
    25   13   42 1    
    26   14   15 ar   
    27   14   43 1    
    28   15   20 1    
    29   15   16 ar   
    30   16   17 ar   
    31   16   18 1    
    32   17   44 1    
    33   18   19 1    
    34   19   20 2    
    35   19   21 1    
    36   21   22 1    
    37   22   23 1    
    38   22   45 1    
    39   22   46 1    
    40   23   24 2    
    41   23   25 am   BACKBONE|DICT|INTERRES
    42   25   26 1    
    43   25   47 1    
    44   26   31 ar   
    45   26   27 ar   
    46   27   28 ar   
    47   27   48 1    
    48   28   29 ar   
    49   28   49 1    
    50   29   30 ar   
    51   29   32 1    
    52   30   31 ar   
    53   30   50 1    
    54   31   51 1    
    55   33   52 1    
    56   33   53 1    
    57   33   54 1    
@<TRIPOS>SUBSTRUCTURE
     1 UNK         1 GROUP             0       ****    0 ROOT    
