@<TRIPOS>MOLECULE
ZINC02363662_2782
59   62    1
SMALL
USER_CHARGES


@<TRIPOS>ATOM
      1 C1          2.2487   48.4447   19.1430 C.3       1 UNK         0.0000 
      2 C2          1.4797   49.6626   18.5915 C.3       1 UNK         0.0000 
      3 C3          0.0594   49.8475   19.1628 C.3       1 UNK         0.0000 
      4 O4          2.2434   50.8730   18.5550 O.3       1 UNK         0.0000 
      5 C5          2.7046   51.5310   19.6804 C.ar      1 UNK         0.0000 
      6 C6          2.4598   51.1493   21.0052 C.ar      1 UNK         0.0000 
      7 C7          2.9447   51.9166   22.0585 C.ar      1 UNK         0.0000 
      8 C8          3.6840   53.0835   21.8157 C.ar      1 UNK         0.0000 
      9 C9          3.9526   53.4428   20.4919 C.ar      1 UNK         0.0000 
     10 C10         3.4654   52.6741   19.4393 C.ar      1 UNK         0.0000 
     11 C11         4.2073   53.9813   22.9537 C.3       1 UNK         0.0000 
     12 H12         4.1061   54.9880   22.5578 H         1 UNK         0.0000 
     13 C13         3.3760   53.9442   24.2383 C.ar      1 UNK         0.0000 
     14 C14         1.9745   53.8848   24.3256 C.ar      1 UNK         0.0000 
     15 N15         1.5363   53.6964   25.5376 N.2       1 UNK         0.0000 
     16 N16         2.6136   53.7345   26.3221 N.pl3     1 UNK         0.0000 
     17 C17         3.7603   53.9556   25.5879 C.ar      1 UNK         0.0000 
     18 N18         4.9726   54.0959   26.2302 N.am      1 UNK         0.0000 
     19 C19         6.1857   54.5235   25.8576 C.2       1 UNK         0.0000 
     20 O20         7.1044   54.5779   26.6653 O.2       1 UNK         0.0000 
     21 C21         6.3732   54.9584   24.4010 C.3       1 UNK         0.0000 
     22 S22         5.9934   53.6967   23.1534 S.3       1 UNK         0.0000 
     23 C23         2.4622   53.6786   27.7961 C.3       1 UNK         0.0000 
     24 H24         3.4108   53.2900   28.1669 H         1 UNK         0.0000 
     25 C25         2.1815   55.1125   28.2990 C.3       1 UNK         0.0000 
     26 C26         1.7583   55.1791   29.7747 C.3       1 UNK         0.0000 
     27 O27         0.7394   54.2171   30.0614 O.3       1 UNK         0.0000 
     28 C28         1.0136   52.8463   29.7405 C.3       1 UNK         0.0000 
     29 C29         1.2818   52.7677   28.2187 C.3       1 UNK         0.0000 
     30 C30         2.2160   52.3135   30.5520 C.3       1 UNK         0.0000 
     31 C31        -0.2919   52.0970   30.0418 C.3       1 UNK         0.0000 
     32 O32         1.1045   53.9755   23.2812 O.3       1 UNK         0.0000 
     33 H33         1.6210   47.5538   19.1547 H         1 UNK         0.0000 
     34 H34         2.6357   48.5868   20.1492 H         1 UNK         0.0000 
     35 H35         3.1038   48.2233   18.5019 H         1 UNK         0.0000 
     36 H36         1.3270   49.4373   17.5351 H         1 UNK         0.0000 
     37 H37        -0.5058   48.9174   19.1101 H         1 UNK         0.0000 
     38 H38         0.0442   50.1761   20.1986 H         1 UNK         0.0000 
     39 H39        -0.4872   50.5908   18.5823 H         1 UNK         0.0000 
     40 H40         1.8881   50.2715   21.2502 H         1 UNK         0.0000 
     41 H41         2.7044   51.6016   23.0641 H         1 UNK         0.0000 
     42 H42         4.5314   54.3280   20.2718 H         1 UNK         0.0000 
     43 H43         3.6748   52.9660   18.4203 H         1 UNK         0.0000 
     44 H44         4.9667   53.8340   27.2030 H         1 UNK         0.0000 
     45 H45         7.4375   55.1603   24.2767 H         1 UNK         0.0000 
     46 H46         5.9008   55.9145   24.2063 H         1 UNK         0.0000 
     47 H47         3.0956   55.6963   28.1994 H         1 UNK         0.0000 
     48 H48         1.4329   55.6063   27.6819 H         1 UNK         0.0000 
     49 H49         2.6264   55.0230   30.4122 H         1 UNK         0.0000 
     50 H50         1.3794   56.1744   30.0108 H         1 UNK         0.0000 
     51 H51         0.3757   53.0030   27.6587 H         1 UNK         0.0000 
     52 H52         1.5313   51.7331   27.9765 H         1 UNK         0.0000 
     53 H53         2.4459   51.2968   30.2429 H         1 UNK         0.0000 
     54 H54         3.1290   52.8898   30.4173 H         1 UNK         0.0000 
     55 H55         1.9937   52.3038   31.6201 H         1 UNK         0.0000 
     56 H56        -0.2573   51.0682   29.6819 H         1 UNK         0.0000 
     57 H57        -0.4956   52.0765   31.1127 H         1 UNK         0.0000 
     58 H58        -1.1468   52.5688   29.5603 H         1 UNK         0.0000 
     59 H59         1.5846   53.9833   22.4471 H         1 UNK         0.0000 
@<TRIPOS>BOND
     1    1    2 1    
     2    1   33 1    
     3    1   34 1    
     4    1   35 1    
     5    2    3 1    
     6    2    4 1    
     7    2   36 1    
     8    3   37 1    
     9    3   38 1    
    10    3   39 1    
    11    4    5 1    
    12    5   10 ar   
    13    5    6 ar   
    14    6    7 ar   
    15    6   40 1    
    16    7    8 ar   
    17    7   41 1    
    18    8    9 ar   
    19    8   11 1    
    20    9   10 ar   
    21    9   42 1    
    22   10   43 1    
    23   11   12 1    
    24   11   22 1    
    25   11   13 1    
    26   13   17 ar   
    27   13   14 ar   
    28   14   15 ar   
    29   14   32 1    
    30   15   16 ar   
    31   16   17 ar   
    32   16   23 1    
    33   17   18 1    
    34   18   19 am   BACKBONE|DICT|INTERRES
    35   18   44 1    
    36   19   20 2    
    37   19   21 1    
    38   21   22 1    
    39   21   45 1    
    40   21   46 1    
    41   23   24 1    
    42   23   29 1    
    43   23   25 1    
    44   25   26 1    
    45   25   47 1    
    46   25   48 1    
    47   26   27 1    
    48   26   49 1    
    49   26   50 1    
    50   27   28 1    
    51   28   29 1    
    52   28   30 1    
    53   28   31 1    
    54   29   51 1    
    55   29   52 1    
    56   30   53 1    
    57   30   54 1    
    58   30   55 1    
    59   31   56 1    
    60   31   57 1    
    61   31   58 1    
    62   32   59 1    
@<TRIPOS>SUBSTRUCTURE
     1 UNK         1 GROUP             0       ****    0 ROOT    
