@<TRIPOS>MOLECULE
ZINC06146150_5490
57   60    1
SMALL
USER_CHARGES


@<TRIPOS>ATOM
      1 C1          5.4416   54.0063   28.3450 C.3       1 UNK         0.0000 
      2 C2          6.3064   54.4948   27.1867 C.3       1 UNK         0.0000 
      3 O3          5.6549   54.2815   25.9373 O.3       1 UNK         0.0000 
      4 C4          6.1498   54.8645   24.8156 C.2       1 UNK         0.0000 
      5 O5          7.1043   55.6416   24.8350 O.2       1 UNK         0.0000 
      6 C6          5.4082   54.4963   23.5838 C.2       1 UNK         0.0000 
      7 C7          5.9040   54.6750   22.2495 C.2       1 UNK         0.0000 
      8 C8          4.9897   54.2928   21.2552 C.2       1 UNK         0.0000 
      9 S9          3.5428   53.6576   21.9162 S.3       1 UNK         0.0000 
     10 C10         4.0893   53.9884   23.5370 C.2       1 UNK         0.0000 
     11 N11         3.2812   53.6792   24.6309 N.am      1 UNK         0.0000 
     12 C12         1.9371   53.5217   24.6593 C.2       1 UNK         0.0000 
     13 O13         1.2037   53.8620   23.7276 O.2       1 UNK         0.0000 
     14 C14         1.3514   52.9334   25.9434 C.ar      1 UNK         0.0000 
     15 C15         2.1303   52.8967   27.1171 C.ar      1 UNK         0.0000 
     16 C16         1.6560   52.3277   28.2945 C.ar      1 UNK         0.0000 
     17 C17         0.3819   51.7781   28.3308 C.ar      1 UNK         0.0000 
     18 C18        -0.4197   51.8176   27.1967 C.ar      1 UNK         0.0000 
     19 C19         0.0336   52.3987   26.0025 C.ar      1 UNK         0.0000 
     20 N20        -0.8007   52.4742   24.8703 N.pl3     1 UNK         0.0000 
     21 S21        -2.4761   51.9336   24.6999 S.o2      1 UNK         0.0000 
     22 O22        -3.1827   52.1858   25.9612 O.2       1 UNK         0.0000 
     23 O23        -2.9451   52.5369   23.4478 O.2       1 UNK         0.0000 
     24 C24        -2.3724   50.1668   24.4259 C.ar      1 UNK         0.0000 
     25 C25        -2.4036   49.2814   25.5072 C.ar      1 UNK         0.0000 
     26 C26        -2.2972   47.9123   25.2817 C.ar      1 UNK         0.0000 
     27 C27        -2.1755   47.4296   23.9806 C.ar      1 UNK         0.0000 
     28 C28        -2.1418   48.3083   22.8998 C.ar      1 UNK         0.0000 
     29 C29        -2.2348   49.6804   23.1221 C.ar      1 UNK         0.0000 
     30 F30        -2.0951   46.0974   23.7648 F         1 UNK         0.0000 
     31 C31         5.1501   54.4699   19.7488 C.3       1 UNK         0.0000 
     32 C32         6.5870   54.9054   19.3987 C.3       1 UNK         0.0000 
     33 C33         7.1696   55.8927   20.4191 C.3       1 UNK         0.0000 
     34 C34         7.2435   55.2986   21.8428 C.3       1 UNK         0.0000 
     35 H35         5.9671   54.1744   29.2815 H         1 UNK         0.0000 
     36 H36         4.5014   54.5555   28.3972 H         1 UNK         0.0000 
     37 H37         5.2288   52.9397   28.2642 H         1 UNK         0.0000 
     38 H38         7.2621   53.9687   27.1903 H         1 UNK         0.0000 
     39 H39         6.5194   55.5551   27.3340 H         1 UNK         0.0000 
     40 H40         3.7568   53.7210   25.5200 H         1 UNK         0.0000 
     41 H41         3.1312   53.2924   27.1352 H         1 UNK         0.0000 
     42 H42         2.2799   52.3024   29.1755 H         1 UNK         0.0000 
     43 H43         0.0089   51.3188   29.2360 H         1 UNK         0.0000 
     44 H44        -1.4006   51.3847   27.2816 H         1 UNK         0.0000 
     45 H45        -0.3673   52.8592   24.0403 H         1 UNK         0.0000 
     46 H46        -2.5065   49.6344   26.5235 H         1 UNK         0.0000 
     47 H47        -2.3022   47.2347   26.1249 H         1 UNK         0.0000 
     48 H48        -2.0441   47.9263   21.8939 H         1 UNK         0.0000 
     49 H49        -2.2040   50.3616   22.2821 H         1 UNK         0.0000 
     50 H50         4.4582   55.2398   19.4045 H         1 UNK         0.0000 
     51 H51         4.9007   53.5543   19.2112 H         1 UNK         0.0000 
     52 H52         6.5939   55.3537   18.4038 H         1 UNK         0.0000 
     53 H53         7.2336   54.0338   19.3175 H         1 UNK         0.0000 
     54 H54         6.5582   56.7965   20.4280 H         1 UNK         0.0000 
     55 H55         8.1664   56.2042   20.1012 H         1 UNK         0.0000 
     56 H56         8.0334   54.5520   21.9112 H         1 UNK         0.0000 
     57 H57         7.5495   56.0966   22.5121 H         1 UNK         0.0000 
@<TRIPOS>BOND
     1    1    2 1    
     2    1   35 1    
     3    1   36 1    
     4    1   37 1    
     5    2    3 1    
     6    2   38 1    
     7    2   39 1    
     8    3    4 1    
     9    4    5 2    
    10    4    6 1    
    11    6   10 2    
    12    6    7 1    
    13    7   34 1    
    14    7    8 2    
    15    8    9 1    
    16    8   31 1    
    17    9   10 1    
    18   10   11 am   BACKBONE|DICT|INTERRES
    19   11   12 am   BACKBONE|DICT|INTERRES
    20   11   40 1    
    21   12   13 2    
    22   12   14 1    
    23   14   19 ar   
    24   14   15 ar   
    25   15   16 ar   
    26   15   41 1    
    27   16   17 ar   
    28   16   42 1    
    29   17   18 ar   
    30   17   43 1    
    31   18   19 ar   
    32   18   44 1    
    33   19   20 1    
    34   20   21 1    
    35   20   45 1    
    36   21   22 2    
    37   21   23 2    
    38   21   24 1    
    39   24   29 ar   
    40   24   25 ar   
    41   25   26 ar   
    42   25   46 1    
    43   26   27 ar   
    44   26   47 1    
    45   27   28 ar   
    46   27   30 1    
    47   28   29 ar   
    48   28   48 1    
    49   29   49 1    
    50   31   32 1    
    51   31   50 1    
    52   31   51 1    
    53   32   33 1    
    54   32   52 1    
    55   32   53 1    
    56   33   34 1    
    57   33   54 1    
    58   33   55 1    
    59   34   56 1    
    60   34   57 1    
@<TRIPOS>SUBSTRUCTURE
     1 UNK         1 GROUP             0       ****    0 ROOT    
