@<TRIPOS>MOLECULE
ZINC31043992_4838
65   68    1
SMALL
USER_CHARGES


@<TRIPOS>ATOM
      1 C1          6.4808   55.7000   16.1558 C.3       1 UNK         0.0000 
      2 C2          7.8470   56.2228   16.6411 C.3       1 UNK         0.0000 
      3 C3          8.5229   55.4133   17.7865 C.3       1 UNK         0.0000 
      4 H4          9.3934   55.9846   18.1188 H         1 UNK         0.0000 
      5 C5          9.0440   54.0652   17.2807 C.ar      1 UNK         0.0000 
      6 C6          8.1925   52.9596   17.1728 C.ar      1 UNK         0.0000 
      7 C7          8.6825   51.7289   16.7484 C.ar      1 UNK         0.0000 
      8 C8         10.0324   51.5700   16.4308 C.ar      1 UNK         0.0000 
      9 C9         10.8971   52.6735   16.5275 C.ar      1 UNK         0.0000 
     10 C10        10.3960   53.9109   16.9518 C.ar      1 UNK         0.0000 
     11 C11        12.3775   52.5469   16.1973 C.3       1 UNK         0.0000 
     12 C12        10.5282   50.2019   15.9828 C.3       1 UNK         0.0000 
     13 N13         7.6957   55.2198   18.9839 N.am      1 UNK         0.0000 
     14 C14         7.0913   56.1673   19.7201 C.2       1 UNK         0.0000 
     15 O15         7.1044   57.3632   19.4381 O.2       1 UNK         0.0000 
     16 C16         6.3756   55.7100   21.0011 C.3       1 UNK         0.0000 
     17 H17         5.8938   56.6238   21.3401 H         1 UNK         0.0000 
     18 C18         7.4041   55.2873   22.0774 C.3       1 UNK         0.0000 
     19 C19         6.7022   54.6991   23.3174 C.3       1 UNK         0.0000 
     20 C20         5.6683   53.6118   22.9717 C.3       1 UNK         0.0000 
     21 N21         4.6122   54.2231   22.0138 N.4       1 UNK         0.0000 
     22 C22         5.2789   54.6580   20.6846 C.3       1 UNK         0.0000 
     23 C23         3.4509   53.2372   21.7079 C.3       1 UNK         0.0000 
     24 C24         2.5862   52.9494   22.9269 C.2       1 UNK         0.0000 
     25 N25         2.6229   53.4738   24.1253 N.2       1 UNK         0.0000 
     26 C26         1.7341   52.7477   24.7838 C.2       1 UNK         0.0000 
     27 N27         1.0851   51.8544   24.0620 N.2       1 UNK         0.0000 
     28 O28         1.6568   51.9736   22.7992 O.3       1 UNK         0.0000 
     29 C29         1.5040   52.8955   26.2670 C.ar      1 UNK         0.0000 
     30 C30         0.5118   52.1415   26.9165 C.ar      1 UNK         0.0000 
     31 C31         0.2831   52.2941   28.2815 C.ar      1 UNK         0.0000 
     32 C32         1.0435   53.2029   29.0124 C.ar      1 UNK         0.0000 
     33 C33         2.0430   53.9460   28.3890 C.ar      1 UNK         0.0000 
     34 C34         2.2762   53.7865   27.0252 C.ar      1 UNK         0.0000 
     35 Br35        0.7073   53.4355   30.8727 Br        1 UNK         0.0000 
     36 H36         6.0583   56.3686   15.4035 H         1 UNK         0.0000 
     37 H37         6.5651   54.7150   15.6971 H         1 UNK         0.0000 
     38 H38         5.7607   55.6312   16.9728 H         1 UNK         0.0000 
     39 H39         7.7198   57.2572   16.9600 H         1 UNK         0.0000 
     40 H40         8.5282   56.2837   15.7916 H         1 UNK         0.0000 
     41 H41         7.1434   53.0435   17.4206 H         1 UNK         0.0000 
     42 H42         7.9989   50.8971   16.6773 H         1 UNK         0.0000 
     43 H43        11.0664   54.7546   17.0381 H         1 UNK         0.0000 
     44 H44        12.9265   53.4697   16.3878 H         1 UNK         0.0000 
     45 H45        12.8282   51.7607   16.8031 H         1 UNK         0.0000 
     46 H46        12.5115   52.2736   15.1502 H         1 UNK         0.0000 
     47 H47        11.2670   49.8184   16.6880 H         1 UNK         0.0000 
     48 H48         9.7195   49.4722   15.9018 H         1 UNK         0.0000 
     49 H49        11.0091   50.2758   15.0063 H         1 UNK         0.0000 
     50 H50         7.7275   54.2854   19.3601 H         1 UNK         0.0000 
     51 H51         8.0592   54.4969   21.7163 H         1 UNK         0.0000 
     52 H52         8.0003   56.1350   22.4177 H         1 UNK         0.0000 
     53 H53         7.4520   54.2841   23.9929 H         1 UNK         0.0000 
     54 H54         6.2185   55.4994   23.8783 H         1 UNK         0.0000 
     55 H55         6.1028   52.7384   22.4840 H         1 UNK         0.0000 
     56 H56         5.1665   53.2986   23.8849 H         1 UNK         0.0000 
     57 H57         4.4861   55.0855   20.0681 H         1 UNK         0.0000 
     58 H58         5.6631   53.7421   20.2272 H         1 UNK         0.0000 
     59 H59         2.8561   53.6962   20.9170 H         1 UNK         0.0000 
     60 H60         3.9195   52.3370   21.3053 H         1 UNK         0.0000 
     61 H61        -0.0966   51.4358   26.3670 H         1 UNK         0.0000 
     62 H62        -0.4839   51.7082   28.7701 H         1 UNK         0.0000 
     63 H63         2.6323   54.6495   28.9573 H         1 UNK         0.0000 
     64 H64         3.0532   54.3752   26.5606 H         1 UNK         0.0000 
     65 H65         4.2024   55.0350   22.4565 H         1 UNK         0.0000 
@<TRIPOS>BOND
     1    1    2 1    
     2    1   36 1    
     3    1   37 1    
     4    1   38 1    
     5    2    3 1    
     6    2   39 1    
     7    2   40 1    
     8    3    4 1    
     9    3    5 1    
    10    3   13 1    
    11    5   10 ar   
    12    5    6 ar   
    13    6    7 ar   
    14    6   41 1    
    15    7    8 ar   
    16    7   42 1    
    17    8    9 ar   
    18    8   12 1    
    19    9   10 ar   
    20    9   11 1    
    21   10   43 1    
    22   11   44 1    
    23   11   45 1    
    24   11   46 1    
    25   12   47 1    
    26   12   48 1    
    27   12   49 1    
    28   13   14 am   BACKBONE|DICT|INTERRES
    29   13   50 1    
    30   14   15 2    
    31   14   16 1    
    32   16   17 1    
    33   16   22 1    
    34   16   18 1    
    35   18   19 1    
    36   18   51 1    
    37   18   52 1    
    38   19   20 1    
    39   19   53 1    
    40   19   54 1    
    41   20   21 1    
    42   20   55 1    
    43   20   56 1    
    44   21   22 1    
    45   21   23 1    
    46   21   65 1    
    47   22   57 1    
    48   22   58 1    
    49   23   24 1    
    50   23   59 1    
    51   23   60 1    
    52   24   28 1    
    53   24   25 2    
    54   25   26 1    
    55   26   27 2    
    56   26   29 1    
    57   27   28 1    
    58   29   34 ar   
    59   29   30 ar   
    60   30   31 ar   
    61   30   61 1    
    62   31   32 ar   
    63   31   62 1    
    64   32   33 ar   
    65   32   35 1    
    66   33   34 ar   
    67   33   63 1    
    68   34   64 1    
@<TRIPOS>SUBSTRUCTURE
     1 UNK         1 GROUP             0       ****    0 ROOT    
