@<TRIPOS>MOLECULE
ZINC38959984_329
60   64    1
SMALL
USER_CHARGES


@<TRIPOS>ATOM
      1 C1         -0.4406   51.1607   24.7447 C.ar      1 UNK         0.0000 
      2 C2         -0.3618   52.5014   24.3831 C.ar      1 UNK         0.0000 
      3 C3          0.6594   52.9329   23.5389 C.ar      1 UNK         0.0000 
      4 C4          1.6093   52.0315   23.0418 C.ar      1 UNK         0.0000 
      5 C5          1.5003   50.6811   23.4099 C.ar      1 UNK         0.0000 
      6 C6          0.4874   50.2463   24.2593 C.ar      1 UNK         0.0000 
      7 N7          2.6460   52.4726   22.1931 N.pl3     1 UNK         0.0000 
      8 C8          3.2740   53.7976   22.1769 C.3       1 UNK         0.0000 
      9 H9          2.5170   54.5813   22.2133 H         1 UNK         0.0000 
     10 N10         3.9048   53.8556   20.8697 N.3       1 UNK         0.0000 
     11 N11         4.4392   52.5182   20.6896 N.3       1 UNK         0.0000 
     12 C12         3.5343   51.6298   21.3949 C.3       1 UNK         0.0000 
     13 H13         4.1467   51.0465   22.0813 H         1 UNK         0.0000 
     14 S14         2.7138   50.3697   20.3513 S.3       1 UNK         0.0000 
     15 C15         2.2943   51.2052   18.7908 C.3       1 UNK         0.0000 
     16 C16         0.9580   51.9561   18.8099 C.2       1 UNK         0.0000 
     17 O17         0.0088   51.5305   19.4730 O.2       1 UNK         0.0000 
     18 N18         0.8930   53.0557   18.0359 N.am      1 UNK         0.0000 
     19 N19        -0.2814   53.6134   17.6822 N.2       1 UNK         0.0000 
     20 C20        -0.1467   54.7217   17.0807 C.2       1 UNK         0.0000 
     21 C21        -1.2929   55.4099   16.5627 C.2       1 UNK         0.0000 
     22 C22        -1.3094   56.6925   16.1431 C.2       1 UNK         0.0000 
     23 C23        -0.2583   57.7243   16.0979 C.2       1 UNK         0.0000 
     24 C24        -0.5246   58.9656   15.6488 C.2       1 UNK         0.0000 
     25 C25        -1.8763   59.2544   15.1953 C.2       1 UNK         0.0000 
     26 C26        -2.8600   58.3168   15.2221 C.2       1 UNK         0.0000 
     27 C27        -2.5954   57.0252   15.6979 C.2       1 UNK         0.0000 
     28 N28        -3.4048   55.9975   15.8054 N.pl3     1 UNK         0.0000 
     29 C29        -2.6829   54.8382   16.3568 C.3       1 UNK         0.0000 
     30 C30         4.2344   54.0398   23.3676 C.ar      1 UNK         0.0000 
     31 C31         5.6124   54.2361   23.1889 C.ar      1 UNK         0.0000 
     32 C32         6.4469   54.4717   24.2780 C.ar      1 UNK         0.0000 
     33 C33         5.9238   54.5051   25.5677 C.ar      1 UNK         0.0000 
     34 C34         4.5525   54.3140   25.7845 C.ar      1 UNK         0.0000 
     35 C35         3.7236   54.0938   24.6729 C.ar      1 UNK         0.0000 
     36 N36         3.9929   54.3324   27.1583 N.pl3     1 UNK         0.0000 
     37 O37         2.7814   54.1951   27.3009 O.co2     1 UNK         0.0000 
     38 O38         4.7612   54.4884   28.1037 O.co2     1 UNK         0.0000 
     39 H39        -1.2252   50.8241   25.4077 H         1 UNK         0.0000 
     40 H40        -1.0870   53.2054   24.7632 H         1 UNK         0.0000 
     41 H41         0.7075   53.9781   23.2797 H         1 UNK         0.0000 
     42 H42         2.2191   49.9523   23.0653 H         1 UNK         0.0000 
     43 H43         0.4304   49.2059   24.5472 H         1 UNK         0.0000 
     44 H44         3.1143   53.9086   20.2393 H         1 UNK         0.0000 
     45 H45         4.5043   52.3295   19.6959 H         1 UNK         0.0000 
     46 H46         3.1196   51.8400   18.4697 H         1 UNK         0.0000 
     47 H47         2.2174   50.4267   18.0313 H         1 UNK         0.0000 
     48 H48         1.7159   53.4524   17.6059 H         1 UNK         0.0000 
     49 H49         0.7994   55.2325   16.9103 H         1 UNK         0.0000 
     50 H50         0.7477   57.5307   16.4445 H         1 UNK         0.0000 
     51 H51         0.2462   59.7255   15.6376 H         1 UNK         0.0000 
     52 H52        -2.0973   60.2423   14.8173 H         1 UNK         0.0000 
     53 H53        -3.8449   58.5879   14.8678 H         1 UNK         0.0000 
     54 H54        -2.7171   54.0321   15.6216 H         1 UNK         0.0000 
     55 H55        -3.1763   54.5226   17.2762 H         1 UNK         0.0000 
     56 H56         6.0510   54.2098   22.2026 H         1 UNK         0.0000 
     57 H57         7.5032   54.6197   24.1165 H         1 UNK         0.0000 
     58 H58         6.5925   54.6728   26.4002 H         1 UNK         0.0000 
     59 H59         2.6664   53.9576   24.8321 H         1 UNK         0.0000 
     60 H60        -4.3884   55.9906   15.5480 H         1 UNK         0.0000 
@<TRIPOS>BOND
     1    1    6 ar   
     2    1    2 ar   
     3    1   39 1    
     4    2    3 ar   
     5    2   40 1    
     6    3    4 ar   
     7    3   41 1    
     8    4    5 ar   
     9    4    7 1    
    10    5    6 ar   
    11    5   42 1    
    12    6   43 1    
    13    7   12 1    
    14    7    8 1    
    15    8    9 1    
    16    8   10 1    
    17    8   30 1    
    18   10   11 1    
    19   10   44 1    
    20   11   12 1    
    21   11   45 1    
    22   12   13 1    
    23   12   14 1    
    24   14   15 1    
    25   15   16 1    
    26   15   46 1    
    27   15   47 1    
    28   16   17 2    
    29   16   18 am   BACKBONE|DICT|INTERRES
    30   18   19 1    
    31   18   48 1    
    32   19   20 2    
    33   20   21 1    
    34   20   49 1    
    35   21   29 1    
    36   21   22 2    
    37   22   27 1    
    38   22   23 1    
    39   23   24 2    
    40   23   50 1    
    41   24   25 1    
    42   24   51 1    
    43   25   26 2    
    44   25   52 1    
    45   26   27 1    
    46   26   53 1    
    47   27   28 2    
    48   28   29 1    
    49   28   60 1    
    50   29   54 1    
    51   29   55 1    
    52   30   35 ar   
    53   30   31 ar   
    54   31   32 ar   
    55   31   56 1    
    56   32   33 ar   
    57   32   57 1    
    58   33   34 ar   
    59   33   58 1    
    60   34   35 ar   
    61   34   36 1    
    62   35   59 1    
    63   36   37 2    
    64   36   38 1    
@<TRIPOS>SUBSTRUCTURE
     1 UNK         1 GROUP             0       ****    0 ROOT    
