@<TRIPOS>MOLECULE
ZINC02411007_2390
45   49    1
SMALL
USER_CHARGES


@<TRIPOS>ATOM
      1 C1          1.3389   50.4002   19.2334 C.ar      1 UNK         0.0000 
      2 C2          1.0433   50.2496   20.5869 C.ar      1 UNK         0.0000 
      3 C3          1.7189   50.9975   21.5510 C.ar      1 UNK         0.0000 
      4 C4          2.7164   51.9177   21.1523 C.ar      1 UNK         0.0000 
      5 C5          3.0140   52.0779   19.7682 C.ar      1 UNK         0.0000 
      6 C6          2.3115   51.3058   18.8137 C.ar      1 UNK         0.0000 
      7 N7          3.9814   52.9529   19.3765 N.ar      1 UNK         0.0000 
      8 C8          4.6604   53.6456   20.2963 C.ar      1 UNK         0.0000 
      9 C9          5.7270   54.5842   20.1989 C.ar      1 UNK         0.0000 
     10 C10         6.0717   54.8969   21.5035 C.ar      1 UNK         0.0000 
     11 N11         5.2530   54.2406   22.4299 N.pl3     1 UNK         0.0000 
     12 C12         4.3643   53.4684   21.6696 C.ar      1 UNK         0.0000 
     13 N13         3.4047   52.6319   22.0818 N.ar      1 UNK         0.0000 
     14 N14         5.4541   54.3867   23.8098 N.2       1 UNK         0.0000 
     15 C15         4.5103   54.1103   24.6190 C.2       1 UNK         0.0000 
     16 C16         4.6852   54.1707   26.0681 C.2       1 UNK         0.0000 
     17 C17         3.6979   53.9651   27.0286 C.2       1 UNK         0.0000 
     18 C18         4.1692   54.0769   28.3412 C.2       1 UNK         0.0000 
     19 C19         5.5237   54.3645   28.3982 C.2       1 UNK         0.0000 
     20 S20         6.2286   54.4970   26.8192 S.3       1 UNK         0.0000 
     21 N21         7.1045   55.6962   21.9130 N.pl3     1 UNK         0.0000 
     22 S22         6.5516   55.1528   18.6872 S.o2      1 UNK         0.0000 
     23 O23         7.6223   56.0664   19.1058 O.2       1 UNK         0.0000 
     24 O24         6.8412   53.9497   17.9021 O.2       1 UNK         0.0000 
     25 C25         5.3359   56.1052   17.7736 C.ar      1 UNK         0.0000 
     26 C26         5.4887   57.4876   17.6211 C.ar      1 UNK         0.0000 
     27 C27         4.5538   58.2099   16.8818 C.ar      1 UNK         0.0000 
     28 C28         3.4601   57.5549   16.3181 C.ar      1 UNK         0.0000 
     29 C29         3.3111   56.1767   16.4619 C.ar      1 UNK         0.0000 
     30 C30         4.2581   55.4495   17.1764 C.ar      1 UNK         0.0000 
     31 Cl31        2.2832   58.4540   15.4356 Cl        1 UNK         0.0000 
     32 H32         0.8181   49.8022   18.5000 H         1 UNK         0.0000 
     33 H33         0.2899   49.5404   20.8950 H         1 UNK         0.0000 
     34 H34         1.4944   50.8708   22.6012 H         1 UNK         0.0000 
     35 H35         2.5587   51.4011   17.7655 H         1 UNK         0.0000 
     36 H36         3.5076   53.8140   24.3248 H         1 UNK         0.0000 
     37 H37         2.6680   53.7381   26.7910 H         1 UNK         0.0000 
     38 H38         3.5452   53.9511   29.2138 H         1 UNK         0.0000 
     39 H39         6.1368   54.5038   29.2787 H         1 UNK         0.0000 
     40 H40         7.7522   56.0553   21.2205 H         1 UNK         0.0000 
     41 H41         7.4159   55.6974   22.8751 H         1 UNK         0.0000 
     42 H42         6.3285   58.0035   18.0629 H         1 UNK         0.0000 
     43 H43         4.6683   59.2810   16.7611 H         1 UNK         0.0000 
     44 H44         2.4683   55.6729   16.0123 H         1 UNK         0.0000 
     45 H45         4.1562   54.3783   17.2555 H         1 UNK         0.0000 
@<TRIPOS>BOND
     1    1    6 ar   
     2    1    2 ar   
     3    1   32 1    
     4    2    3 ar   
     5    2   33 1    
     6    3    4 ar   
     7    3   34 1    
     8    4   13 ar   
     9    4    5 ar   
    10    5    6 ar   
    11    5    7 ar   
    12    6   35 1    
    13    7    8 ar   
    14    8   12 ar   
    15    8    9 ar   
    16    9   10 ar   
    17    9   22 1    
    18   10   11 ar   
    19   10   21 1    
    20   11   12 ar   
    21   11   14 1    
    22   12   13 ar   
    23   14   15 2    
    24   15   16 1    
    25   15   36 1    
    26   16   20 1    
    27   16   17 2    
    28   17   18 1    
    29   17   37 1    
    30   18   19 2    
    31   18   38 1    
    32   19   20 1    
    33   19   39 1    
    34   21   40 1    
    35   21   41 1    
    36   22   23 2    
    37   22   24 2    
    38   22   25 1    
    39   25   30 ar   
    40   25   26 ar   
    41   26   27 ar   
    42   26   42 1    
    43   27   28 ar   
    44   27   43 1    
    45   28   29 ar   
    46   28   31 1    
    47   29   30 ar   
    48   29   44 1    
    49   30   45 1    
@<TRIPOS>SUBSTRUCTURE
     1 UNK         1 GROUP             0       ****    0 ROOT    
