@<TRIPOS>MOLECULE
ZINC04269869_2539
44   46    1
SMALL
USER_CHARGES


@<TRIPOS>ATOM
      1 C1         -1.0089   49.1816   24.4574 C.3       1 UNK         0.0000 
      2 C2          0.3524   49.6613   23.9417 C.3       1 UNK         0.0000 
      3 O3          0.2490   49.9916   22.5597 O.3       1 UNK         0.0000 
      4 C4          1.3315   49.9283   21.7545 C.2       1 UNK         0.0000 
      5 O5          2.4293   49.4775   22.0817 O.2       1 UNK         0.0000 
      6 C6          1.0474   50.4953   20.3408 C.3       1 UNK         0.0000 
      7 H7         -0.0266   50.3599   20.2065 H         1 UNK         0.0000 
      8 C8          1.2753   52.0490   20.3090 C.3       1 UNK         0.0000 
      9 H9          0.5030   52.5306   20.9042 H         1 UNK         0.0000 
     10 N10         0.9407   52.4968   18.9514 N.pl3     1 UNK         0.0000 
     11 C11         1.0758   51.7924   17.7983 C.2       1 UNK         0.0000 
     12 S12         0.8387   52.5039   16.3270 S.2       1 UNK         0.0000 
     13 N13         1.4264   50.4833   17.9065 N.pl3     1 UNK         0.0000 
     14 C14         1.7051   49.7092   19.1301 C.3       1 UNK         0.0000 
     15 C15         1.1822   48.2447   18.9986 C.3       1 UNK         0.0000 
     16 F16         1.6862   47.6299   17.9260 F         1 UNK         0.0000 
     17 F17         1.4858   47.4847   20.0505 F         1 UNK         0.0000 
     18 F18        -0.1464   48.2159   18.8692 F         1 UNK         0.0000 
     19 O19         3.1044   49.6493   19.2818 O.3       1 UNK         0.0000 
     20 C20         2.6331   52.5578   20.8495 C.ar      1 UNK         0.0000 
     21 C21         3.7371   52.6155   19.9922 C.ar      1 UNK         0.0000 
     22 C22         4.9504   53.1459   20.4003 C.ar      1 UNK         0.0000 
     23 C23         5.1036   53.6442   21.6859 C.ar      1 UNK         0.0000 
     24 C24         4.0260   53.6130   22.5986 C.ar      1 UNK         0.0000 
     25 C25         2.7633   53.0689   22.1909 C.ar      1 UNK         0.0000 
     26 C26         1.7062   53.0723   23.1504 C.ar      1 UNK         0.0000 
     27 C27         1.8981   53.5786   24.4322 C.ar      1 UNK         0.0000 
     28 C28         3.1285   54.0946   24.8122 C.ar      1 UNK         0.0000 
     29 C29         4.1882   54.1110   23.9144 C.ar      1 UNK         0.0000 
     30 H30        -0.9558   48.9321   25.5188 H         1 UNK         0.0000 
     31 H31        -1.3355   48.2880   23.9243 H         1 UNK         0.0000 
     32 H32        -1.7740   49.9491   24.3349 H         1 UNK         0.0000 
     33 H33         0.6728   50.5450   24.4950 H         1 UNK         0.0000 
     34 H34         1.1041   48.8896   24.1183 H         1 UNK         0.0000 
     35 H35         0.7618   53.4807   18.8091 H         1 UNK         0.0000 
     36 H36         1.6682   50.0613   17.0198 H         1 UNK         0.0000 
     37 H37         3.5494   49.6970   18.4180 H         1 UNK         0.0000 
     38 H38         3.6643   52.2449   18.9800 H         1 UNK         0.0000 
     39 H39         5.7759   53.1721   19.7045 H         1 UNK         0.0000 
     40 H40         6.0503   54.0605   21.9958 H         1 UNK         0.0000 
     41 H41         0.7369   52.6670   22.9115 H         1 UNK         0.0000 
     42 H42         1.0843   53.5609   25.1414 H         1 UNK         0.0000 
     43 H43         3.2650   54.4751   25.8145 H         1 UNK         0.0000 
     44 H44         5.1431   54.5145   24.2176 H         1 UNK         0.0000 
@<TRIPOS>BOND
     1    1    2 1    
     2    1   30 1    
     3    1   31 1    
     4    1   32 1    
     5    2    3 1    
     6    2   33 1    
     7    2   34 1    
     8    3    4 1    
     9    4    5 2    
    10    4    6 1    
    11    6    7 1    
    12    6   14 1    
    13    6    8 1    
    14    8    9 1    
    15    8   10 1    
    16    8   20 1    
    17   10   11 1    
    18   10   35 1    
    19   11   12 2    
    20   11   13 1    
    21   13   14 1    
    22   13   36 1    
    23   14   15 1    
    24   14   19 1    
    25   15   16 1    
    26   15   17 1    
    27   15   18 1    
    28   19   37 1    
    29   20   25 ar   
    30   20   21 ar   
    31   21   22 ar   
    32   21   38 1    
    33   22   23 ar   
    34   22   39 1    
    35   23   24 ar   
    36   23   40 1    
    37   24   29 ar   
    38   24   25 ar   
    39   25   26 ar   
    40   26   27 ar   
    41   26   41 1    
    42   27   28 ar   
    43   27   42 1    
    44   28   29 ar   
    45   28   43 1    
    46   29   44 1    
@<TRIPOS>SUBSTRUCTURE
     1 UNK         1 GROUP             0       ****    0 ROOT    
