ZINC51144767_4961
                    3D
 Schrodinger Suite 2024-2.
 57 61  0  0  1  0            999 V2000
    1.7611   56.0159   29.1910 C   0  0  0  0  0  0
    2.2582   55.2951   28.1113 C   0  0  0  0  0  0
    2.1902   53.9037   28.0657 C   0  0  0  0  0  0
    1.6550   53.2242   29.1660 C   0  0  0  0  0  0
    1.1659   53.9335   30.2745 C   0  0  0  0  0  0
    1.1959   55.3353   30.2610 C   0  0  0  0  0  0
    0.6725   53.2222   31.4669 N   0  3  0  0  0  0
   -0.0948   53.8211   32.2102 O   0  0  0  0  0  0
    1.1044   52.0967   31.6817 O   0  5  0  0  0  0
    2.6854   53.1544   26.8048 C   0  0  2  0  0  0
    2.9471   52.1652   27.1899 H   0  0  0  0  0  0
    3.9882   53.6967   26.1856 C   0  0  0  0  0  0
    4.1863   53.7958   24.8336 C   0  0  0  0  0  0
    5.5449   54.2669   24.2490 C   0  0  0  0  0  0
    6.7044   54.2153   25.2499 C   0  0  0  0  0  0
    6.3209   54.6691   26.6519 C   0  0  0  0  0  0
    5.1040   53.9055   27.1531 C   0  0  0  0  0  0
    5.1226   53.3928   28.2726 O   0  0  0  0  0  0
    3.1997   53.3679   23.9073 N   0  0  0  0  0  0
    1.9453   53.0049   24.2863 C   0  0  0  0  0  0
    1.5405   53.0982   25.7518 C   0  0  1  0  0  0
    0.4318   52.0899   26.1777 C   0  0  0  0  0  0
    0.7044   51.0473   26.7807 O   0  0  0  0  0  0
   -0.8360   52.4496   25.7377 N   0  0  0  0  0  0
   -1.9029   51.9321   26.2236 C   0  0  0  0  0  0
   -2.1045   50.8967   27.1266 N   0  0  0  0  0  0
   -3.3967   50.5818   27.4534 C   0  0  0  0  0  0
   -4.3118   51.3286   26.8278 C   0  0  0  0  0  0
   -3.5398   52.4965   25.7546 S   0  0  0  0  0  0
    1.0016   52.6716   23.3887 N   0  3  0  0  0  0
    3.5275   53.2327   22.4817 C   0  0  0  0  0  0
    3.4249   51.9938   21.8262 C   0  0  0  0  0  0
    3.7569   51.8720   20.4768 C   0  0  0  0  0  0
    4.1934   52.9888   19.7691 C   0  0  0  0  0  0
    4.3042   54.2183   20.4010 C   0  0  0  0  0  0
    3.9360   54.3390   21.7368 C   0  0  0  0  0  0
    4.4936   52.8967   18.4557 F   0  0  0  0  0  0
    1.8169   57.0954   29.2007 H   0  0  0  0  0  0
    2.7044   55.8049   27.2817 H   0  0  0  0  0  0
    1.6154   52.1432   29.1588 H   0  0  0  0  0  0
    0.8277   55.9033   31.1045 H   0  0  0  0  0  0
    5.8683   53.6811   23.3877 H   0  0  0  0  0  0
    5.4449   55.2961   23.9072 H   0  0  0  0  0  0
    7.1044   53.2053   25.3038 H   0  0  0  0  0  0
    7.5211   54.8322   24.8765 H   0  0  0  0  0  0
    7.1352   54.5649   27.3703 H   0  0  0  0  0  0
    6.0349   55.7145   26.6409 H   0  0  0  0  0  0
   -3.5543   49.7734   28.1589 H   0  0  0  0  0  0
   -5.3864   51.2629   26.9163 H   0  0  0  0  0  0
    1.2265   52.6315   22.4026 H   0  0  0  0  0  0
    3.1043   51.1110   22.3625 H   0  0  0  0  0  0
    3.6825   50.9211   19.9666 H   0  0  0  0  0  0
    4.6294   55.0807   19.8383 H   0  0  0  0  0  0
    3.9729   55.2967   22.2064 H   0  0  0  0  0  0
   -1.3253   50.3382   27.4623 H   0  0  0  0  0  0
    1.1044   54.0890   25.7906 H   0  0  0  0  0  0
    0.0629   52.4679   23.7162 H   0  0  0  0  0  0
  1  6  2  0  0  0
  1  2  1  0  0  0
  1 38  1  0  0  0
  2  3  2  0  0  0
  2 39  1  0  0  0
  3  4  1  0  0  0
  3 10  1  0  0  0
  4  5  2  0  0  0
  4 40  1  0  0  0
  5  6  1  0  0  0
  5  7  1  0  0  0
  6 41  1  0  0  0
  7  8  2  0  0  0
  7  9  1  0  0  0
 10 11  1  0  0  0
 10 12  1  0  0  0
 10 21  1  0  0  0
 12 17  1  0  0  0
 12 13  2  0  0  0
 13 14  1  0  0  0
 13 19  1  0  0  0
 14 15  1  0  0  0
 14 42  1  0  0  0
 14 43  1  0  0  0
 15 16  1  0  0  0
 15 44  1  0  0  0
 15 45  1  0  0  0
 16 17  1  0  0  0
 16 46  1  0  0  0
 16 47  1  0  0  0
 17 18  2  0  0  0
 19 31  1  0  0  0
 19 20  1  0  0  0
 20 30  2  0  0  0
 20 21  1  0  0  0
 21 22  1  0  0  0
 21 56  1  0  0  0
 22 23  2  0  0  0
 22 24  1  0  0  0
 24 25  2  0  0  0
 25 29  1  0  0  0
 25 26  1  0  0  0
 26 27  1  0  0  0
 26 55  1  0  0  0
 27 28  2  0  0  0
 27 48  1  0  0  0
 28 29  1  0  0  0
 28 49  1  0  0  0
 30 50  1  0  0  0
 30 57  1  0  0  0
 31 36  2  0  0  0
 31 32  1  0  0  0
 32 33  2  0  0  0
 32 51  1  0  0  0
 33 34  1  0  0  0
 33 52  1  0  0  0
 34 35  2  0  0  0
 34 37  1  0  0  0
 35 36  1  0  0  0
 35 53  1  0  0  0
 36 54  1  0  0  0
M  CHG  3   7   1   9  -1  30   1
M  END
> <i_i_glide_confnum>
91

> <i_i_glide_lignum>
4962

> <i_i_glide_posenum>
146

> <i_i_glide_rotatable_bonds>
5

> <i_m_Source_File_Index>
1478

> <b_m_subgroup_collapsed>
0

> <r_i_docking_score>
-6.83307

> <r_i_glide_ecoul>
-1.89257

> <r_i_glide_eff_state_penalty>
0

> <r_i_glide_einternal>
8.04598

> <r_i_glide_emodel>
-62.2046

> <r_i_glide_energy>
-46.2707

> <r_i_glide_erotb>
0.318984

> <r_i_glide_esite>
-0.455184

> <r_i_glide_evdw>
-44.3781

> <r_i_glide_gscore>
-6.83307

> <r_i_glide_hbond>
-0.052573

> <r_i_glide_ligand_efficiency>
-0.189807

> <r_i_glide_ligand_efficiency_ln>
-1.49079

> <r_i_glide_ligand_efficiency_sa>
-0.626731

> <r_i_glide_lipo>
-3.11477

> <r_i_glide_metal>
0

> <r_i_glide_rewards>
-1.02673

> <s_i_glide_gridfile>
wee1_glide-grid

> <s_m_Source_File>
wee1_decoys_glide_SP.sdf

> <s_m_Source_Path>
/Users/zhangxujun/Desktop

> <s_m_entry_id>
1753

> <s_m_entry_name>
wee1_decoys_glide_SP.1478

> <s_m_subgroup_title>
wee1_decoys_glide_SP

> <s_m_subgroupid>
wee1_decoys_glide_SP


$$$$
