ZINC34923794_1033
                    3D
 Schrodinger Suite 2024-2.
 66 70  0  0  1  0            999 V2000
    1.7939   42.6446   16.1903 C   0  0  0  0  0  0
    1.0116   43.6063   17.0826 C   0  0  0  0  0  0
    0.6622   43.4404   18.4013 C   0  0  0  0  0  0
   -0.1873   44.5410   19.1128 C   0  0  1  0  0  0
    0.3036   44.8109   20.0435 H   0  0  0  0  0  0
   -0.1981   45.7851   18.2939 N   0  0  0  0  0  0
   -0.6854   47.0176   18.7064 C   0  0  0  0  0  0
   -0.8641   47.8504   17.6626 C   0  0  0  0  0  0
   -0.4051   47.1646   16.1082 S   0  0  0  0  0  0
    0.1109   45.6886   16.9380 C   0  0  0  0  0  0
    0.6153   44.6814   16.3395 N   0  0  0  0  0  0
   -0.9616   47.4004   20.0903 C   0  0  0  0  0  0
   -0.8387   48.6342   20.6167 C   0  0  0  0  0  0
   -0.4430   49.7260   20.0593 O   0  5  0  0  0  0
   -1.1603   48.8441   21.9475 N   0  0  0  0  0  0
   -0.7428   49.8708   22.9139 C   0  0  2  0  0  0
   -1.3493   51.2547   22.5673 C   0  0  0  0  0  0
   -0.9074   52.3136   23.5919 C   0  0  0  0  0  0
    0.6399   52.3481   23.5749 N   0  3  2  0  0  0
    1.2217   50.9970   24.0508 C   0  0  0  0  0  0
    0.7974   49.9245   23.0290 C   0  0  0  0  0  0
    1.1730   53.5239   24.4219 C   0  0  0  0  0  0
    2.6679   53.7896   24.2661 C   0  0  0  0  0  0
    3.4756   53.9295   25.3998 C   0  0  0  0  0  0
    4.8461   54.1518   25.2572 C   0  0  0  0  0  0
    5.4021   54.2291   23.9820 C   0  0  0  0  0  0
    4.6016   54.0970   22.8475 C   0  0  0  0  0  0
    3.2320   53.8907   22.9915 C   0  0  0  0  0  0
   -1.6028   44.0652   19.4312 C   0  0  0  0  0  0
   -2.1750   44.0777   20.7142 C   0  0  0  0  0  0
   -3.4858   43.6221   20.7532 C   0  0  0  0  0  0
   -4.0517   43.1538   19.1886 S   0  0  0  0  0  0
   -2.5185   43.5764   18.5024 C   0  0  0  0  0  0
    1.1180   42.3333   19.2712 C   0  0  0  0  0  0
    0.5987   42.0998   20.3655 O   0  0  0  0  0  0
    2.1601   41.6244   18.7961 O   0  0  0  0  0  0
    2.7047   40.5339   19.5243 C   0  0  0  0  0  0
    2.8647   42.8011   16.3300 H   0  0  0  0  0  0
    1.5558   41.6043   16.4135 H   0  0  0  0  0  0
    1.5757   42.7815   15.1261 H   0  0  0  0  0  0
   -1.2287   48.8653   17.7205 H   0  0  0  0  0  0
   -1.3110   46.6229   20.7487 H   0  0  0  0  0  0
   -1.5369   48.0381   22.4212 H   0  0  0  0  0  0
   -1.1358   49.5802   23.8907 H   0  0  0  0  0  0
   -1.0248   51.5994   21.5868 H   0  0  0  0  0  0
   -2.4395   51.1919   22.5328 H   0  0  0  0  0  0
   -1.2366   52.1014   24.6107 H   0  0  0  0  0  0
   -1.2654   53.2960   23.2837 H   0  0  0  0  0  0
    0.8610   50.8022   25.0649 H   0  0  0  0  0  0
    2.3040   51.0967   24.0563 H   0  0  0  0  0  0
    1.1974   48.9519   23.3207 H   0  0  0  0  0  0
    1.2461   50.1766   22.0688 H   0  0  0  0  0  0
    0.6207   54.4050   24.0883 H   0  0  0  0  0  0
    0.8935   53.2966   25.4540 H   0  0  0  0  0  0
    3.0538   53.8540   26.3929 H   0  0  0  0  0  0
    5.4719   54.2491   26.1302 H   0  0  0  0  0  0
    6.4633   54.3929   23.8703 H   0  0  0  0  0  0
    5.0388   54.1620   21.8621 H   0  0  0  0  0  0
    2.6188   53.7952   22.1046 H   0  0  0  0  0  0
   -1.6370   44.4245   21.5853 H   0  0  0  0  0  0
   -4.1385   43.5440   21.6102 H   0  0  0  0  0  0
   -2.3586   43.4695   17.4409 H   0  0  0  0  0  0
    3.5234   40.0922   18.9557 H   0  0  0  0  0  0
    3.1038   40.8694   20.4817 H   0  0  0  0  0  0
    1.9631   39.7520   19.7066 H   0  0  0  0  0  0
    0.9523   52.5135   22.6260 H   0  0  0  0  0  0
  1  2  1  0  0  0
  1 38  1  0  0  0
  1 39  1  0  0  0
  1 40  1  0  0  0
  2 11  1  0  0  0
  2  3  2  0  0  0
  3  4  1  0  0  0
  3 34  1  0  0  0
  4  5  1  0  0  0
  4  6  1  0  0  0
  4 29  1  0  0  0
  6 10  1  0  0  0
  6  7  1  0  0  0
  7  8  2  0  0  0
  7 12  1  0  0  0
  8  9  1  0  0  0
  8 41  1  0  0  0
  9 10  1  0  0  0
 10 11  2  0  0  0
 12 13  2  0  0  0
 12 42  1  0  0  0
 13 14  1  0  0  0
 13 15  1  0  0  0
 15 16  1  0  0  0
 15 43  1  0  0  0
 16 21  1  0  0  0
 16 17  1  0  0  0
 16 44  1  0  0  0
 17 18  1  0  0  0
 17 45  1  0  0  0
 17 46  1  0  0  0
 18 19  1  0  0  0
 18 47  1  0  0  0
 18 48  1  0  0  0
 19 20  1  0  0  0
 19 22  1  0  0  0
 19 66  1  0  0  0
 20 21  1  0  0  0
 20 49  1  0  0  0
 20 50  1  0  0  0
 21 51  1  0  0  0
 21 52  1  0  0  0
 22 23  1  0  0  0
 22 53  1  0  0  0
 22 54  1  0  0  0
 23 28  2  0  0  0
 23 24  1  0  0  0
 24 25  2  0  0  0
 24 55  1  0  0  0
 25 26  1  0  0  0
 25 56  1  0  0  0
 26 27  2  0  0  0
 26 57  1  0  0  0
 27 28  1  0  0  0
 27 58  1  0  0  0
 28 59  1  0  0  0
 29 33  2  0  0  0
 29 30  1  0  0  0
 30 31  2  0  0  0
 30 60  1  0  0  0
 31 32  1  0  0  0
 31 61  1  0  0  0
 32 33  1  0  0  0
 33 62  1  0  0  0
 34 35  2  0  0  0
 34 36  1  0  0  0
 36 37  1  0  0  0
 37 63  1  0  0  0
 37 64  1  0  0  0
 37 65  1  0  0  0
M  CHG  2  14  -1  19   1
M  END
> <i_i_glide_confnum>
112

> <i_i_glide_lignum>
1034

> <i_i_glide_posenum>
153

> <i_i_glide_rotatable_bonds>
8

> <i_m_Source_File_Index>
5086

> <b_m_subgroup_collapsed>
0

> <r_i_docking_score>
-3.75229

> <r_i_glide_ecoul>
-1.52524

> <r_i_glide_eff_state_penalty>
0

> <r_i_glide_einternal>
6.12808

> <r_i_glide_emodel>
-43.7414

> <r_i_glide_energy>
-34.984

> <r_i_glide_erotb>
0.526935

> <r_i_glide_esite>
-0.0707129

> <r_i_glide_evdw>
-33.4587

> <r_i_glide_gscore>
-3.75229

> <r_i_glide_hbond>
-0.248197

> <r_i_glide_ligand_efficiency>
-0.10423

> <r_i_glide_ligand_efficiency_ln>
-0.818649

> <r_i_glide_ligand_efficiency_sa>
-0.344161

> <r_i_glide_lipo>
-2.0586

> <r_i_glide_metal>
0

> <r_i_glide_rewards>
2.48041e-06

> <s_i_glide_gridfile>
wee1_glide-grid

> <s_m_Source_File>
wee1_decoys_glide_SP.sdf

> <s_m_Source_Path>
/Users/zhangxujun/Desktop

> <s_m_entry_id>
5361

> <s_m_entry_name>
wee1_decoys_glide_SP.5086

> <s_m_subgroup_title>
wee1_decoys_glide_SP

> <s_m_subgroupid>
wee1_decoys_glide_SP


$$$$
