@<TRIPOS>MOLECULE
ZINC39940316_3440
56   61    1
SMALL
USER_CHARGES


@<TRIPOS>ATOM
      1 C1         -2.3188   51.9258   26.4131 C.ar      1 UNK         0.0000 
      2 C2         -1.4296   50.8968   26.7011 C.ar      1 UNK         0.0000 
      3 C3         -0.7290   50.2548   25.6832 C.ar      1 UNK         0.0000 
      4 C4         -0.9110   50.6489   24.3346 C.ar      1 UNK         0.0000 
      5 C5         -0.2155   50.0205   23.2719 C.ar      1 UNK         0.0000 
      6 C6         -0.4018   50.4435   21.9531 C.ar      1 UNK         0.0000 
      7 C7         -1.2983   51.4764   21.6741 C.ar      1 UNK         0.0000 
      8 C8         -2.0074   52.1009   22.6943 C.ar      1 UNK         0.0000 
      9 C9         -1.8225   51.7086   24.0393 C.ar      1 UNK         0.0000 
     10 C10        -2.5208   52.3382   25.0994 C.ar      1 UNK         0.0000 
     11 C11         0.3733   49.7711   20.8199 C.3       1 UNK         0.0000 
     12 H12         1.1017   49.0893   21.2641 H         1 UNK         0.0000 
     13 C13        -0.5166   49.0007   19.8609 C.3       1 UNK         0.0000 
     14 C14         0.3697   48.7970   18.6370 C.3       1 UNK         0.0000 
     15 H15        -0.2288   48.8905   17.7298 H         1 UNK         0.0000 
     16 N16         1.2895   49.9325   18.6501 N.3       1 UNK         0.0000 
     17 N17         1.1420   50.6530   19.9339 N.pl3     1 UNK         0.0000 
     18 C18         2.1756   51.5007   20.3827 C.2       1 UNK         0.0000 
     19 C19         3.2706   51.8470   19.6817 C.2       1 UNK         0.0000 
     20 N20         4.1693   52.6506   20.3719 N.pl3     1 UNK         0.0000 
     21 C21         3.7918   52.9670   21.7056 C.2       1 UNK         0.0000 
     22 S22         2.1924   52.2536   22.0005 S.3       1 UNK         0.0000 
     23 N23         4.4178   53.6575   22.5834 N.2       1 UNK         0.0000 
     24 O24         5.7807   53.9340   22.2483 O.3       1 UNK         0.0000 
     25 C25         5.8849   54.9093   21.3045 C.2       1 UNK         0.0000 
     26 C26         5.5038   54.7455   20.0125 C.2       1 UNK         0.0000 
     27 N27         4.9572   53.5470   19.5224 N.pl3     1 UNK         0.0000 
     28 H28         4.4169   53.7172   18.6876 H         1 UNK         0.0000 
     29 C29         5.6016   55.8820   19.0333 C.ar      1 UNK         0.0000 
     30 C30         4.9325   55.8509   17.7938 C.ar      1 UNK         0.0000 
     31 C31         4.9566   56.9426   16.9244 C.ar      1 UNK         0.0000 
     32 C32         5.6508   58.0978   17.2728 C.ar      1 UNK         0.0000 
     33 C33         6.3361   58.1515   18.4818 C.ar      1 UNK         0.0000 
     34 C34         6.3198   57.0519   19.3372 C.ar      1 UNK         0.0000 
     35 O35         6.9873   59.2967   18.8618 O.3       1 UNK         0.0000 
     36 C36         1.1288   47.4478   18.6097 C.3       1 UNK         0.0000 
     37 F37         0.2793   46.4200   18.5946 F         1 UNK         0.0000 
     38 F38         1.9032   47.3333   17.5321 F         1 UNK         0.0000 
     39 F39         1.9032   47.3008   19.6821 F         1 UNK         0.0000 
     40 H40        -2.8626   52.3993   27.2157 H         1 UNK         0.0000 
     41 H41        -1.2950   50.5712   27.7233 H         1 UNK         0.0000 
     42 H42        -0.0531   49.4453   25.9236 H         1 UNK         0.0000 
     43 H43         0.4768   49.2221   23.5002 H         1 UNK         0.0000 
     44 H44        -1.4382   51.7999   20.6529 H         1 UNK         0.0000 
     45 H45        -2.7003   52.8966   22.4681 H         1 UNK         0.0000 
     46 H46        -3.2151   53.1377   24.8832 H         1 UNK         0.0000 
     47 H47        -0.7609   48.0329   20.3014 H         1 UNK         0.0000 
     48 H48        -1.4760   49.4732   19.6453 H         1 UNK         0.0000 
     49 H49         2.2423   49.5836   18.6477 H         1 UNK         0.0000 
     50 H50         3.5049   51.5020   18.6831 H         1 UNK         0.0000 
     51 H51         6.2853   55.8154   21.7267 H         1 UNK         0.0000 
     52 H52         4.3560   54.9920   17.4882 H         1 UNK         0.0000 
     53 H53         4.4212   56.8998   15.9875 H         1 UNK         0.0000 
     54 H54         5.6441   58.9538   16.6116 H         1 UNK         0.0000 
     55 H55         6.8653   57.1423   20.2585 H         1 UNK         0.0000 
     56 H56         6.7044   60.0641   18.3307 H         1 UNK         0.0000 
@<TRIPOS>BOND
     1    1   10 ar   
     2    1    2 ar   
     3    1   40 1    
     4    2    3 ar   
     5    2   41 1    
     6    3    4 ar   
     7    3   42 1    
     8    4    9 ar   
     9    4    5 ar   
    10    5    6 ar   
    11    5   43 1    
    12    6    7 ar   
    13    6   11 1    
    14    7    8 ar   
    15    7   44 1    
    16    8    9 ar   
    17    8   45 1    
    18    9   10 ar   
    19   10   46 1    
    20   11   12 1    
    21   11   17 1    
    22   11   13 1    
    23   13   14 1    
    24   13   47 1    
    25   13   48 1    
    26   14   15 1    
    27   14   16 1    
    28   14   36 1    
    29   16   17 1    
    30   16   49 1    
    31   17   18 1    
    32   18   22 1    
    33   18   19 2    
    34   19   20 1    
    35   19   50 1    
    36   20   27 1    
    37   20   21 1    
    38   21   22 1    
    39   21   23 2    
    40   23   24 1    
    41   24   25 1    
    42   25   26 2    
    43   25   51 1    
    44   26   27 1    
    45   26   29 1    
    46   27   28 1    
    47   29   34 ar   
    48   29   30 ar   
    49   30   31 ar   
    50   30   52 1    
    51   31   32 ar   
    52   31   53 1    
    53   32   33 ar   
    54   32   54 1    
    55   33   34 ar   
    56   33   35 1    
    57   34   55 1    
    58   35   56 1    
    59   36   37 1    
    60   36   38 1    
    61   36   39 1    
@<TRIPOS>SUBSTRUCTURE
     1 UNK         1 GROUP             0       ****    0 ROOT    
