@<TRIPOS>MOLECULE
ZINC00143633_3817
48   50    1
SMALL
USER_CHARGES


@<TRIPOS>ATOM
      1 C1          0.5763   51.6079   28.4136 C.3       1 UNK         0.0000 
      2 C2          0.4604   51.3307   26.9253 C.ar      1 UNK         0.0000 
      3 C3          0.1214   50.0645   26.4814 C.ar      1 UNK         0.0000 
      4 C4          0.0298   49.7557   25.1233 C.ar      1 UNK         0.0000 
      5 C5          0.1779   50.7785   24.1535 C.ar      1 UNK         0.0000 
      6 C6          0.5529   52.0726   24.6201 C.ar      1 UNK         0.0000 
      7 C7          0.7042   52.3217   25.9880 C.ar      1 UNK         0.0000 
      8 C8          0.7936   53.2744   23.7218 C.3       1 UNK         0.0000 
      9 C9         -0.1277   50.4709   22.6501 C.3       1 UNK         0.0000 
     10 H10        -0.0122   49.3933   22.5435 H         1 UNK         0.0000 
     11 C11         0.9421   50.9695   21.6239 C.3       1 UNK         0.0000 
     12 H12         0.9593   52.0508   21.5626 H         1 UNK         0.0000 
     13 C13         2.3852   50.5070   21.9602 C.3       1 UNK         0.0000 
     14 C14         3.3690   50.9361   20.8662 C.3       1 UNK         0.0000 
     15 C15         2.9994   50.3447   19.4958 C.3       1 UNK         0.0000 
     16 C16         1.4966   50.3257   19.2612 C.2       1 UNK         0.0000 
     17 C17         0.5443   50.6033   20.1860 C.2       1 UNK         0.0000 
     18 C18        -0.8692   50.6633   19.8164 C.2       1 UNK         0.0000 
     19 C19        -1.8613   50.7695   20.7306 C.2       1 UNK         0.0000 
     20 C20        -1.6315   50.7573   22.2551 C.3       1 UNK         0.0000 
     21 C21        -2.1288   52.0207   22.8266 C.1       1 UNK         0.0000 
     22 N22        -2.5320   53.0047   23.2817 N.1       1 UNK         0.0000 
     23 C23        -2.5294   49.7294   22.8213 C.1       1 UNK         0.0000 
     24 N24        -3.2493   48.9329   23.2560 N.1       1 UNK         0.0000 
     25 N25        -3.1853   50.8838   20.3541 N.pl3     1 UNK         0.0000 
     26 C26        -1.2277   50.6598   18.4267 C.1       1 UNK         0.0000 
     27 N27        -1.5598   50.6648   17.3183 N.1       1 UNK         0.0000 
     28 C28        -0.2060   48.2849   24.7835 C.3       1 UNK         0.0000 
     29 H29         0.9370   52.6165   28.6206 H         1 UNK         0.0000 
     30 H30        -0.3911   51.4721   28.8989 H         1 UNK         0.0000 
     31 H31         1.2668   50.8979   28.8718 H         1 UNK         0.0000 
     32 H32        -0.0759   49.2972   27.2099 H         1 UNK         0.0000 
     33 H33         0.9938   53.3034   26.3315 H         1 UNK         0.0000 
     34 H34         0.6735   54.2176   24.2558 H         1 UNK         0.0000 
     35 H35         1.7963   53.2526   23.2938 H         1 UNK         0.0000 
     36 H36         0.0629   53.2972   22.9242 H         1 UNK         0.0000 
     37 H37         2.4192   49.4244   22.0987 H         1 UNK         0.0000 
     38 H38         2.7040   50.9361   22.9092 H         1 UNK         0.0000 
     39 H39         3.3653   52.0250   20.7936 H         1 UNK         0.0000 
     40 H40         4.3893   50.6640   21.1282 H         1 UNK         0.0000 
     41 H41         3.4964   50.9311   18.7229 H         1 UNK         0.0000 
     42 H42         3.3791   49.3293   19.3872 H         1 UNK         0.0000 
     43 H43         1.1928   50.0856   18.2511 H         1 UNK         0.0000 
     44 H44        -3.9318   50.8894   21.0353 H         1 UNK         0.0000 
     45 H45        -3.4511   50.8467   19.3795 H         1 UNK         0.0000 
     46 H46        -0.5091   47.7074   25.6577 H         1 UNK         0.0000 
     47 H47        -0.9825   48.1266   24.0469 H         1 UNK         0.0000 
     48 H48         0.7044   47.8457   24.3829 H         1 UNK         0.0000 
@<TRIPOS>BOND
     1    1    2 1    
     2    1   29 1    
     3    1   30 1    
     4    1   31 1    
     5    2    7 ar   
     6    2    3 ar   
     7    3    4 ar   
     8    3   32 1    
     9    4    5 ar   
    10    4   28 1    
    11    5    6 ar   
    12    5    9 1    
    13    6    7 ar   
    14    6    8 1    
    15    7   33 1    
    16    8   34 1    
    17    8   35 1    
    18    8   36 1    
    19    9   10 1    
    20    9   20 1    
    21    9   11 1    
    22   11   12 1    
    23   11   17 1    
    24   11   13 1    
    25   13   14 1    
    26   13   37 1    
    27   13   38 1    
    28   14   15 1    
    29   14   39 1    
    30   14   40 1    
    31   15   16 1    
    32   15   41 1    
    33   15   42 1    
    34   16   17 2    
    35   16   43 1    
    36   17   18 1    
    37   18   19 2    
    38   18   26 1    
    39   19   20 1    
    40   19   25 1    
    41   20   21 1    
    42   20   23 1    
    43   21   22 3    
    44   23   24 3    
    45   25   44 1    
    46   25   45 1    
    47   26   27 3    
    48   28   46 1    
    49   28   47 1    
    50   28   48 1    
@<TRIPOS>SUBSTRUCTURE
     1 UNK         1 GROUP             0       ****    0 ROOT    
