@<TRIPOS>MOLECULE
ZINC59818992_504
41   42    1
SMALL
USER_CHARGES


@<TRIPOS>ATOM
      1 C1          5.3265   53.4225   28.2337 C.3       1 UNK         0.0000 
      2 N2          4.9697   54.2242   27.0574 N.am      1 UNK         0.0000 
      3 C3          3.5328   54.1892   26.7698 C.3       1 UNK         0.0000 
      4 C4          5.9194   54.8631   26.3225 C.2       1 UNK         0.0000 
      5 O5          7.1043   54.8664   26.6577 O.2       1 UNK         0.0000 
      6 C6          5.5616   55.6508   25.0429 C.3       1 UNK         0.0000 
      7 C7          6.5541   55.4362   23.8828 C.3       1 UNK         0.0000 
      8 S8          6.7284   53.7328   23.2817 S.3       1 UNK         0.0000 
      9 C9          5.3439   53.5221   22.2102 C.ar      1 UNK         0.0000 
     10 N10         5.1042   52.3286   21.6817 N.2       1 UNK         0.0000 
     11 C11         3.9890   52.5155   21.0350 C.ar      1 UNK         0.0000 
     12 N12         3.6189   53.8219   21.1263 N.pl3     1 UNK         0.0000 
     13 N13         4.4949   54.4811   21.8868 N.2       1 UNK         0.0000 
     14 N14         3.1853   51.5363   20.4842 N.pl3     1 UNK         0.0000 
     15 N15         2.1846   50.7797   21.1661 N.2       1 UNK         0.0000 
     16 C16         1.8747   51.0623   22.3737 C.2       1 UNK         0.0000 
     17 C17         0.8915   50.3503   23.1922 C.ar      1 UNK         0.0000 
     18 C18         0.6713   50.7818   24.5045 C.ar      1 UNK         0.0000 
     19 C19        -0.2303   50.1264   25.3411 C.ar      1 UNK         0.0000 
     20 C20        -0.9319   49.0093   24.8717 C.ar      1 UNK         0.0000 
     21 C21        -0.7407   48.5811   23.5523 C.ar      1 UNK         0.0000 
     22 C22         0.1630   49.2496   22.7230 C.ar      1 UNK         0.0000 
     23 Br23       -1.6956   47.0807   22.8588 Br        1 UNK         0.0000 
     24 O24        -1.8110   48.3359   25.6817 O.3       1 UNK         0.0000 
     25 Br25       -0.4872   50.8134   27.1015 Br        1 UNK         0.0000 
     26 H26         6.3929   53.4369   28.4629 H         1 UNK         0.0000 
     27 H27         5.0385   52.3829   28.0809 H         1 UNK         0.0000 
     28 H28         4.7998   53.7914   29.1139 H         1 UNK         0.0000 
     29 H29         3.1951   54.9297   26.0493 H         1 UNK         0.0000 
     30 H30         3.2507   53.2020   26.4009 H         1 UNK         0.0000 
     31 H31         2.9663   54.3745   27.6840 H         1 UNK         0.0000 
     32 H32         4.6029   55.2956   24.6771 H         1 UNK         0.0000 
     33 H33         5.5021   56.7098   25.2815 H         1 UNK         0.0000 
     34 H34         6.3044   56.0608   23.0287 H         1 UNK         0.0000 
     35 H35         7.5284   55.8010   24.1896 H         1 UNK         0.0000 
     36 H36         3.3784   51.1914   19.5491 H         1 UNK         0.0000 
     37 H37         2.3505   51.8879   22.8972 H         1 UNK         0.0000 
     38 H38         1.2046   51.6368   24.8969 H         1 UNK         0.0000 
     39 H39         0.3032   48.8961   21.7111 H         1 UNK         0.0000 
     40 H40        -1.6956   48.4967   26.6371 H         1 UNK         0.0000 
     41 H41         2.7891   54.2430   20.7208 H         1 UNK         0.0000 
@<TRIPOS>BOND
     1    1    2 1    
     2    1   26 1    
     3    1   27 1    
     4    1   28 1    
     5    2    3 1    
     6    2    4 am   BACKBONE|DICT|INTERRES
     7    3   29 1    
     8    3   30 1    
     9    3   31 1    
    10    4    5 2    
    11    4    6 1    
    12    6    7 1    
    13    6   32 1    
    14    6   33 1    
    15    7    8 1    
    16    7   34 1    
    17    7   35 1    
    18    8    9 1    
    19    9   13 ar   
    20    9   10 ar   
    21   10   11 ar   
    22   11   12 ar   
    23   11   14 1    
    24   12   13 ar   
    25   12   41 1    
    26   14   15 1    
    27   14   36 1    
    28   15   16 2    
    29   16   17 1    
    30   16   37 1    
    31   17   22 ar   
    32   17   18 ar   
    33   18   19 ar   
    34   18   38 1    
    35   19   20 ar   
    36   19   25 1    
    37   20   21 ar   
    38   20   24 1    
    39   21   22 ar   
    40   21   23 1    
    41   22   39 1    
    42   24   40 1    
@<TRIPOS>SUBSTRUCTURE
     1 UNK         1 GROUP             0       ****    0 ROOT    
