@<TRIPOS>MOLECULE
ZINC23590743_3622
55   59    1
SMALL
USER_CHARGES


@<TRIPOS>ATOM
      1 C1         -1.0837   49.8150   23.2283 C.3       1 UNK         0.0000 
      2 C2         -1.3956   51.1257   22.4745 C.3       1 UNK         0.0000 
      3 H3         -2.4796   51.1555   22.3469 H         1 UNK         0.0000 
      4 C4         -0.8025   51.1923   21.0492 C.3       1 UNK         0.0000 
      5 C5          0.7430   51.1221   21.0555 C.3       1 UNK         0.0000 
      6 C6          1.2876   52.1093   22.0900 C.2       1 UNK         0.0000 
      7 C7          0.4824   52.6588   23.0942 C.2       1 UNK         0.0000 
      8 S8          1.3248   53.7891   24.1184 S.3       1 UNK         0.0000 
      9 C9          2.8072   53.5043   23.2590 C.ar      1 UNK         0.0000 
     10 C10         2.6481   52.5586   22.2070 C.ar      1 UNK         0.0000 
     11 C11         3.8409   52.2586   21.5057 C.ar      1 UNK         0.0000 
     12 N12         5.0271   52.8303   21.8345 N.ar      1 UNK         0.0000 
     13 C13         5.0305   53.6979   22.8749 C.ar      1 UNK         0.0000 
     14 N14         3.9547   54.0954   23.5979 N.ar      1 UNK         0.0000 
     15 S15         6.6154   54.3119   23.3643 S.3       1 UNK         0.0000 
     16 C16         6.4180   55.3973   24.8152 C.3       1 UNK         0.0000 
     17 C17         6.1557   54.6693   26.1398 C.2       1 UNK         0.0000 
     18 O18         7.1043   54.4194   26.8818 O.2       1 UNK         0.0000 
     19 N19         4.8627   54.4110   26.4178 N.am      1 UNK         0.0000 
     20 C20         4.2763   53.8093   27.5440 C.ar      1 UNK         0.0000 
     21 C21         4.9790   53.1813   28.5806 C.ar      1 UNK         0.0000 
     22 C22         4.2858   52.5942   29.6415 C.ar      1 UNK         0.0000 
     23 C23         2.8947   52.6255   29.6999 C.ar      1 UNK         0.0000 
     24 C24         2.1757   53.2473   28.6492 C.ar      1 UNK         0.0000 
     25 C25         2.8823   53.8261   27.5933 C.ar      1 UNK         0.0000 
     26 O26         0.8010   53.2611   28.5432 O.3       1 UNK         0.0000 
     27 C27         0.0888   52.1363   29.0443 C.3       1 UNK         0.0000 
     28 C28        -0.1259   52.2405   30.5543 C.3       1 UNK         0.0000 
     29 C29         1.1172   52.6770   31.3274 C.3       1 UNK         0.0000 
     30 O30         2.3191   52.0965   30.8365 O.3       1 UNK         0.0000 
     31 N31         3.8693   51.3321   20.4662 N.pl3     1 UNK         0.0000 
     32 C32        -1.0100   52.3953   23.2714 C.3       1 UNK         0.0000 
     33 H33        -0.0219   49.7270   23.4625 H         1 UNK         0.0000 
     34 H34        -1.6306   49.7618   24.1711 H         1 UNK         0.0000 
     35 H35        -1.3661   48.9427   22.6367 H         1 UNK         0.0000 
     36 H36        -1.1773   50.3617   20.4501 H         1 UNK         0.0000 
     37 H37        -1.1223   52.1095   20.5530 H         1 UNK         0.0000 
     38 H38         1.1070   51.3542   20.0528 H         1 UNK         0.0000 
     39 H39         1.0815   50.1104   21.2828 H         1 UNK         0.0000 
     40 H40         5.6170   56.1069   24.6274 H         1 UNK         0.0000 
     41 H41         7.3315   55.9848   24.9044 H         1 UNK         0.0000 
     42 H42         4.2077   54.6556   25.6880 H         1 UNK         0.0000 
     43 H43         6.0543   53.1242   28.5794 H         1 UNK         0.0000 
     44 H44         4.8306   52.0973   30.4268 H         1 UNK         0.0000 
     45 H45         2.3193   54.2870   26.7984 H         1 UNK         0.0000 
     46 H46        -0.8804   52.0955   28.5440 H         1 UNK         0.0000 
     47 H47         0.5828   51.2024   28.7697 H         1 UNK         0.0000 
     48 H48        -0.8957   52.9759   30.7577 H         1 UNK         0.0000 
     49 H49        -0.5135   51.2978   30.9394 H         1 UNK         0.0000 
     50 H50         1.2000   53.7652   31.3255 H         1 UNK         0.0000 
     51 H51         1.0081   52.4033   32.3770 H         1 UNK         0.0000 
     52 H52         3.0067   50.9143   20.1560 H         1 UNK         0.0000 
     53 H53         4.7044   51.2193   19.8942 H         1 UNK         0.0000 
     54 H54        -1.2496   52.2618   24.3282 H         1 UNK         0.0000 
     55 H55        -1.5995   53.2546   22.9373 H         1 UNK         0.0000 
@<TRIPOS>BOND
     1    1    2 1    
     2    1   33 1    
     3    1   34 1    
     4    1   35 1    
     5    2    3 1    
     6    2   32 1    
     7    2    4 1    
     8    4    5 1    
     9    4   36 1    
    10    4   37 1    
    11    5    6 1    
    12    5   38 1    
    13    5   39 1    
    14    6   10 1    
    15    6    7 2    
    16    7    8 1    
    17    7   32 1    
    18    8    9 1    
    19    9   14 ar   
    20    9   10 ar   
    21   10   11 ar   
    22   11   12 ar   
    23   11   31 1    
    24   12   13 ar   
    25   13   14 ar   
    26   13   15 1    
    27   15   16 1    
    28   16   17 1    
    29   16   40 1    
    30   16   41 1    
    31   17   18 2    
    32   17   19 am   BACKBONE|DICT|INTERRES
    33   19   20 1    
    34   19   42 1    
    35   20   25 ar   
    36   20   21 ar   
    37   21   22 ar   
    38   21   43 1    
    39   22   23 ar   
    40   22   44 1    
    41   23   30 1    
    42   23   24 ar   
    43   24   25 ar   
    44   24   26 1    
    45   25   45 1    
    46   26   27 1    
    47   27   28 1    
    48   27   46 1    
    49   27   47 1    
    50   28   29 1    
    51   28   48 1    
    52   28   49 1    
    53   29   30 1    
    54   29   50 1    
    55   29   51 1    
    56   31   52 1    
    57   31   53 1    
    58   32   54 1    
    59   32   55 1    
@<TRIPOS>SUBSTRUCTURE
     1 UNK         1 GROUP             0       ****    0 ROOT    
