@<TRIPOS>MOLECULE
ZINC04211923_3502
59   61    1
SMALL
USER_CHARGES


@<TRIPOS>ATOM
      1 C1          6.2400   54.6661   27.9328 C.3       1 UNK         0.0000 
      2 C2          5.4110   53.7092   27.0525 C.3       1 UNK         0.0000 
      3 H3          5.9672   52.7713   27.0635 H         1 UNK         0.0000 
      4 C4          5.3639   54.0968   25.5592 C.ar      1 UNK         0.0000 
      5 C5          4.1634   54.0961   24.8286 C.ar      1 UNK         0.0000 
      6 C6          4.1749   54.2747   23.4472 C.ar      1 UNK         0.0000 
      7 C7          5.3822   54.4946   22.7902 C.ar      1 UNK         0.0000 
      8 C8          6.5738   54.5455   23.5030 C.ar      1 UNK         0.0000 
      9 C9          6.5629   54.3485   24.8811 C.ar      1 UNK         0.0000 
     10 N10         4.1311   53.2987   27.6524 N.am      1 UNK         0.0000 
     11 C11         3.1320   54.0862   28.0977 C.2       1 UNK         0.0000 
     12 O12         3.2632   55.2952   28.2323 O.2       1 UNK         0.0000 
     13 C13         1.8241   53.3710   28.3860 C.ar      1 UNK         0.0000 
     14 C14         1.4527   52.3286   27.5172 C.ar      1 UNK         0.0000 
     15 C15         0.3133   51.5497   27.7432 C.ar      1 UNK         0.0000 
     16 C16        -0.4461   51.7791   28.8800 C.ar      1 UNK         0.0000 
     17 C17        -0.1307   52.8402   29.7190 C.ar      1 UNK         0.0000 
     18 C18         0.9531   53.7027   29.4657 C.ar      1 UNK         0.0000 
     19 N19         1.1364   54.8214   30.3252 N.pl3     1 UNK         0.0000 
     20 C20         0.5831   54.7791   31.6738 C.3       1 UNK         0.0000 
     21 C21         1.1045   56.1654   29.7448 C.3       1 UNK         0.0000 
     22 N22        -0.0959   50.4967   26.9141 N.am      1 UNK         0.0000 
     23 C23         0.0907   50.3640   25.5892 C.2       1 UNK         0.0000 
     24 O24         0.6812   51.1826   24.8822 O.2       1 UNK         0.0000 
     25 N25        -0.5057   49.2353   25.1626 N.am      1 UNK         0.0000 
     26 C26        -0.7130   48.7771   23.8498 C.ar      1 UNK         0.0000 
     27 C27        -1.5364   47.6589   23.7201 C.ar      1 UNK         0.0000 
     28 C28        -1.8315   47.1446   22.4609 C.ar      1 UNK         0.0000 
     29 C29        -1.2952   47.7391   21.3142 C.ar      1 UNK         0.0000 
     30 C30        -0.4682   48.8604   21.4398 C.ar      1 UNK         0.0000 
     31 C31        -0.1737   49.3745   22.6997 C.ar      1 UNK         0.0000 
     32 C32        -1.6191   47.1713   19.9328 C.3       1 UNK         0.0000 
     33 F33        -1.5629   48.1115   18.9878 F         1 UNK         0.0000 
     34 F34        -0.7317   46.2196   19.6405 F         1 UNK         0.0000 
     35 F35        -2.8403   46.6325   19.9071 F         1 UNK         0.0000 
     36 H36         7.2974   54.6467   27.6689 H         1 UNK         0.0000 
     37 H37         5.9045   55.6961   27.8375 H         1 UNK         0.0000 
     38 H38         6.1802   54.3944   28.9883 H         1 UNK         0.0000 
     39 H39         3.2138   53.9019   25.3035 H         1 UNK         0.0000 
     40 H40         3.2536   54.2418   22.8858 H         1 UNK         0.0000 
     41 H41         5.3882   54.6372   21.7198 H         1 UNK         0.0000 
     42 H42         7.5045   54.7218   22.9858 H         1 UNK         0.0000 
     43 H43         7.5041   54.3461   25.4055 H         1 UNK         0.0000 
     44 H44         3.9177   52.3172   27.5566 H         1 UNK         0.0000 
     45 H45         2.0719   52.0982   26.6647 H         1 UNK         0.0000 
     46 H46        -1.3017   51.1577   29.1081 H         1 UNK         0.0000 
     47 H47        -0.7835   52.9865   30.5641 H         1 UNK         0.0000 
     48 H48         0.7932   53.8363   32.1790 H         1 UNK         0.0000 
     49 H49         0.9908   55.6024   32.2561 H         1 UNK         0.0000 
     50 H50        -0.4960   54.8961   31.6461 H         1 UNK         0.0000 
     51 H51         0.9966   56.1598   28.6596 H         1 UNK         0.0000 
     52 H52         0.3046   56.7723   30.1659 H         1 UNK         0.0000 
     53 H53         2.0333   56.6826   29.9845 H         1 UNK         0.0000 
     54 H54        -0.6734   49.7971   27.3708 H         1 UNK         0.0000 
     55 H55        -0.9039   48.6496   25.8845 H         1 UNK         0.0000 
     56 H56        -1.9651   47.1922   24.5950 H         1 UNK         0.0000 
     57 H57        -2.4764   46.2828   22.3781 H         1 UNK         0.0000 
     58 H58        -0.0438   49.3371   20.5675 H         1 UNK         0.0000 
     59 H59         0.4725   50.2350   22.7471 H         1 UNK         0.0000 
@<TRIPOS>BOND
     1    1    2 1    
     2    1   36 1    
     3    1   37 1    
     4    1   38 1    
     5    2    3 1    
     6    2    4 1    
     7    2   10 1    
     8    4    9 ar   
     9    4    5 ar   
    10    5    6 ar   
    11    5   39 1    
    12    6    7 ar   
    13    6   40 1    
    14    7    8 ar   
    15    7   41 1    
    16    8    9 ar   
    17    8   42 1    
    18    9   43 1    
    19   10   11 am   BACKBONE|DICT|INTERRES
    20   10   44 1    
    21   11   12 2    
    22   11   13 1    
    23   13   18 ar   
    24   13   14 ar   
    25   14   15 ar   
    26   14   45 1    
    27   15   16 ar   
    28   15   22 1    
    29   16   17 ar   
    30   16   46 1    
    31   17   18 ar   
    32   17   47 1    
    33   18   19 1    
    34   19   20 1    
    35   19   21 1    
    36   20   48 1    
    37   20   49 1    
    38   20   50 1    
    39   21   51 1    
    40   21   52 1    
    41   21   53 1    
    42   22   23 am   BACKBONE|DICT|INTERRES
    43   22   54 1    
    44   23   24 2    
    45   23   25 am   BACKBONE|DICT|INTERRES
    46   25   26 1    
    47   25   55 1    
    48   26   31 ar   
    49   26   27 ar   
    50   27   28 ar   
    51   27   56 1    
    52   28   29 ar   
    53   28   57 1    
    54   29   30 ar   
    55   29   32 1    
    56   30   31 ar   
    57   30   58 1    
    58   31   59 1    
    59   32   33 1    
    60   32   34 1    
    61   32   35 1    
@<TRIPOS>SUBSTRUCTURE
     1 UNK         1 GROUP             0       ****    0 ROOT    
