@<TRIPOS>MOLECULE
ZINC08444533_3633
49   52    1
SMALL
USER_CHARGES


@<TRIPOS>ATOM
      1 C1          3.6814   52.1274   30.1182 C.3       1 UNK         0.0000 
      2 C2          3.5679   53.6028   29.7079 C.3       1 UNK         0.0000 
      3 H3          4.2824   54.1856   30.2947 H         1 UNK         0.0000 
      4 C4          3.8778   53.8093   28.2314 C.ar      1 UNK         0.0000 
      5 C5          2.8699   53.7058   27.2675 C.ar      1 UNK         0.0000 
      6 C6          3.1787   53.8539   25.9206 C.ar      1 UNK         0.0000 
      7 C7          4.4954   54.0965   25.5243 C.ar      1 UNK         0.0000 
      8 C8          5.5042   54.2087   26.4935 C.ar      1 UNK         0.0000 
      9 C9          5.1931   54.0703   27.8412 C.ar      1 UNK         0.0000 
     10 N10         4.7031   54.1780   24.1387 N.am      1 UNK         0.0000 
     11 C11         5.8276   54.4611   23.4519 C.2       1 UNK         0.0000 
     12 O12         6.9173   54.7358   23.9543 O.2       1 UNK         0.0000 
     13 C13         5.6360   54.4854   22.0196 C.ar      1 UNK         0.0000 
     14 C14         4.7888   53.6456   21.2529 C.ar      1 UNK         0.0000 
     15 C15         4.9572   54.0612   19.9469 C.ar      1 UNK         0.0000 
     16 N16         5.8789   55.0881   19.9860 N.pl3     1 UNK         0.0000 
     17 N17         6.3044   55.3099   21.2372 N.2       1 UNK         0.0000 
     18 C18         6.4329   55.8139   18.8355 C.3       1 UNK         0.0000 
     19 H19         6.4207   56.8760   19.0852 H         1 UNK         0.0000 
     20 C20         5.4685   55.5686   17.6414 C.3       1 UNK         0.0000 
     21 C21         5.0119   54.0946   17.5199 C.3       1 UNK         0.0000 
     22 H22         5.8906   53.4564   17.4096 H         1 UNK         0.0000 
     23 N23         4.3459   53.6963   18.7626 N.pl3     1 UNK         0.0000 
     24 C24         4.1257   53.8800   16.3094 C.2       1 UNK         0.0000 
     25 C25         4.4677   53.3394   15.0699 C.2       1 UNK         0.0000 
     26 C26         3.4249   53.3086   14.1401 C.2       1 UNK         0.0000 
     27 C27         2.2527   53.8391   14.6450 C.2       1 UNK         0.0000 
     28 S28         2.4476   54.3733   16.2803 S.3       1 UNK         0.0000 
     29 C29         7.9111   55.4542   18.5330 C.3       1 UNK         0.0000 
     30 F30         8.3639   56.1469   17.4866 F         1 UNK         0.0000 
     31 F31         8.7054   55.7372   19.5658 F         1 UNK         0.0000 
     32 F32         8.0714   54.1616   18.2463 F         1 UNK         0.0000 
     33 Cl33        3.7358   52.3809   21.7692 Cl        1 UNK         0.0000 
     34 O34         2.2867   54.0628   30.0812 O.3       1 UNK         0.0000 
     35 H35         4.6823   51.7431   29.9206 H         1 UNK         0.0000 
     36 H36         2.9770   51.5057   29.5610 H         1 UNK         0.0000 
     37 H37         3.4868   51.9941   31.1834 H         1 UNK         0.0000 
     38 H38         1.8478   53.5001   27.5542 H         1 UNK         0.0000 
     39 H39         2.3887   53.7627   25.1880 H         1 UNK         0.0000 
     40 H40         6.5383   54.3790   26.2398 H         1 UNK         0.0000 
     41 H41         5.9802   54.1434   28.5782 H         1 UNK         0.0000 
     42 H42         3.8887   53.9871   23.5729 H         1 UNK         0.0000 
     43 H43         4.6032   56.2298   17.7341 H         1 UNK         0.0000 
     44 H44         5.9426   55.8854   16.7097 H         1 UNK         0.0000 
     45 H45         3.9185   52.7831   18.6861 H         1 UNK         0.0000 
     46 H46         5.4597   52.9694   14.8495 H         1 UNK         0.0000 
     47 H47         3.5263   52.9174   13.1386 H         1 UNK         0.0000 
     48 H48         1.2994   53.9463   14.1465 H         1 UNK         0.0000 
     49 H49         1.7137   53.2973   30.2095 H         1 UNK         0.0000 
@<TRIPOS>BOND
     1    1    2 1    
     2    1   35 1    
     3    1   36 1    
     4    1   37 1    
     5    2    3 1    
     6    2    4 1    
     7    2   34 1    
     8    4    9 ar   
     9    4    5 ar   
    10    5    6 ar   
    11    5   38 1    
    12    6    7 ar   
    13    6   39 1    
    14    7    8 ar   
    15    7   10 1    
    16    8    9 ar   
    17    8   40 1    
    18    9   41 1    
    19   10   11 am   BACKBONE|DICT|INTERRES
    20   10   42 1    
    21   11   12 2    
    22   11   13 1    
    23   13   17 ar   
    24   13   14 ar   
    25   14   15 ar   
    26   14   33 1    
    27   15   23 1    
    28   15   16 ar   
    29   16   17 ar   
    30   16   18 1    
    31   18   19 1    
    32   18   20 1    
    33   18   29 1    
    34   20   21 1    
    35   20   43 1    
    36   20   44 1    
    37   21   22 1    
    38   21   23 1    
    39   21   24 1    
    40   23   45 1    
    41   24   28 1    
    42   24   25 2    
    43   25   26 1    
    44   25   46 1    
    45   26   27 2    
    46   26   47 1    
    47   27   28 1    
    48   27   48 1    
    49   29   30 1    
    50   29   31 1    
    51   29   32 1    
    52   34   49 1    
@<TRIPOS>SUBSTRUCTURE
     1 UNK         1 GROUP             0       ****    0 ROOT    
