@<TRIPOS>MOLECULE
ZINC13632786_2855
68   70    1
SMALL
USER_CHARGES


@<TRIPOS>ATOM
      1 C1         10.1050   56.5405   17.3982 C.3       1 UNK         0.0000 
      2 C2          8.7311   55.8573   17.1658 C.3       1 UNK         0.0000 
      3 C3          7.9243   56.7714   16.2084 C.3       1 UNK         0.0000 
      4 C4          8.9961   54.4975   16.4748 C.3       1 UNK         0.0000 
      5 C5          7.9344   55.6239   18.4749 C.ar      1 UNK         0.0000 
      6 C6          8.4597   55.9341   19.7367 C.ar      1 UNK         0.0000 
      7 C7          7.7247   55.6966   20.8941 C.ar      1 UNK         0.0000 
      8 C8          6.4394   55.1370   20.8232 C.ar      1 UNK         0.0000 
      9 C9          5.9087   54.8374   19.5612 C.ar      1 UNK         0.0000 
     10 C10         6.6478   55.0723   18.4067 C.ar      1 UNK         0.0000 
     11 C11         5.6289   54.8200   22.0631 C.2       1 UNK         0.0000 
     12 O12         4.4450   54.4938   21.9515 O.2       1 UNK         0.0000 
     13 N13         6.2829   54.8901   23.2476 N.am      1 UNK         0.0000 
     14 C14         5.7694   54.6728   24.5427 C.ar      1 UNK         0.0000 
     15 C15         6.7047   54.4607   25.5510 C.ar      1 UNK         0.0000 
     16 C16         6.2984   54.1547   26.8480 C.ar      1 UNK         0.0000 
     17 C17         4.9376   54.0972   27.1511 C.ar      1 UNK         0.0000 
     18 C18         3.9943   54.4352   26.1717 C.ar      1 UNK         0.0000 
     19 C19         4.4051   54.6830   24.8689 C.ar      1 UNK         0.0000 
     20 N20         4.5782   53.6847   28.4489 N.pl3     1 UNK         0.0000 
     21 C21         3.5380   52.8985   28.8640 C.2       1 UNK         0.0000 
     22 S22         3.5042   52.4966   30.4808 S.2       1 UNK         0.0000 
     23 N23         2.6472   52.5148   27.8953 N.am      1 UNK         0.0000 
     24 C24         1.4903   51.8140   27.9030 C.2       1 UNK         0.0000 
     25 O25         0.9643   51.2982   28.8860 O.2       1 UNK         0.0000 
     26 C26         0.9024   51.7716   26.5868 C.2       1 UNK         0.0000 
     27 C27        -0.1643   51.0047   26.2736 C.2       1 UNK         0.0000 
     28 C28        -0.8112   50.9497   24.9431 C.ar      1 UNK         0.0000 
     29 C29        -2.0448   50.3087   24.8213 C.ar      1 UNK         0.0000 
     30 C30        -2.7113   50.2734   23.5986 C.ar      1 UNK         0.0000 
     31 C31        -2.1564   50.8797   22.4587 C.ar      1 UNK         0.0000 
     32 C32        -0.9090   51.5174   22.5605 C.ar      1 UNK         0.0000 
     33 C33        -0.2500   51.5415   23.8025 C.ar      1 UNK         0.0000 
     34 O34        -0.3895   52.0947   21.4121 O.3       1 UNK         0.0000 
     35 C35         0.9586   52.5596   21.4010 C.3       1 UNK         0.0000 
     36 O36        -2.7724   50.8816   21.2183 O.3       1 UNK         0.0000 
     37 C37        -3.9694   50.1320   21.0288 C.3       1 UNK         0.0000 
     38 H38        10.6362   56.7052   16.4592 H         1 UNK         0.0000 
     39 H39        10.7586   55.9302   18.0246 H         1 UNK         0.0000 
     40 H40         9.9973   57.5151   17.8777 H         1 UNK         0.0000 
     41 H41         6.9812   56.3189   15.9028 H         1 UNK         0.0000 
     42 H42         7.6890   57.7292   16.6750 H         1 UNK         0.0000 
     43 H43         8.4785   56.9846   15.2936 H         1 UNK         0.0000 
     44 H44         8.0709   53.9894   16.2035 H         1 UNK         0.0000 
     45 H45         9.5731   54.6160   15.5569 H         1 UNK         0.0000 
     46 H46         9.5578   53.8232   17.1251 H         1 UNK         0.0000 
     47 H47         9.4473   56.3562   19.8488 H         1 UNK         0.0000 
     48 H48         8.1855   55.9489   21.8389 H         1 UNK         0.0000 
     49 H49         4.9263   54.3962   19.4611 H         1 UNK         0.0000 
     50 H50         6.2137   54.8074   17.4533 H         1 UNK         0.0000 
     51 H51         7.2756   55.0670   23.2038 H         1 UNK         0.0000 
     52 H52         7.7559   54.4968   25.3144 H         1 UNK         0.0000 
     53 H53         7.0394   53.9360   27.6039 H         1 UNK         0.0000 
     54 H54         2.9388   54.4888   26.3907 H         1 UNK         0.0000 
     55 H55         3.6453   54.8993   24.1353 H         1 UNK         0.0000 
     56 H56         5.2535   53.9179   29.1621 H         1 UNK         0.0000 
     57 H57         2.9437   52.7632   26.9658 H         1 UNK         0.0000 
     58 H58         1.3621   52.4046   25.8422 H         1 UNK         0.0000 
     59 H59        -0.6024   50.3661   27.0346 H         1 UNK         0.0000 
     60 H60        -2.5004   49.8366   25.6808 H         1 UNK         0.0000 
     61 H61        -3.6652   49.7702   23.5581 H         1 UNK         0.0000 
     62 H62         0.7059   52.0305   23.8781 H         1 UNK         0.0000 
     63 H63         1.2111   52.8966   20.3949 H         1 UNK         0.0000 
     64 H64         1.1038   53.4078   22.0722 H         1 UNK         0.0000 
     65 H65         1.6603   51.7667   21.6685 H         1 UNK         0.0000 
     66 H66        -4.2889   50.2279   19.9918 H         1 UNK         0.0000 
     67 H67        -3.8121   49.0716   21.2290 H         1 UNK         0.0000 
     68 H68        -4.7820   50.4993   21.6573 H         1 UNK         0.0000 
@<TRIPOS>BOND
     1    1    2 1    
     2    1   38 1    
     3    1   39 1    
     4    1   40 1    
     5    2    3 1    
     6    2    4 1    
     7    2    5 1    
     8    3   41 1    
     9    3   42 1    
    10    3   43 1    
    11    4   44 1    
    12    4   45 1    
    13    4   46 1    
    14    5   10 ar   
    15    5    6 ar   
    16    6    7 ar   
    17    6   47 1    
    18    7    8 ar   
    19    7   48 1    
    20    8    9 ar   
    21    8   11 1    
    22    9   10 ar   
    23    9   49 1    
    24   10   50 1    
    25   11   12 2    
    26   11   13 am   BACKBONE|DICT|INTERRES
    27   13   14 1    
    28   13   51 1    
    29   14   19 ar   
    30   14   15 ar   
    31   15   16 ar   
    32   15   52 1    
    33   16   17 ar   
    34   16   53 1    
    35   17   18 ar   
    36   17   20 1    
    37   18   19 ar   
    38   18   54 1    
    39   19   55 1    
    40   20   21 1    
    41   20   56 1    
    42   21   22 2    
    43   21   23 am   BACKBONE|DICT|INTERRES
    44   23   24 am   BACKBONE|DICT|INTERRES
    45   23   57 1    
    46   24   25 2    
    47   24   26 1    
    48   26   27 2    
    49   26   58 1    
    50   27   28 1    
    51   27   59 1    
    52   28   33 ar   
    53   28   29 ar   
    54   29   30 ar   
    55   29   60 1    
    56   30   31 ar   
    57   30   61 1    
    58   31   32 ar   
    59   31   36 1    
    60   32   33 ar   
    61   32   34 1    
    62   33   62 1    
    63   34   35 1    
    64   35   63 1    
    65   35   64 1    
    66   35   65 1    
    67   36   37 1    
    68   37   66 1    
    69   37   67 1    
    70   37   68 1    
@<TRIPOS>SUBSTRUCTURE
     1 UNK         1 GROUP             0       ****    0 ROOT    
