ZINC63571860_1151
                    3D
 Schrodinger Suite 2024-2.
 68 72  0  0  1  0            999 V2000
    7.5304   57.4683   17.7624 C   0  0  0  0  0  0
    6.0353   57.1990   18.0026 C   0  0  0  0  0  0
    5.8225   55.9867   18.7158 O   0  0  0  0  0  0
    5.9878   55.9094   20.0603 C   0  0  0  0  0  0
    6.3197   56.8556   20.7810 O   0  0  0  0  0  0
    5.6995   54.5163   20.6688 C   0  0  2  0  0  0
    5.1093   53.4872   19.6658 C   0  0  0  0  0  0
    4.9261   52.1186   20.3595 C   0  0  0  0  0  0
    4.0359   52.1760   21.6118 C   0  0  1  0  0  0
    4.6045   53.2402   22.5904 C   0  0  0  0  0  0
    4.8088   54.6173   21.9308 C   0  0  0  0  0  0
    2.5544   52.3659   21.2035 C   0  0  0  0  0  0
    1.6000   52.4925   22.2950 N   0  0  0  0  0  0
    1.2667   51.5321   23.1796 C   0  0  0  0  0  0
    1.9040   50.4809   23.2694 O   0  0  0  0  0  0
    0.1724   51.8001   23.9500 N   0  0  0  0  0  0
   -0.7797   52.9026   23.6443 C   0  0  0  0  0  0
   -2.2263   52.3814   23.5871 C   0  0  0  0  0  0
   -2.5235   51.6395   24.8576 C   0  0  0  0  0  0
   -3.5105   51.6928   25.7621 C   0  0  0  0  0  0
   -4.7282   52.5143   25.8560 C   0  0  0  0  0  0
   -5.5952   52.3328   26.8747 C   0  0  0  0  0  0
   -5.2786   51.3200   27.8769 C   0  0  0  0  0  0
   -4.1478   50.5675   27.8064 C   0  0  0  0  0  0
   -3.2563   50.7370   26.7418 C   0  0  0  0  0  0
   -2.1407   50.0947   26.4817 N   0  3  0  0  0  0
   -1.5306   50.5673   25.2287 C   0  0  2  0  0  0
   -1.6188   49.7356   24.5290 H   0  0  0  0  0  0
   -0.0309   51.0510   25.2205 C   0  0  2  0  0  0
    0.5698   50.1399   25.2116 H   0  0  0  0  0  0
    0.4946   51.7697   26.4888 C   0  0  0  0  0  0
    1.2015   52.9804   26.4066 C   0  0  0  0  0  0
    1.7104   53.5924   27.5504 C   0  0  0  0  0  0
    1.5322   52.9935   28.7916 C   0  0  0  0  0  0
    0.8670   51.7758   28.8867 C   0  0  0  0  0  0
    0.3689   51.1659   27.7400 C   0  0  0  0  0  0
    2.0251   53.5864   29.9037 F   0  0  0  0  0  0
    7.6677   58.3754   17.1734 H   0  0  0  0  0  0
    7.9964   56.6457   17.2193 H   0  0  0  0  0  0
    8.0728   57.5996   18.6987 H   0  0  0  0  0  0
    5.5700   58.0432   18.5159 H   0  0  0  0  0  0
    5.5314   57.1142   17.0390 H   0  0  0  0  0  0
    6.6741   54.1741   20.9917 H   0  0  0  0  0  0
    4.1613   53.8330   19.2537 H   0  0  0  0  0  0
    5.7916   53.3388   18.8260 H   0  0  0  0  0  0
    5.8965   51.7030   20.6121 H   0  0  0  0  0  0
    4.4633   51.4075   19.6817 H   0  0  0  0  0  0
    4.1344   51.1991   22.0807 H   0  0  0  0  0  0
    5.5616   52.8967   22.9809 H   0  0  0  0  0  0
    3.9474   53.3437   23.4556 H   0  0  0  0  0  0
    5.3178   55.2394   22.6673 H   0  0  0  0  0  0
    3.8367   55.0583   21.7050 H   0  0  0  0  0  0
    2.4609   53.2947   20.6475 H   0  0  0  0  0  0
    2.2413   51.5954   20.4961 H   0  0  0  0  0  0
    1.1166   53.3746   22.3442 H   0  0  0  0  0  0
   -0.6887   53.6959   24.3848 H   0  0  0  0  0  0
   -0.5953   53.2950   22.6578 H   0  0  0  0  0  0
   -2.9212   53.2065   23.4280 H   0  0  0  0  0  0
   -2.3418   51.7111   22.7344 H   0  0  0  0  0  0
   -4.9655   53.2619   25.1092 H   0  0  0  0  0  0
   -6.5005   52.9188   26.9467 H   0  0  0  0  0  0
   -5.9544   51.1734   28.7088 H   0  0  0  0  0  0
   -3.9493   49.8351   28.5804 H   0  0  0  0  0  0
    1.3745   53.4690   25.4605 H   0  0  0  0  0  0
    2.2443   54.5284   27.4758 H   0  0  0  0  0  0
    0.7451   51.2971   29.8438 H   0  0  0  0  0  0
   -0.0963   50.2006   27.8462 H   0  0  0  0  0  0
   -1.7539   49.3500   27.0813 H   0  0  0  0  0  0
  1  2  1  0  0  0
  1 38  1  0  0  0
  1 39  1  0  0  0
  1 40  1  0  0  0
  2  3  1  0  0  0
  2 41  1  0  0  0
  2 42  1  0  0  0
  3  4  1  0  0  0
  4  5  2  0  0  0
  4  6  1  0  0  0
  6 11  1  0  0  0
  6  7  1  0  0  0
  6 43  1  0  0  0
  7  8  1  0  0  0
  7 44  1  0  0  0
  7 45  1  0  0  0
  8  9  1  0  0  0
  8 46  1  0  0  0
  8 47  1  0  0  0
  9 10  1  0  0  0
  9 12  1  0  0  0
  9 48  1  0  0  0
 10 11  1  0  0  0
 10 49  1  0  0  0
 10 50  1  0  0  0
 11 51  1  0  0  0
 11 52  1  0  0  0
 12 13  1  0  0  0
 12 53  1  0  0  0
 12 54  1  0  0  0
 13 14  1  0  0  0
 13 55  1  0  0  0
 14 15  2  0  0  0
 14 16  1  0  0  0
 16 29  1  0  0  0
 16 17  1  0  0  0
 17 18  1  0  0  0
 17 56  1  0  0  0
 17 57  1  0  0  0
 18 19  1  0  0  0
 18 58  1  0  0  0
 18 59  1  0  0  0
 19 27  1  0  0  0
 19 20  2  0  0  0
 20 25  1  0  0  0
 20 21  1  0  0  0
 21 22  2  0  0  0
 21 60  1  0  0  0
 22 23  1  0  0  0
 22 61  1  0  0  0
 23 24  2  0  0  0
 23 62  1  0  0  0
 24 25  1  0  0  0
 24 63  1  0  0  0
 25 26  2  0  0  0
 26 27  1  0  0  0
 26 68  1  0  0  0
 27 28  1  0  0  0
 27 29  1  0  0  0
 29 30  1  0  0  0
 29 31  1  0  0  0
 31 36  2  0  0  0
 31 32  1  0  0  0
 32 33  2  0  0  0
 32 64  1  0  0  0
 33 34  1  0  0  0
 33 65  1  0  0  0
 34 35  2  0  0  0
 34 37  1  0  0  0
 35 36  1  0  0  0
 35 66  1  0  0  0
 36 67  1  0  0  0
M  CHG  1  26   1
M  END
> <i_i_glide_confnum>
15

> <i_i_glide_lignum>
1152

> <i_i_glide_posenum>
295

> <i_i_glide_rotatable_bonds>
8

> <i_m_Source_File_Index>
2397

> <b_m_subgroup_collapsed>
0

> <r_i_docking_score>
-3.70574

> <r_i_glide_ecoul>
-4.24918

> <r_i_glide_eff_state_penalty>
0

> <r_i_glide_einternal>
8.03131

> <r_i_glide_emodel>
-39.8145

> <r_i_glide_energy>
-33.4178

> <r_i_glide_erotb>
0.619368

> <r_i_glide_esite>
-0.1

> <r_i_glide_evdw>
-29.1686

> <r_i_glide_gscore>
-3.70574

> <r_i_glide_hbond>
-0.419202

> <r_i_glide_ligand_efficiency>
-0.105878

> <r_i_glide_ligand_efficiency_ln>
-0.813492

> <r_i_glide_ligand_efficiency_sa>
-0.346335

> <r_i_glide_lipo>
-1.21145

> <r_i_glide_metal>
0

> <r_i_glide_rewards>
-0.498646

> <s_i_glide_gridfile>
wee1_glide-grid

> <s_m_Source_File>
wee1_decoys_glide_SP.sdf

> <s_m_Source_Path>
/Users/zhangxujun/Desktop

> <s_m_entry_id>
2672

> <s_m_entry_name>
wee1_decoys_glide_SP.2397

> <s_m_subgroup_title>
wee1_decoys_glide_SP

> <s_m_subgroupid>
wee1_decoys_glide_SP


$$$$
