@<TRIPOS>MOLECULE
ZINC12573248_3514
53   54    1
SMALL
USER_CHARGES


@<TRIPOS>ATOM
      1 C1          0.5306   52.1894   26.8468 C.3       1 UNK         0.0000 
      2 C2          1.8457   52.9120   26.6199 C.ar      1 UNK         0.0000 
      3 C3          2.7310   53.0889   27.6773 C.ar      1 UNK         0.0000 
      4 C4          3.9614   53.7002   27.4596 C.ar      1 UNK         0.0000 
      5 C5          4.3411   54.1476   26.1817 C.ar      1 UNK         0.0000 
      6 C6          3.4438   53.9670   25.1033 C.ar      1 UNK         0.0000 
      7 C7          2.1967   53.3584   25.3465 C.ar      1 UNK         0.0000 
      8 O8          3.8386   54.4102   23.8479 O.3       1 UNK         0.0000 
      9 C9          3.1479   54.0236   22.6448 C.3       1 UNK         0.0000 
     10 C10         4.1522   53.4410   21.6352 C.2       1 UNK         0.0000 
     11 O11         5.1046   52.7666   22.0332 O.2       1 UNK         0.0000 
     12 N12         3.9078   53.6973   20.3325 N.am      1 UNK         0.0000 
     13 N13         4.8187   53.2906   19.3386 N.pl3     1 UNK         0.0000 
     14 C14         5.9458   53.9783   18.9650 C.2       1 UNK         0.0000 
     15 S15         6.3053   55.5436   19.4965 S.2       1 UNK         0.0000 
     16 N16         6.6882   53.2300   18.0812 N.am      1 UNK         0.0000 
     17 C17         7.9590   53.3617   17.6149 C.2       1 UNK         0.0000 
     18 O18         8.8189   54.1136   18.0818 O.2       1 UNK         0.0000 
     19 C19         8.3238   52.4201   16.4940 C.ar      1 UNK         0.0000 
     20 C20         7.4485   52.1783   15.4270 C.ar      1 UNK         0.0000 
     21 C21         7.8139   51.3136   14.3934 C.ar      1 UNK         0.0000 
     22 C22         9.0471   50.6575   14.4200 C.ar      1 UNK         0.0000 
     23 C23         9.9237   50.8845   15.4885 C.ar      1 UNK         0.0000 
     24 C24         9.5698   51.7762   16.4999 C.ar      1 UNK         0.0000 
     25 Br25       11.6019   49.9863   15.6070 Br        1 UNK         0.0000 
     26 C26         9.4098   49.6996   13.2967 C.3       1 UNK         0.0000 
     27 C27         5.6998   54.8637   25.9786 C.3       1 UNK         0.0000 
     28 C28         6.4850   55.1336   27.2830 C.3       1 UNK         0.0000 
     29 C29         6.6561   54.1509   25.0008 C.3       1 UNK         0.0000 
     30 H30         0.2824   51.5730   25.9818 H         1 UNK         0.0000 
     31 H31         0.5921   51.5096   27.6997 H         1 UNK         0.0000 
     32 H32        -0.2813   52.8976   27.0112 H         1 UNK         0.0000 
     33 H33         2.4735   52.7511   28.6711 H         1 UNK         0.0000 
     34 H34         4.6093   53.8109   28.3143 H         1 UNK         0.0000 
     35 H35         1.4709   53.2237   24.5637 H         1 UNK         0.0000 
     36 H36         2.3974   53.2460   22.7639 H         1 UNK         0.0000 
     37 H37         2.6526   54.8974   22.2265 H         1 UNK         0.0000 
     38 H38         3.1560   54.2814   19.9854 H         1 UNK         0.0000 
     39 H39         4.6892   52.3208   19.0783 H         1 UNK         0.0000 
     40 H40         6.1973   52.4398   17.6813 H         1 UNK         0.0000 
     41 H41         6.4848   52.6632   15.3794 H         1 UNK         0.0000 
     42 H42         7.1226   51.1465   13.5787 H         1 UNK         0.0000 
     43 H43        10.2709   51.9490   17.3034 H         1 UNK         0.0000 
     44 H44         8.6084   49.5956   12.5628 H         1 UNK         0.0000 
     45 H45        10.3033   50.0605   12.7824 H         1 UNK         0.0000 
     46 H46         9.6383   48.7110   13.6963 H         1 UNK         0.0000 
     47 H47         5.4523   55.8320   25.5422 H         1 UNK         0.0000 
     48 H48         5.8998   55.6958   28.0080 H         1 UNK         0.0000 
     49 H49         6.7976   54.2038   27.7650 H         1 UNK         0.0000 
     50 H50         7.3942   55.6966   27.0883 H         1 UNK         0.0000 
     51 H51         6.1810   53.8433   24.0731 H         1 UNK         0.0000 
     52 H52         7.4877   54.8020   24.7231 H         1 UNK         0.0000 
     53 H53         7.0946   53.2659   25.4594 H         1 UNK         0.0000 
@<TRIPOS>BOND
     1    1    2 1    
     2    1   30 1    
     3    1   31 1    
     4    1   32 1    
     5    2    7 ar   
     6    2    3 ar   
     7    3    4 ar   
     8    3   33 1    
     9    4    5 ar   
    10    4   34 1    
    11    5    6 ar   
    12    5   27 1    
    13    6    7 ar   
    14    6    8 1    
    15    7   35 1    
    16    8    9 1    
    17    9   10 1    
    18    9   36 1    
    19    9   37 1    
    20   10   11 2    
    21   10   12 am   BACKBONE|DICT|INTERRES
    22   12   13 1    
    23   12   38 1    
    24   13   14 1    
    25   13   39 1    
    26   14   15 2    
    27   14   16 am   BACKBONE|DICT|INTERRES
    28   16   17 am   BACKBONE|DICT|INTERRES
    29   16   40 1    
    30   17   18 2    
    31   17   19 1    
    32   19   24 ar   
    33   19   20 ar   
    34   20   21 ar   
    35   20   41 1    
    36   21   22 ar   
    37   21   42 1    
    38   22   23 ar   
    39   22   26 1    
    40   23   24 ar   
    41   23   25 1    
    42   24   43 1    
    43   26   44 1    
    44   26   45 1    
    45   26   46 1    
    46   27   28 1    
    47   27   29 1    
    48   27   47 1    
    49   28   48 1    
    50   28   49 1    
    51   28   50 1    
    52   29   51 1    
    53   29   52 1    
    54   29   53 1    
@<TRIPOS>SUBSTRUCTURE
     1 UNK         1 GROUP             0       ****    0 ROOT    
