ZINC45579301_91
                    3D
 Schrodinger Suite 2024-2.
 59 62  0  0  1  0            999 V2000
   -0.9686   50.5100   24.7636 C   0  0  0  0  0  0
    0.5743   50.5028   24.6450 C   0  0  1  0  0  0
    0.9535   50.0161   25.5429 H   0  0  0  0  0  0
    1.0668   49.6569   23.4431 C   0  0  0  0  0  0
    0.7665   50.3213   22.0810 C   0  0  0  0  0  0
    1.3414   51.7537   22.0078 C   0  0  0  0  0  0
    0.8921   52.6099   23.2101 C   0  0  0  0  0  0
    1.2344   51.9101   24.5459 C   0  0  1  0  0  0
    2.3129   51.7926   24.6048 H   0  0  0  0  0  0
    0.7491   52.7892   25.6345 N   0  0  0  0  0  0
    1.3593   52.7034   27.2917 S   0  0  0  0  0  0
    1.4993   51.2973   27.6818 O   0  0  0  0  0  0
    0.5392   53.6107   28.1011 O   0  0  0  0  0  0
    3.0133   53.3958   27.3208 C   0  0  0  0  0  0
    3.6211   53.8697   26.1531 C   0  0  0  0  0  0
    4.9425   54.3507   26.1665 C   0  0  0  0  0  0
    5.6036   54.4345   27.3967 C   0  0  0  0  0  0
    4.9861   53.9924   28.5616 C   0  0  0  0  0  0
    3.7058   53.4258   28.5363 C   0  0  0  0  0  0
    3.0882   52.9022   29.6566 O   0  0  0  0  0  0
    3.8874   52.5008   30.7636 C   0  0  0  0  0  0
    5.6604   54.7694   24.9008 C   0  0  0  0  0  0
    6.6592   55.4910   24.9653 O   0  0  0  0  0  0
    5.1367   54.2761   23.7550 N   0  0  0  0  0  0
    5.5283   54.4978   22.4255 C   0  0  0  0  0  0
    4.6254   54.0825   21.4465 C   0  0  0  0  0  0
    4.9239   54.2905   20.1028 C   0  0  0  0  0  0
    6.1523   54.8994   19.7515 C   0  0  0  0  0  0
    6.5486   55.1014   18.4076 C   0  0  0  0  0  0
    7.7970   55.6521   18.1248 C   0  0  0  0  0  0
    8.6661   56.0051   19.1523 C   0  0  0  0  0  0
    8.2965   55.8293   20.4836 C   0  0  0  0  0  0
    7.0288   55.2967   20.8074 C   0  0  0  0  0  0
    6.7048   55.1100   22.1177 N   0  0  0  0  0  0
   -1.4506   50.9891   23.9129 H   0  0  0  0  0  0
   -1.3564   49.4922   24.8305 H   0  0  0  0  0  0
   -1.2956   51.0275   25.6663 H   0  0  0  0  0  0
    2.1433   49.5031   23.5267 H   0  0  0  0  0  0
    0.6159   48.6637   23.4746 H   0  0  0  0  0  0
   -0.3111   50.3474   21.9099 H   0  0  0  0  0  0
    1.1852   49.7155   21.2754 H   0  0  0  0  0  0
    1.0427   52.2318   21.0747 H   0  0  0  0  0  0
    2.4308   51.6992   21.9836 H   0  0  0  0  0  0
   -0.1813   52.7946   23.1387 H   0  0  0  0  0  0
    1.3656   53.5920   23.1593 H   0  0  0  0  0  0
    0.3930   53.7022   25.3473 H   0  0  0  0  0  0
    3.0657   53.8443   25.2296 H   0  0  0  0  0  0
    6.6067   54.8326   27.4649 H   0  0  0  0  0  0
    5.5193   54.0988   29.4867 H   0  0  0  0  0  0
    3.2694   51.9577   31.4790 H   0  0  0  0  0  0
    4.7000   51.8376   30.4582 H   0  0  0  0  0  0
    4.3039   53.3631   31.2814 H   0  0  0  0  0  0
    4.3209   53.6964   23.8551 H   0  0  0  0  0  0
    3.6882   53.6151   21.7112 H   0  0  0  0  0  0
    4.2370   53.9756   19.3292 H   0  0  0  0  0  0
    5.8873   54.8060   17.6060 H   0  0  0  0  0  0
    8.0989   55.7936   17.0970 H   0  0  0  0  0  0
    9.6383   56.4128   18.9163 H   0  0  0  0  0  0
    8.9801   56.0956   21.2781 H   0  0  0  0  0  0
  1  2  1  0  0  0
  1 35  1  0  0  0
  1 36  1  0  0  0
  1 37  1  0  0  0
  2  3  1  0  0  0
  2  8  1  0  0  0
  2  4  1  0  0  0
  4  5  1  0  0  0
  4 38  1  0  0  0
  4 39  1  0  0  0
  5  6  1  0  0  0
  5 40  1  0  0  0
  5 41  1  0  0  0
  6  7  1  0  0  0
  6 42  1  0  0  0
  6 43  1  0  0  0
  7  8  1  0  0  0
  7 44  1  0  0  0
  7 45  1  0  0  0
  8  9  1  0  0  0
  8 10  1  0  0  0
 10 11  1  0  0  0
 10 46  1  0  0  0
 11 12  2  0  0  0
 11 13  2  0  0  0
 11 14  1  0  0  0
 14 19  2  0  0  0
 14 15  1  0  0  0
 15 16  2  0  0  0
 15 47  1  0  0  0
 16 17  1  0  0  0
 16 22  1  0  0  0
 17 18  2  0  0  0
 17 48  1  0  0  0
 18 19  1  0  0  0
 18 49  1  0  0  0
 19 20  1  0  0  0
 20 21  1  0  0  0
 21 50  1  0  0  0
 21 51  1  0  0  0
 21 52  1  0  0  0
 22 23  2  0  0  0
 22 24  1  0  0  0
 24 25  1  0  0  0
 24 53  1  0  0  0
 25 34  2  0  0  0
 25 26  1  0  0  0
 26 27  2  0  0  0
 26 54  1  0  0  0
 27 28  1  0  0  0
 27 55  1  0  0  0
 28 33  2  0  0  0
 28 29  1  0  0  0
 29 30  2  0  0  0
 29 56  1  0  0  0
 30 31  1  0  0  0
 30 57  1  0  0  0
 31 32  2  0  0  0
 31 58  1  0  0  0
 32 33  1  0  0  0
 32 59  1  0  0  0
 33 34  1  0  0  0
M  END
> <i_i_glide_confnum>
120

> <i_i_glide_lignum>
92

> <i_i_glide_posenum>
237

> <i_i_glide_rotatable_bonds>
7

> <i_m_Source_File_Index>
2688

> <b_m_subgroup_collapsed>
0

> <r_i_docking_score>
-3.58251

> <r_i_glide_ecoul>
-2.73105

> <r_i_glide_eff_state_penalty>
0

> <r_i_glide_einternal>
4.46424

> <r_i_glide_emodel>
-50.1424

> <r_i_glide_energy>
-49.2746

> <r_i_glide_erotb>
0.5855

> <r_i_glide_esite>
0

> <r_i_glide_evdw>
-46.5436

> <r_i_glide_gscore>
-3.58251

> <r_i_glide_hbond>
-0.0922924

> <r_i_glide_ligand_efficiency>
-0.111953

> <r_i_glide_ligand_efficiency_ln>
-0.802222

> <r_i_glide_ligand_efficiency_sa>
-0.35543

> <r_i_glide_lipo>
-2.81358

> <r_i_glide_metal>
0

> <r_i_glide_rewards>
1.4747

> <s_i_glide_gridfile>
wee1_glide-grid

> <s_m_Source_File>
wee1_decoys_glide_SP.sdf

> <s_m_Source_Path>
/Users/zhangxujun/Desktop

> <s_m_entry_id>
2963

> <s_m_entry_name>
wee1_decoys_glide_SP.2688

> <s_m_subgroup_title>
wee1_decoys_glide_SP

> <s_m_subgroupid>
wee1_decoys_glide_SP


$$$$
