@<TRIPOS>MOLECULE
ZINC21664304_316
74   77    1
SMALL
USER_CHARGES


@<TRIPOS>ATOM
      1 C1          6.7313   54.0970   25.0425 C.3       1 UNK         0.0000 
      2 C2          6.9350   53.9320   26.5574 C.3       1 UNK         0.0000 
      3 C3          5.7147   54.3706   27.3804 C.3       1 UNK         0.0000 
      4 C4          4.6146   53.2927   27.4319 C.3       1 UNK         0.0000 
      5 N5          3.3426   53.7653   28.0078 N.am      1 UNK         0.0000 
      6 C6          3.4214   53.9960   29.4639 C.3       1 UNK         0.0000 
      7 C7          3.2779   52.6956   30.2772 C.3       1 UNK         0.0000 
      8 C8          2.1236   53.7671   27.3860 C.2       1 UNK         0.0000 
      9 O9          1.1042   54.1103   27.9918 O.2       1 UNK         0.0000 
     10 C10         1.9854   53.3199   25.9327 C.ar      1 UNK         0.0000 
     11 C11         2.8297   53.9083   24.9695 C.ar      1 UNK         0.0000 
     12 C12         2.7004   53.6412   23.6080 C.ar      1 UNK         0.0000 
     13 C13         1.6737   52.8107   23.1794 C.ar      1 UNK         0.0000 
     14 C14         0.8021   52.2483   24.0989 C.ar      1 UNK         0.0000 
     15 C15         0.9075   52.4967   25.4792 C.ar      1 UNK         0.0000 
     16 N16        -0.0599   51.9166   26.3163 N.pl3     1 UNK         0.0000 
     17 C17        -1.4095   51.5396   25.8350 C.3       1 UNK         0.0000 
     18 C18        -2.5516   51.5349   26.8786 C.3       1 UNK         0.0000 
     19 N19        -2.1036   50.8968   28.2000 N.4       1 UNK         0.0000 
     20 C20        -0.7470   51.4349   28.6652 C.3       1 UNK         0.0000 
     21 C21         0.2789   51.1806   27.5460 C.3       1 UNK         0.0000 
     22 N22         3.5695   54.2447   22.6955 N.pl3     1 UNK         0.0000 
     23 S23         4.4585   53.2812   21.5039 S.o2      1 UNK         0.0000 
     24 O24         5.5043   52.5670   22.2415 O.2       1 UNK         0.0000 
     25 O25         3.4784   52.5650   20.6813 O.2       1 UNK         0.0000 
     26 C26         5.2646   54.5057   20.4872 C.ar      1 UNK         0.0000 
     27 C27         6.4289   55.1202   20.9355 C.ar      1 UNK         0.0000 
     28 C28         7.0436   56.0924   20.1548 C.ar      1 UNK         0.0000 
     29 C29         6.4800   56.5155   18.9456 C.ar      1 UNK         0.0000 
     30 C30         5.2726   55.9209   18.5064 C.ar      1 UNK         0.0000 
     31 C31         4.7035   54.8969   19.2736 C.ar      1 UNK         0.0000 
     32 C32         4.5392   56.4281   17.2634 C.3       1 UNK         0.0000 
     33 C33         5.4297   57.2648   16.3292 C.3       1 UNK         0.0000 
     34 C34         6.2407   58.2920   17.1310 C.3       1 UNK         0.0000 
     35 C35         7.1916   57.5737   18.1020 C.3       1 UNK         0.0000 
     36 H36         7.5850   53.7226   24.4807 H         1 UNK         0.0000 
     37 H37         6.5948   55.1431   24.7718 H         1 UNK         0.0000 
     38 H38         5.8586   53.5461   24.6950 H         1 UNK         0.0000 
     39 H39         7.1780   52.8967   26.7892 H         1 UNK         0.0000 
     40 H40         7.8104   54.4973   26.8741 H         1 UNK         0.0000 
     41 H41         6.0521   54.5975   28.3917 H         1 UNK         0.0000 
     42 H42         5.3150   55.2987   26.9750 H         1 UNK         0.0000 
     43 H43         4.4785   52.8966   26.4302 H         1 UNK         0.0000 
     44 H44         4.9812   52.4337   27.9932 H         1 UNK         0.0000 
     45 H45         4.3651   54.4782   29.7205 H         1 UNK         0.0000 
     46 H46         2.6449   54.6982   29.7759 H         1 UNK         0.0000 
     47 H47         3.3712   52.8966   31.3434 H         1 UNK         0.0000 
     48 H48         2.3022   52.2342   30.1161 H         1 UNK         0.0000 
     49 H49         4.0497   51.9702   30.0179 H         1 UNK         0.0000 
     50 H50         3.5951   54.6064   25.2777 H         1 UNK         0.0000 
     51 H51         1.5307   52.6112   22.1287 H         1 UNK         0.0000 
     52 H52         0.0291   51.6056   23.7061 H         1 UNK         0.0000 
     53 H53        -1.7100   52.1256   24.9658 H         1 UNK         0.0000 
     54 H54        -1.2778   50.5071   25.5032 H         1 UNK         0.0000 
     55 H55        -3.4109   50.9465   26.5547 H         1 UNK         0.0000 
     56 H56        -2.8741   52.5410   27.1323 H         1 UNK         0.0000 
     57 H57        -1.9857   49.8825   28.0841 H         1 UNK         0.0000 
     58 H58        -0.5084   50.8967   29.5825 H         1 UNK         0.0000 
     59 H59        -0.8644   52.4926   28.9068 H         1 UNK         0.0000 
     60 H60         0.2959   50.1196   27.2847 H         1 UNK         0.0000 
     61 H61         1.2899   51.3857   27.8915 H         1 UNK         0.0000 
     62 H62         4.1727   54.9177   23.1372 H         1 UNK         0.0000 
     63 H63         6.8817   54.8261   21.8725 H         1 UNK         0.0000 
     64 H64         7.9862   56.4968   20.4908 H         1 UNK         0.0000 
     65 H65         3.7756   54.4471   18.9450 H         1 UNK         0.0000 
     66 H66         4.0950   55.5980   16.7147 H         1 UNK         0.0000 
     67 H67         3.7091   57.0501   17.6002 H         1 UNK         0.0000 
     68 H68         4.8146   57.7718   15.5843 H         1 UNK         0.0000 
     69 H69         6.1053   56.6116   15.7750 H         1 UNK         0.0000 
     70 H70         5.5642   58.9467   17.6826 H         1 UNK         0.0000 
     71 H71         6.8054   58.9379   16.4579 H         1 UNK         0.0000 
     72 H72         7.6931   58.3049   18.7379 H         1 UNK         0.0000 
     73 H73         7.9758   57.0799   17.5264 H         1 UNK         0.0000 
     74 H74        -2.7995   51.0048   28.9234 H         1 UNK         0.0000 
@<TRIPOS>BOND
     1    1    2 1    
     2    1   36 1    
     3    1   37 1    
     4    1   38 1    
     5    2    3 1    
     6    2   39 1    
     7    2   40 1    
     8    3    4 1    
     9    3   41 1    
    10    3   42 1    
    11    4    5 1    
    12    4   43 1    
    13    4   44 1    
    14    5    6 1    
    15    5    8 am   BACKBONE|DICT|INTERRES
    16    6    7 1    
    17    6   45 1    
    18    6   46 1    
    19    7   47 1    
    20    7   48 1    
    21    7   49 1    
    22    8    9 2    
    23    8   10 1    
    24   10   15 ar   
    25   10   11 ar   
    26   11   12 ar   
    27   11   50 1    
    28   12   13 ar   
    29   12   22 1    
    30   13   14 ar   
    31   13   51 1    
    32   14   15 ar   
    33   14   52 1    
    34   15   16 1    
    35   16   21 1    
    36   16   17 1    
    37   17   18 1    
    38   17   53 1    
    39   17   54 1    
    40   18   19 1    
    41   18   55 1    
    42   18   56 1    
    43   19   20 1    
    44   19   57 1    
    45   19   74 1    
    46   20   21 1    
    47   20   58 1    
    48   20   59 1    
    49   21   60 1    
    50   21   61 1    
    51   22   23 1    
    52   22   62 1    
    53   23   24 2    
    54   23   25 2    
    55   23   26 1    
    56   26   31 ar   
    57   26   27 ar   
    58   27   28 ar   
    59   27   63 1    
    60   28   29 ar   
    61   28   64 1    
    62   29   35 1    
    63   29   30 ar   
    64   30   31 ar   
    65   30   32 1    
    66   31   65 1    
    67   32   33 1    
    68   32   66 1    
    69   32   67 1    
    70   33   34 1    
    71   33   68 1    
    72   33   69 1    
    73   34   35 1    
    74   34   70 1    
    75   34   71 1    
    76   35   72 1    
    77   35   73 1    
@<TRIPOS>SUBSTRUCTURE
     1 UNK         1 GROUP             0       ****    0 ROOT    
