@<TRIPOS>MOLECULE
ZINC51318354_292
66   69    1
SMALL
USER_CHARGES


@<TRIPOS>ATOM
      1 C1          7.2160   57.5061   12.3804 C.3       1 UNK         0.0000 
      2 C2          6.4816   57.2902   13.6898 C.ar      1 UNK         0.0000 
      3 C3          6.3798   56.0053   14.2270 C.ar      1 UNK         0.0000 
      4 C4          5.7023   55.8031   15.4254 C.ar      1 UNK         0.0000 
      5 C5          5.1187   56.8878   16.0921 C.ar      1 UNK         0.0000 
      6 C6          5.2190   58.1743   15.5492 C.ar      1 UNK         0.0000 
      7 C7          5.8979   58.3741   14.3508 C.ar      1 UNK         0.0000 
      8 C8          4.3935   56.6668   17.4261 C.3       1 UNK         0.0000 
      9 H9          3.9599   57.6377   17.6798 H         1 UNK         0.0000 
     10 C10         5.2880   56.1953   18.6065 C.2       1 UNK         0.0000 
     11 C11         5.0931   54.9522   19.1265 C.2       1 UNK         0.0000 
     12 N12         4.1154   54.1334   18.6415 N.am      1 UNK         0.0000 
     13 C13         3.2147   54.4437   17.6810 C.2       1 UNK         0.0000 
     14 O14         2.4984   53.6098   17.1440 O.2       1 UNK         0.0000 
     15 N15         3.2412   55.7398   17.2816 N.am      1 UNK         0.0000 
     16 C16         5.9039   54.2750   20.2335 C.3       1 UNK         0.0000 
     17 N17         5.5173   54.6233   21.6124 N.3       1 UNK         0.0000 
     18 C18         6.7021   54.6879   22.4804 C.3       1 UNK         0.0000 
     19 C19         6.3735   55.0439   23.9456 C.3       1 UNK         0.0000 
     20 N20         5.2759   54.1048   24.5176 N.4       1 UNK         0.0000 
     21 C21         4.0516   54.0843   23.5620 C.3       1 UNK         0.0000 
     22 C22         4.4934   53.7076   22.1298 C.3       1 UNK         0.0000 
     23 C23         4.9638   54.5056   25.9919 C.3       1 UNK         0.0000 
     24 C24         3.5882   53.9688   26.4771 C.3       1 UNK         0.0000 
     25 C25         3.3506   54.1792   27.9894 C.3       1 UNK         0.0000 
     26 C26         4.5062   53.6226   28.8408 C.3       1 UNK         0.0000 
     27 C27         5.8652   54.1957   28.3971 C.3       1 UNK         0.0000 
     28 C28         6.1136   53.9766   26.8946 C.3       1 UNK         0.0000 
     29 C29         6.3770   57.1089   19.0609 C.2       1 UNK         0.0000 
     30 O30         7.1037   56.8970   20.0360 O.2       1 UNK         0.0000 
     31 O31         6.4880   58.2250   18.3135 O.3       1 UNK         0.0000 
     32 C32         7.5042   59.1910   18.5450 C.3       1 UNK         0.0000 
     33 H33         6.8977   58.4245   11.8876 H         1 UNK         0.0000 
     34 H34         7.0113   56.6880   11.6864 H         1 UNK         0.0000 
     35 H35         8.2920   57.5456   12.5536 H         1 UNK         0.0000 
     36 H36         6.8277   55.1645   13.7204 H         1 UNK         0.0000 
     37 H37         5.6357   54.8074   15.8400 H         1 UNK         0.0000 
     38 H38         4.7927   59.0302   16.0591 H         1 UNK         0.0000 
     39 H39         5.9743   59.3721   13.9437 H         1 UNK         0.0000 
     40 H40         4.0049   53.2004   19.0070 H         1 UNK         0.0000 
     41 H41         2.5589   55.9720   16.5753 H         1 UNK         0.0000 
     42 H42         5.8972   53.1947   20.0783 H         1 UNK         0.0000 
     43 H43         6.9525   54.5060   20.0450 H         1 UNK         0.0000 
     44 H44         7.1415   53.6965   22.4845 H         1 UNK         0.0000 
     45 H45         7.4381   55.3968   22.1006 H         1 UNK         0.0000 
     46 H46         6.0399   56.0735   24.0821 H         1 UNK         0.0000 
     47 H47         7.2758   54.8791   24.5315 H         1 UNK         0.0000 
     48 H48         3.5561   55.0560   23.6148 H         1 UNK         0.0000 
     49 H49         3.3857   53.3025   23.9282 H         1 UNK         0.0000 
     50 H50         3.6194   53.6999   21.4736 H         1 UNK         0.0000 
     51 H51         4.9283   52.7050   22.1554 H         1 UNK         0.0000 
     52 H52         4.9294   55.5939   26.0884 H         1 UNK         0.0000 
     53 H53         2.7664   54.3882   25.8972 H         1 UNK         0.0000 
     54 H54         3.5425   52.8972   26.2839 H         1 UNK         0.0000 
     55 H55         3.2341   55.2464   28.1923 H         1 UNK         0.0000 
     56 H56         2.4091   53.7124   28.2874 H         1 UNK         0.0000 
     57 H57         4.3315   53.8399   29.8964 H         1 UNK         0.0000 
     58 H58         4.5301   52.5349   28.7539 H         1 UNK         0.0000 
     59 H59         5.9059   55.2641   28.6208 H         1 UNK         0.0000 
     60 H60         6.6754   53.7404   28.9668 H         1 UNK         0.0000 
     61 H61         6.2125   52.8993   26.7334 H         1 UNK         0.0000 
     62 H62         7.0848   54.3790   26.6105 H         1 UNK         0.0000 
     63 H63         7.6125   59.8163   17.6585 H         1 UNK         0.0000 
     64 H64         7.2405   59.8334   19.3857 H         1 UNK         0.0000 
     65 H65         8.4707   58.7245   18.7410 H         1 UNK         0.0000 
     66 H66         5.6484   53.1653   24.5212 H         1 UNK         0.0000 
@<TRIPOS>BOND
     1    1    2 1    
     2    1   33 1    
     3    1   34 1    
     4    1   35 1    
     5    2    7 ar   
     6    2    3 ar   
     7    3    4 ar   
     8    3   36 1    
     9    4    5 ar   
    10    4   37 1    
    11    5    6 ar   
    12    5    8 1    
    13    6    7 ar   
    14    6   38 1    
    15    7   39 1    
    16    8    9 1    
    17    8   15 1    
    18    8   10 1    
    19   10   11 2    
    20   10   29 1    
    21   11   12 1    
    22   11   16 1    
    23   12   13 am   BACKBONE|DICT|INTERRES
    24   12   40 1    
    25   13   14 2    
    26   13   15 am   BACKBONE|DICT|INTERRES
    27   15   41 1    
    28   16   17 1    
    29   16   42 1    
    30   16   43 1    
    31   17   22 1    
    32   17   18 1    
    33   18   19 1    
    34   18   44 1    
    35   18   45 1    
    36   19   20 1    
    37   19   46 1    
    38   19   47 1    
    39   20   21 1    
    40   20   23 1    
    41   20   66 1    
    42   21   22 1    
    43   21   48 1    
    44   21   49 1    
    45   22   50 1    
    46   22   51 1    
    47   23   28 1    
    48   23   24 1    
    49   23   52 1    
    50   24   25 1    
    51   24   53 1    
    52   24   54 1    
    53   25   26 1    
    54   25   55 1    
    55   25   56 1    
    56   26   27 1    
    57   26   57 1    
    58   26   58 1    
    59   27   28 1    
    60   27   59 1    
    61   27   60 1    
    62   28   61 1    
    63   28   62 1    
    64   29   30 2    
    65   29   31 1    
    66   31   32 1    
    67   32   63 1    
    68   32   64 1    
    69   32   65 1    
@<TRIPOS>SUBSTRUCTURE
     1 UNK         1 GROUP             0       ****    0 ROOT    
