ZINC20617254_5680
                    3D
 Schrodinger Suite 2024-2.
 66 69  0  0  1  0            999 V2000
   -2.2931   50.7161   27.0367 C   0  0  0  0  0  0
   -1.1958   51.5315   27.6980 C   0  0  0  0  0  0
   -0.1472   52.0951   26.9694 C   0  0  0  0  0  0
    0.8390   52.8203   27.6466 C   0  0  0  0  0  0
    1.8728   53.3647   26.7529 C   0  0  0  0  0  0
    1.8703   53.2547   25.3928 C   0  0  0  0  0  0
    0.7574   52.5871   24.8259 C   0  0  0  0  0  0
    0.5121   52.5750   23.5113 N   0  3  0  0  0  0
   -0.5290   52.0034   22.7123 C   0  0  0  0  0  0
   -1.6941   51.4040   23.2111 C   0  0  0  0  0  0
   -2.6603   50.9131   22.3346 C   0  0  0  0  0  0
   -2.4798   51.0285   20.9566 C   0  0  0  0  0  0
   -1.3300   51.6225   20.4374 C   0  0  0  0  0  0
   -0.3538   52.0966   21.3276 C   0  0  0  0  0  0
   -1.2454   51.7205   19.0627 O   0  0  0  0  0  0
   -0.0622   52.2532   18.4706 C   0  0  0  0  0  0
   -0.1046   51.9704   25.5850 O   0  0  0  0  0  0
    2.9542   53.9052   24.6571 C   0  0  0  0  0  0
    3.5044   54.8968   25.1311 O   0  0  0  0  0  0
    3.3339   53.3658   23.4709 N   0  0  0  0  0  0
    4.3256   53.8852   22.6116 C   0  0  0  0  0  0
    4.0104   53.9640   21.2554 C   0  0  0  0  0  0
    4.9262   54.4970   20.3523 C   0  0  0  0  0  0
    6.1671   54.9661   20.7791 C   0  0  0  0  0  0
    6.4953   54.8647   22.1395 C   0  0  0  0  0  0
    5.5989   54.2930   23.0604 C   0  0  0  0  0  0
    5.8995   54.0964   24.3941 O   0  0  0  0  0  0
    7.1565   54.4719   24.9047 C   0  0  0  0  0  0
    7.0005   55.4884   19.8100 O   0  0  0  0  0  0
    8.3533   55.7896   20.1329 C   0  0  0  0  0  0
    0.7366   53.0027   29.0451 C   0  0  0  0  0  0
   -0.3428   52.3922   29.6916 C   0  0  0  0  0  0
   -1.2959   51.6816   29.0433 N   0  0  0  0  0  0
    1.6928   53.8395   29.9030 C   0  0  0  0  0  0
    3.0512   53.7614   29.4866 O   0  0  0  0  0  0
    3.7905   52.6563   29.6808 C   0  0  0  0  0  0
    3.5049   51.6967   30.3971 O   0  0  0  0  0  0
    5.0693   52.6892   28.8699 C   0  0  0  0  0  0
   -2.9507   51.3583   26.4519 H   0  0  0  0  0  0
   -1.8546   49.9629   26.3803 H   0  0  0  0  0  0
   -2.9011   50.1811   27.7695 H   0  0  0  0  0  0
    2.6840   53.9150   27.2035 H   0  0  0  0  0  0
   -1.8824   51.3128   24.2670 H   0  0  0  0  0  0
   -3.5549   50.4484   22.7240 H   0  0  0  0  0  0
   -3.2364   50.6499   20.2844 H   0  0  0  0  0  0
    0.5416   52.5645   20.9423 H   0  0  0  0  0  0
   -0.1602   52.2213   17.3845 H   0  0  0  0  0  0
    0.1022   53.2940   18.7520 H   0  0  0  0  0  0
    0.8183   51.6668   18.7348 H   0  0  0  0  0  0
    2.8940   52.5138   23.1615 H   0  0  0  0  0  0
    3.0491   53.6359   20.8882 H   0  0  0  0  0  0
    4.6661   54.5594   19.3055 H   0  0  0  0  0  0
    7.4643   55.1953   22.4774 H   0  0  0  0  0  0
    7.1607   54.3189   25.9843 H   0  0  0  0  0  0
    7.9042   53.8181   24.4668 H   0  0  0  0  0  0
    7.4133   55.5148   24.7101 H   0  0  0  0  0  0
    8.8442   56.2365   19.2685 H   0  0  0  0  0  0
    8.4311   56.4963   20.9569 H   0  0  0  0  0  0
    8.9137   54.8967   20.3992 H   0  0  0  0  0  0
   -0.4835   52.4716   30.7632 H   0  0  0  0  0  0
    1.6108   53.5397   30.9487 H   0  0  0  0  0  0
    1.3715   54.8809   29.8478 H   0  0  0  0  0  0
    4.8593   52.9529   27.8331 H   0  0  0  0  0  0
    5.5046   51.6970   28.8819 H   0  0  0  0  0  0
    5.7769   53.4094   29.2764 H   0  0  0  0  0  0
    1.1819   53.0857   22.9452 H   0  0  0  0  0  0
  1  2  1  0  0  0
  1 39  1  0  0  0
  1 40  1  0  0  0
  1 41  1  0  0  0
  2 33  2  0  0  0
  2  3  1  0  0  0
  3 17  1  0  0  0
  3  4  2  0  0  0
  4  5  1  0  0  0
  4 31  1  0  0  0
  5  6  2  0  0  0
  5 42  1  0  0  0
  6  7  1  0  0  0
  6 18  1  0  0  0
  7  8  2  0  0  0
  7 17  1  0  0  0
  8  9  1  0  0  0
  8 66  1  0  0  0
  9 14  2  0  0  0
  9 10  1  0  0  0
 10 11  2  0  0  0
 10 43  1  0  0  0
 11 12  1  0  0  0
 11 44  1  0  0  0
 12 13  2  0  0  0
 12 45  1  0  0  0
 13 14  1  0  0  0
 13 15  1  0  0  0
 14 46  1  0  0  0
 15 16  1  0  0  0
 16 47  1  0  0  0
 16 48  1  0  0  0
 16 49  1  0  0  0
 18 19  2  0  0  0
 18 20  1  0  0  0
 20 21  1  0  0  0
 20 50  1  0  0  0
 21 26  2  0  0  0
 21 22  1  0  0  0
 22 23  2  0  0  0
 22 51  1  0  0  0
 23 24  1  0  0  0
 23 52  1  0  0  0
 24 25  2  0  0  0
 24 29  1  0  0  0
 25 26  1  0  0  0
 25 53  1  0  0  0
 26 27  1  0  0  0
 27 28  1  0  0  0
 28 54  1  0  0  0
 28 55  1  0  0  0
 28 56  1  0  0  0
 29 30  1  0  0  0
 30 57  1  0  0  0
 30 58  1  0  0  0
 30 59  1  0  0  0
 31 32  2  0  0  0
 31 34  1  0  0  0
 32 33  1  0  0  0
 32 60  1  0  0  0
 34 35  1  0  0  0
 34 61  1  0  0  0
 34 62  1  0  0  0
 35 36  1  0  0  0
 36 37  2  0  0  0
 36 38  1  0  0  0
 38 63  1  0  0  0
 38 64  1  0  0  0
 38 65  1  0  0  0
M  CHG  1   8   1
M  END
> <i_i_glide_confnum>
43

> <i_i_glide_lignum>
5681

> <i_i_glide_posenum>
292

> <i_i_glide_rotatable_bonds>
10

> <i_m_Source_File_Index>
4929

> <b_m_subgroup_collapsed>
0

> <r_i_docking_score>
-6.16072

> <r_i_glide_ecoul>
-7.21524

> <r_i_glide_eff_state_penalty>
0

> <r_i_glide_einternal>
13.6905

> <r_i_glide_emodel>
-71.428

> <r_i_glide_energy>
-54.3451

> <r_i_glide_erotb>
0.458322

> <r_i_glide_esite>
0

> <r_i_glide_evdw>
-47.1299

> <r_i_glide_gscore>
-6.16072

> <r_i_glide_hbond>
-0.323928

> <r_i_glide_ligand_efficiency>
-0.162124

> <r_i_glide_ligand_efficiency_ln>
-1.32843

> <r_i_glide_ligand_efficiency_sa>
-0.545057

> <r_i_glide_lipo>
-2.23517

> <r_i_glide_metal>
0

> <r_i_glide_rewards>
-0.621165

> <s_i_glide_gridfile>
wee1_glide-grid

> <s_m_Source_File>
wee1_decoys_glide_SP.sdf

> <s_m_Source_Path>
/Users/zhangxujun/Desktop

> <s_m_entry_id>
5204

> <s_m_entry_name>
wee1_decoys_glide_SP.4929

> <s_m_subgroup_title>
wee1_decoys_glide_SP

> <s_m_subgroupid>
wee1_decoys_glide_SP


$$$$
