@<TRIPOS>MOLECULE
ZINC04545463_3896
42   45    1
SMALL
USER_CHARGES


@<TRIPOS>ATOM
      1 C1          6.2508   53.3605   28.0824 C.3       1 UNK         0.0000 
      2 C2          4.9038   52.9692   28.7111 C.3       1 UNK         0.0000 
      3 C3          3.8980   54.1404   28.8759 C.3       1 UNK         0.0000 
      4 H4          4.4040   54.8952   29.4812 H         1 UNK         0.0000 
      5 C5          3.4822   54.8528   27.5644 C.3       1 UNK         0.0000 
      6 C6          2.8274   53.8650   26.5698 C.3       1 UNK         0.0000 
      7 C7          1.7497   53.0533   27.2974 C.2       1 UNK         0.0000 
      8 C8          1.6696   53.0147   28.7038 C.2       1 UNK         0.0000 
      9 S9          0.3072   52.0964   29.2644 S.3       1 UNK         0.0000 
     10 C10        -0.1231   51.7060   27.6365 C.2       1 UNK         0.0000 
     11 C11         0.7067   52.3197   26.6943 C.2       1 UNK         0.0000 
     12 C12         0.3620   52.0845   25.2968 C.2       1 UNK         0.0000 
     13 N13        -0.6926   51.5179   24.8759 N.2       1 UNK         0.0000 
     14 C14        -1.6635   51.0461   25.8902 C.3       1 UNK         0.0000 
     15 H15        -1.9414   50.0324   25.5939 H         1 UNK         0.0000 
     16 N16        -1.1919   50.8971   27.2902 N.pl3     1 UNK         0.0000 
     17 C17        -2.9955   51.8290   25.8043 C.ar      1 UNK         0.0000 
     18 C18        -4.0490   51.4603   26.6532 C.ar      1 UNK         0.0000 
     19 C19        -5.2560   52.1554   26.6324 C.ar      1 UNK         0.0000 
     20 C20        -5.4227   53.2248   25.7576 C.ar      1 UNK         0.0000 
     21 C21        -4.3990   53.5936   24.8918 C.ar      1 UNK         0.0000 
     22 C22        -3.1938   52.8963   24.9109 C.ar      1 UNK         0.0000 
     23 F23        -6.5848   53.9157   25.7525 F         1 UNK         0.0000 
     24 O24         1.1964   52.4435   24.2793 O.3       1 UNK         0.0000 
     25 C25         2.6218   53.7347   29.6560 C.3       1 UNK         0.0000 
     26 H26         6.9129   52.4988   28.0129 H         1 UNK         0.0000 
     27 H27         6.7648   54.1072   28.6850 H         1 UNK         0.0000 
     28 H28         6.1303   53.7555   27.0747 H         1 UNK         0.0000 
     29 H29         4.4508   52.1779   28.1171 H         1 UNK         0.0000 
     30 H30         5.0984   52.5123   29.6811 H         1 UNK         0.0000 
     31 H31         2.7900   55.6724   27.7815 H         1 UNK         0.0000 
     32 H32         4.3530   55.2957   27.0793 H         1 UNK         0.0000 
     33 H33         2.4127   54.4104   25.7227 H         1 UNK         0.0000 
     34 H34         3.5763   53.1943   26.1479 H         1 UNK         0.0000 
     35 H35        -1.2958   49.9545   27.6771 H         1 UNK         0.0000 
     36 H36        -3.9280   50.6361   27.3430 H         1 UNK         0.0000 
     37 H37        -6.0579   51.8711   27.2971 H         1 UNK         0.0000 
     38 H38        -4.5396   54.4200   24.2111 H         1 UNK         0.0000 
     39 H39        -2.4129   53.2092   24.2340 H         1 UNK         0.0000 
     40 H40         1.2275   51.7142   23.6586 H         1 UNK         0.0000 
     41 H41         2.8762   53.0953   30.5019 H         1 UNK         0.0000 
     42 H42         2.1434   54.6241   30.0696 H         1 UNK         0.0000 
@<TRIPOS>BOND
     1    1    2 1    
     2    1   26 1    
     3    1   27 1    
     4    1   28 1    
     5    2    3 1    
     6    2   29 1    
     7    2   30 1    
     8    3    4 1    
     9    3   25 1    
    10    3    5 1    
    11    5    6 1    
    12    5   31 1    
    13    5   32 1    
    14    6    7 1    
    15    6   33 1    
    16    6   34 1    
    17    7   11 1    
    18    7    8 2    
    19    8    9 1    
    20    8   25 1    
    21    9   10 1    
    22   10   16 1    
    23   10   11 2    
    24   11   12 1    
    25   12   13 2    
    26   12   24 1    
    27   13   14 1    
    28   14   15 1    
    29   14   16 1    
    30   14   17 1    
    31   16   35 1    
    32   17   22 ar   
    33   17   18 ar   
    34   18   19 ar   
    35   18   36 1    
    36   19   20 ar   
    37   19   37 1    
    38   20   21 ar   
    39   20   23 1    
    40   21   22 ar   
    41   21   38 1    
    42   22   39 1    
    43   24   40 1    
    44   25   41 1    
    45   25   42 1    
@<TRIPOS>SUBSTRUCTURE
     1 UNK         1 GROUP             0       ****    0 ROOT    
