@<TRIPOS>MOLECULE
ZINC22011600_616
52   56    1
SMALL
USER_CHARGES


@<TRIPOS>ATOM
      1 C1          2.6622   50.0397   20.5073 C.2       1 UNK         0.0000 
      2 C2          2.7246   50.7951   21.6781 C.2       1 UNK         0.0000 
      3 C3          2.7820   52.1797   21.4743 C.2       1 UNK         0.0000 
      4 S4          2.8283   52.4955   19.7604 S.3       1 UNK         0.0000 
      5 C5          2.7030   50.8200   19.3725 C.2       1 UNK         0.0000 
      6 C6          2.7737   53.3247   22.4836 C.3       1 UNK         0.0000 
      7 H7          2.2451   54.1894   22.0782 H         1 UNK         0.0000 
      8 C8          4.1511   53.7883   22.9805 C.2       1 UNK         0.0000 
      9 C9          5.2772   54.0175   22.1727 C.2       1 UNK         0.0000 
     10 C10         6.3822   54.4706   22.8817 C.2       1 UNK         0.0000 
     11 S11         6.0632   54.6076   24.5741 S.3       1 UNK         0.0000 
     12 C12         4.4205   54.0976   24.3224 C.2       1 UNK         0.0000 
     13 C13         3.4335   53.9141   25.4587 C.3       1 UNK         0.0000 
     14 C14         2.0043   53.9306   24.8880 C.3       1 UNK         0.0000 
     15 N15         1.9103   52.9300   23.7161 N.4       1 UNK         0.0000 
     16 C16         0.4169   52.6780   23.3475 C.3       1 UNK         0.0000 
     17 C17        -0.0267   51.3328   23.9646 C.2       1 UNK         0.0000 
     18 O18         0.8318   50.6122   24.4808 O.2       1 UNK         0.0000 
     19 N19        -1.3348   50.9720   23.8963 N.am      1 UNK         0.0000 
     20 C20        -2.3789   51.9123   23.4724 C.3       1 UNK         0.0000 
     21 C21        -3.6982   51.1584   23.6057 C.3       1 UNK         0.0000 
     22 C22        -3.3240   49.9629   24.4352 C.ar      1 UNK         0.0000 
     23 C23        -1.9349   49.8673   24.5330 C.ar      1 UNK         0.0000 
     24 C24        -1.3523   48.7172   25.0826 C.ar      1 UNK         0.0000 
     25 C25        -2.1610   47.7217   25.6216 C.ar      1 UNK         0.0000 
     26 C26        -3.5505   47.8446   25.5792 C.ar      1 UNK         0.0000 
     27 C27        -4.1366   48.9545   24.9602 C.ar      1 UNK         0.0000 
     28 S28        -4.5430   46.5662   26.3246 S.o2      1 UNK         0.0000 
     29 O29        -4.0688   45.2967   25.7628 O.2       1 UNK         0.0000 
     30 O30        -5.9501   46.9642   26.2255 O.2       1 UNK         0.0000 
     31 N31        -4.0959   46.6045   28.0108 N.pl3     1 UNK         0.0000 
     32 H32         2.6005   48.9605   20.4884 H         1 UNK         0.0000 
     33 H33         2.7010   50.3351   22.6554 H         1 UNK         0.0000 
     34 H34         2.7037   50.4971   18.3398 H         1 UNK         0.0000 
     35 H35         5.2829   53.8601   21.1026 H         1 UNK         0.0000 
     36 H36         7.3599   54.7234   22.4949 H         1 UNK         0.0000 
     37 H37         3.5482   54.6891   26.2186 H         1 UNK         0.0000 
     38 H38         3.6236   52.9593   25.9523 H         1 UNK         0.0000 
     39 H39         1.7082   54.8961   24.4805 H         1 UNK         0.0000 
     40 H40         1.2958   53.6058   25.6530 H         1 UNK         0.0000 
     41 H41         0.3508   52.5995   22.2617 H         1 UNK         0.0000 
     42 H42        -0.1748   53.5317   23.6830 H         1 UNK         0.0000 
     43 H43        -2.3909   52.6855   24.2433 H         1 UNK         0.0000 
     44 H44        -2.2256   52.4360   22.5294 H         1 UNK         0.0000 
     45 H45        -4.0279   50.8323   22.6184 H         1 UNK         0.0000 
     46 H46        -4.4888   51.7927   24.0119 H         1 UNK         0.0000 
     47 H47        -0.2823   48.5794   25.1339 H         1 UNK         0.0000 
     48 H48        -1.6969   46.8648   26.0869 H         1 UNK         0.0000 
     49 H49        -5.2123   49.0240   24.8825 H         1 UNK         0.0000 
     50 H50        -3.0892   46.4721   28.1532 H         1 UNK         0.0000 
     51 H51        -4.3772   47.4713   28.4750 H         1 UNK         0.0000 
     52 H52         2.2470   52.0328   24.0483 H         1 UNK         0.0000 
@<TRIPOS>BOND
     1    1    5 2    
     2    1    2 1    
     3    1   32 1    
     4    2    3 2    
     5    2   33 1    
     6    3    4 1    
     7    3    6 1    
     8    4    5 1    
     9    5   34 1    
    10    6    7 1    
    11    6   15 1    
    12    6    8 1    
    13    8   12 2    
    14    8    9 1    
    15    9   10 2    
    16    9   35 1    
    17   10   11 1    
    18   10   36 1    
    19   11   12 1    
    20   12   13 1    
    21   13   14 1    
    22   13   37 1    
    23   13   38 1    
    24   14   15 1    
    25   14   39 1    
    26   14   40 1    
    27   15   16 1    
    28   15   52 1    
    29   16   17 1    
    30   16   41 1    
    31   16   42 1    
    32   17   18 2    
    33   17   19 am   BACKBONE|DICT|INTERRES
    34   19   23 1    
    35   19   20 1    
    36   20   21 1    
    37   20   43 1    
    38   20   44 1    
    39   21   22 1    
    40   21   45 1    
    41   21   46 1    
    42   22   27 ar   
    43   22   23 ar   
    44   23   24 ar   
    45   24   25 ar   
    46   24   47 1    
    47   25   26 ar   
    48   25   48 1    
    49   26   27 ar   
    50   26   28 1    
    51   27   49 1    
    52   28   29 2    
    53   28   30 2    
    54   28   31 1    
    55   31   50 1    
    56   31   51 1    
@<TRIPOS>SUBSTRUCTURE
     1 UNK         1 GROUP             0       ****    0 ROOT    
