ZINC44658374_1145
                    3D
 Schrodinger Suite 2024-2.
 59 63  0  0  1  0            999 V2000
    3.1852   56.2189   16.9202 C   0  0  0  0  0  0
    4.3121   56.2554   17.9641 C   0  0  2  0  0  0
    3.9054   56.6759   18.8813 H   0  0  0  0  0  0
    5.4831   57.1709   17.5290 C   0  0  0  0  0  0
    6.6587   57.1260   18.5285 C   0  0  0  0  0  0
    7.0798   55.6721   18.8510 C   0  0  0  0  0  0
    5.8765   54.9741   19.3407 N   0  0  0  0  0  0
    4.8191   54.8330   18.3189 C   0  0  0  0  0  0
    5.6262   54.8968   20.6760 C   0  0  0  0  0  0
    6.4411   55.2896   21.5158 O   0  0  0  0  0  0
    4.3496   54.1706   21.1488 C   0  0  0  0  0  0
    4.3400   53.6970   22.9116 S   0  0  0  0  0  0
    2.5801   53.8281   23.3934 C   0  0  1  0  0  0
    2.3696   54.8924   23.5183 H   0  0  0  0  0  0
    1.6874   53.2921   22.3805 N   0  0  0  0  0  0
    0.6455   52.5690   22.9295 N   0  0  0  0  0  0
    0.9306   52.4219   24.1457 C   0  0  0  0  0  0
    2.0857   53.0791   24.5688 N   0  0  0  0  0  0
    2.5156   53.4263   25.8873 C   0  0  0  0  0  0
    1.6074   53.4908   26.9602 C   0  0  0  0  0  0
    2.0202   53.8243   28.2470 C   0  0  0  0  0  0
    3.3614   54.0964   28.4890 C   0  0  0  0  0  0
    4.2850   54.0423   27.4542 C   0  0  0  0  0  0
    3.8623   53.7104   26.1713 C   0  0  0  0  0  0
    3.8882   54.4907   30.0801 Cl  0  0  0  0  0  0
    0.0546   51.6313   24.9864 C   0  0  0  0  0  0
   -1.2895   51.7556   25.0614 C   0  0  0  0  0  0
   -2.2452   52.6586   24.3935 C   0  0  0  0  0  0
   -3.5648   52.5915   24.6621 C   0  0  0  0  0  0
   -4.0158   51.6006   25.6300 C   0  0  0  0  0  0
   -3.1508   50.7596   26.2554 C   0  0  0  0  0  0
   -1.7794   50.8215   25.9816 C   0  0  0  0  0  0
   -0.8063   50.0967   26.4817 N   0  3  0  0  0  0
    0.4898   50.5137   25.9148 C   0  0  0  0  0  0
    3.5287   55.7989   15.9740 H   0  0  0  0  0  0
    2.8028   57.2206   16.7202 H   0  0  0  0  0  0
    2.3464   55.6148   17.2679 H   0  0  0  0  0  0
    5.8470   56.8372   16.5556 H   0  0  0  0  0  0
    5.1369   58.1932   17.3646 H   0  0  0  0  0  0
    7.5100   57.6713   18.1194 H   0  0  0  0  0  0
    6.3874   57.6470   19.4479 H   0  0  0  0  0  0
    7.3998   55.1598   17.9423 H   0  0  0  0  0  0
    7.9335   55.5731   19.5246 H   0  0  0  0  0  0
    4.0342   54.1300   18.5965 H   0  0  0  0  0  0
    5.2626   54.3621   17.4401 H   0  0  0  0  0  0
    3.5075   54.8337   20.9575 H   0  0  0  0  0  0
    4.1963   53.2570   20.5744 H   0  0  0  0  0  0
    1.3538   53.8951   21.6373 H   0  0  0  0  0  0
    0.5578   53.2969   26.8181 H   0  0  0  0  0  0
    1.3006   53.8683   29.0515 H   0  0  0  0  0  0
    5.3299   54.2425   27.6446 H   0  0  0  0  0  0
    4.6313   53.6439   25.4264 H   0  0  0  0  0  0
   -1.9137   53.3975   23.6783 H   0  0  0  0  0  0
   -4.2694   53.2522   24.1768 H   0  0  0  0  0  0
   -5.0707   51.5312   25.8567 H   0  0  0  0  0  0
   -3.5356   50.0413   26.9674 H   0  0  0  0  0  0
    0.9338   49.6536   25.4084 H   0  0  0  0  0  0
    1.1131   50.8308   26.7485 H   0  0  0  0  0  0
   -0.9326   49.3502   27.1809 H   0  0  0  0  0  0
  1  2  1  0  0  0
  1 35  1  0  0  0
  1 36  1  0  0  0
  1 37  1  0  0  0
  2  3  1  0  0  0
  2  8  1  0  0  0
  2  4  1  0  0  0
  4  5  1  0  0  0
  4 38  1  0  0  0
  4 39  1  0  0  0
  5  6  1  0  0  0
  5 40  1  0  0  0
  5 41  1  0  0  0
  6  7  1  0  0  0
  6 42  1  0  0  0
  6 43  1  0  0  0
  7  8  1  0  0  0
  7  9  1  0  0  0
  8 44  1  0  0  0
  8 45  1  0  0  0
  9 10  2  0  0  0
  9 11  1  0  0  0
 11 12  1  0  0  0
 11 46  1  0  0  0
 11 47  1  0  0  0
 12 13  1  0  0  0
 13 14  1  0  0  0
 13 18  1  0  0  0
 13 15  1  0  0  0
 15 16  1  0  0  0
 15 48  1  0  0  0
 16 17  2  0  0  0
 17 18  1  0  0  0
 17 26  1  0  0  0
 18 19  1  0  0  0
 19 24  2  0  0  0
 19 20  1  0  0  0
 20 21  2  0  0  0
 20 49  1  0  0  0
 21 22  1  0  0  0
 21 50  1  0  0  0
 22 23  2  0  0  0
 22 25  1  0  0  0
 23 24  1  0  0  0
 23 51  1  0  0  0
 24 52  1  0  0  0
 26 34  1  0  0  0
 26 27  2  0  0  0
 27 32  1  0  0  0
 27 28  1  0  0  0
 28 29  2  0  0  0
 28 53  1  0  0  0
 29 30  1  0  0  0
 29 54  1  0  0  0
 30 31  2  0  0  0
 30 55  1  0  0  0
 31 32  1  0  0  0
 31 56  1  0  0  0
 32 33  2  0  0  0
 33 34  1  0  0  0
 33 59  1  0  0  0
 34 57  1  0  0  0
 34 58  1  0  0  0
M  CHG  1  33   1
M  END
> <i_i_glide_confnum>
189

> <i_i_glide_lignum>
1146

> <i_i_glide_posenum>
371

> <i_i_glide_rotatable_bonds>
6

> <i_m_Source_File_Index>
4963

> <b_m_subgroup_collapsed>
0

> <r_i_docking_score>
-6.26421

> <r_i_glide_ecoul>
-6.85414

> <r_i_glide_eff_state_penalty>
0

> <r_i_glide_einternal>
6.00096

> <r_i_glide_emodel>
-61.8879

> <r_i_glide_energy>
-45.4648

> <r_i_glide_erotb>
0.5508

> <r_i_glide_esite>
-0.1

> <r_i_glide_evdw>
-38.6107

> <r_i_glide_gscore>
-6.26421

> <r_i_glide_hbond>
-0.52

> <r_i_glide_ligand_efficiency>
-0.195756

> <r_i_glide_ligand_efficiency_ln>
-1.40273

> <r_i_glide_ligand_efficiency_sa>
-0.621488

> <r_i_glide_lipo>
-1.92751

> <r_i_glide_metal>
0

> <r_i_glide_rewards>
-1.30884

> <s_i_glide_gridfile>
wee1_glide-grid

> <s_m_Source_File>
wee1_decoys_glide_SP.sdf

> <s_m_Source_Path>
/Users/zhangxujun/Desktop

> <s_m_entry_id>
5238

> <s_m_entry_name>
wee1_decoys_glide_SP.4963

> <s_m_subgroup_title>
wee1_decoys_glide_SP

> <s_m_subgroupid>
wee1_decoys_glide_SP


$$$$
