@<TRIPOS>MOLECULE
ZINC40177531_2265
53   56    1
SMALL
USER_CHARGES


@<TRIPOS>ATOM
      1 C1          5.0381   53.4501   21.2088 C.ar      1 UNK         0.0000 
      2 C2          5.4991   53.5534   22.5153 C.ar      1 UNK         0.0000 
      3 C3          6.4224   54.5409   22.8705 C.ar      1 UNK         0.0000 
      4 C4          6.9250   55.3888   21.8849 C.ar      1 UNK         0.0000 
      5 C5          6.4599   55.2966   20.5727 C.ar      1 UNK         0.0000 
      6 C6          5.5048   54.3272   20.2320 C.ar      1 UNK         0.0000 
      7 N7          5.0130   54.1432   18.9316 N.pl3     1 UNK         0.0000 
      8 C8          5.2955   55.0529   17.8328 C.3       1 UNK         0.0000 
      9 H9          6.3720   55.1251   17.6608 H         1 UNK         0.0000 
     10 C10         4.7712   54.5212   16.4818 C.3       1 UNK         0.0000 
     11 C11         4.9375   55.6042   15.4049 C.3       1 UNK         0.0000 
     12 S12         4.6359   57.2188   16.3007 S.o2      1 UNK         0.0000 
     13 O13         3.2683   57.6867   16.0579 O.2       1 UNK         0.0000 
     14 O14         5.7883   58.0953   16.0727 O.2       1 UNK         0.0000 
     15 C15         4.7277   56.4708   18.0117 C.3       1 UNK         0.0000 
     16 O16         6.8571   54.6980   24.1737 O.3       1 UNK         0.0000 
     17 C17         5.9783   54.6081   25.2366 C.ar      1 UNK         0.0000 
     18 C18         4.6171   54.8900   25.1016 C.ar      1 UNK         0.0000 
     19 C19         3.7578   54.7275   26.1719 C.ar      1 UNK         0.0000 
     20 C20         4.2486   54.3392   27.4214 C.ar      1 UNK         0.0000 
     21 C21         5.6132   54.1012   27.5777 C.ar      1 UNK         0.0000 
     22 C22         6.4702   54.2325   26.4873 C.ar      1 UNK         0.0000 
     23 N23         3.4096   54.1781   28.5344 N.pl3     1 UNK         0.0000 
     24 C24         1.9608   54.1716   28.3709 C.3       1 UNK         0.0000 
     25 H25         1.6782   55.0876   27.8477 H         1 UNK         0.0000 
     26 C26         1.4335   52.9028   27.6529 C.3       1 UNK         0.0000 
     27 C27         1.4011   51.7252   28.6317 C.3       1 UNK         0.0000 
     28 S28         0.9432   52.4979   30.2648 S.o2      1 UNK         0.0000 
     29 O29        -0.4955   52.3571   30.4816 O.2       1 UNK         0.0000 
     30 O30         1.9247   52.0969   31.2783 O.2       1 UNK         0.0000 
     31 C31         1.2774   54.2544   29.7325 C.3       1 UNK         0.0000 
     32 H32         4.3099   52.6922   20.9598 H         1 UNK         0.0000 
     33 H33         5.1102   52.8966   23.2736 H         1 UNK         0.0000 
     34 H34         7.6748   56.1194   22.1481 H         1 UNK         0.0000 
     35 H35         6.8697   55.9588   19.8262 H         1 UNK         0.0000 
     36 H36         4.7169   53.2072   18.6856 H         1 UNK         0.0000 
     37 H37         3.7169   54.2528   16.5780 H         1 UNK         0.0000 
     38 H38         5.2908   53.6049   16.1956 H         1 UNK         0.0000 
     39 H39         4.3172   55.5346   14.5131 H         1 UNK         0.0000 
     40 H40         5.9806   55.6123   15.0889 H         1 UNK         0.0000 
     41 H41         5.2109   57.1465   18.7120 H         1 UNK         0.0000 
     42 H42         3.6976   56.3565   18.3461 H         1 UNK         0.0000 
     43 H43         4.2059   55.2022   24.1542 H         1 UNK         0.0000 
     44 H44         2.7076   54.8959   25.9987 H         1 UNK         0.0000 
     45 H45         6.0144   53.8069   28.5370 H         1 UNK         0.0000 
     46 H46         7.5157   54.0244   26.6160 H         1 UNK         0.0000 
     47 H47         3.7769   53.6115   29.2849 H         1 UNK         0.0000 
     48 H48         0.4352   53.1032   27.2617 H         1 UNK         0.0000 
     49 H49         2.0364   52.6452   26.7805 H         1 UNK         0.0000 
     50 H50         0.7301   50.8969   28.4047 H         1 UNK         0.0000 
     51 H51         2.4120   51.3309   28.7306 H         1 UNK         0.0000 
     52 H52         1.7385   54.8588   30.5077 H         1 UNK         0.0000 
     53 H53         0.3047   54.7094   29.5659 H         1 UNK         0.0000 
@<TRIPOS>BOND
     1    1    6 ar   
     2    1    2 ar   
     3    1   32 1    
     4    2    3 ar   
     5    2   33 1    
     6    3    4 ar   
     7    3   16 1    
     8    4    5 ar   
     9    4   34 1    
    10    5    6 ar   
    11    5   35 1    
    12    6    7 1    
    13    7    8 1    
    14    7   36 1    
    15    8    9 1    
    16    8   15 1    
    17    8   10 1    
    18   10   11 1    
    19   10   37 1    
    20   10   38 1    
    21   11   12 1    
    22   11   39 1    
    23   11   40 1    
    24   12   13 2    
    25   12   14 2    
    26   12   15 1    
    27   15   41 1    
    28   15   42 1    
    29   16   17 1    
    30   17   22 ar   
    31   17   18 ar   
    32   18   19 ar   
    33   18   43 1    
    34   19   20 ar   
    35   19   44 1    
    36   20   21 ar   
    37   20   23 1    
    38   21   22 ar   
    39   21   45 1    
    40   22   46 1    
    41   23   24 1    
    42   23   47 1    
    43   24   25 1    
    44   24   31 1    
    45   24   26 1    
    46   26   27 1    
    47   26   48 1    
    48   26   49 1    
    49   27   28 1    
    50   27   50 1    
    51   27   51 1    
    52   28   29 2    
    53   28   30 2    
    54   28   31 1    
    55   31   52 1    
    56   31   53 1    
@<TRIPOS>SUBSTRUCTURE
     1 UNK         1 GROUP             0       ****    0 ROOT    
