@<TRIPOS>MOLECULE
ZINC13241875_5935
54   58    1
SMALL
USER_CHARGES


@<TRIPOS>ATOM
      1 C1         -3.3292   47.9100   23.9475 C.2       1 UNK         0.0000 
      2 C2         -2.9829   48.9848   24.6712 C.2       1 UNK         0.0000 
      3 C3         -1.6778   49.1167   25.4370 C.3       1 UNK         0.0000 
      4 N4         -0.8148   50.2130   24.9395 N.pl3     1 UNK         0.0000 
      5 C5          0.0224   49.8555   23.8813 C.ar      1 UNK         0.0000 
      6 O6          0.0564   48.7252   23.3903 O.2       1 UNK         0.0000 
      7 C7          0.7951   51.0002   23.4072 C.ar      1 UNK         0.0000 
      8 C8          1.7408   51.0723   22.3756 C.2       1 UNK         0.0000 
      9 C9          2.2161   52.3526   22.1739 C.2       1 UNK         0.0000 
     10 S10         1.5182   53.5190   23.2484 S.3       1 UNK         0.0000 
     11 C11         0.5786   52.2520   23.9807 C.ar      1 UNK         0.0000 
     12 N12        -0.2843   52.4964   24.9952 N.2       1 UNK         0.0000 
     13 C13        -0.9343   51.4997   25.4820 C.ar      1 UNK         0.0000 
     14 S14        -1.9748   51.9053   26.9100 S.3       1 UNK         0.0000 
     15 C15        -0.8176   51.7960   28.3484 C.3       1 UNK         0.0000 
     16 C16         0.6906   51.8888   28.0788 C.2       1 UNK         0.0000 
     17 O17         1.2993   50.8980   27.6855 O.2       1 UNK         0.0000 
     18 N18         1.2731   53.0878   28.2699 N.am      1 UNK         0.0000 
     19 C19         2.6213   53.3407   27.9790 C.ar      1 UNK         0.0000 
     20 C20         2.8859   53.8585   26.7104 C.ar      1 UNK         0.0000 
     21 C21         4.2095   54.1105   26.2939 C.ar      1 UNK         0.0000 
     22 C22         4.5018   54.5911   24.9965 C.ar      1 UNK         0.0000 
     23 C23         5.8128   54.8455   24.6158 C.ar      1 UNK         0.0000 
     24 C24         6.8534   54.6307   25.5072 C.ar      1 UNK         0.0000 
     25 C25         6.6067   54.1475   26.7904 C.ar      1 UNK         0.0000 
     26 C26         5.2789   53.8702   27.2039 C.ar      1 UNK         0.0000 
     27 C27         4.9883   53.3485   28.4865 C.ar      1 UNK         0.0000 
     28 C28         3.6734   53.0724   28.8837 C.ar      1 UNK         0.0000 
     29 C29         3.4421   52.5049   30.2536 C.2       1 UNK         0.0000 
     30 O30         4.2862   51.6968   30.7041 O.co2     1 UNK         0.0000 
     31 C31         3.2095   52.4399   21.0534 C.3       1 UNK         0.0000 
     32 C32         3.4911   50.9523   20.7789 C.3       1 UNK         0.0000 
     33 C33         2.3374   50.1222   21.3732 C.3       1 UNK         0.0000 
     34 H34        -4.2738   47.8699   23.4228 H         1 UNK         0.0000 
     35 H35        -2.6703   47.0554   23.8630 H         1 UNK         0.0000 
     36 H36        -3.6547   49.8306   24.7346 H         1 UNK         0.0000 
     37 H37        -1.1458   48.1613   25.4291 H         1 UNK         0.0000 
     38 H38        -1.9131   49.2769   26.4840 H         1 UNK         0.0000 
     39 H39        -1.1090   52.5491   29.0795 H         1 UNK         0.0000 
     40 H40        -1.0222   50.8660   28.8717 H         1 UNK         0.0000 
     41 H41         0.7413   53.8413   28.6698 H         1 UNK         0.0000 
     42 H42         2.0740   54.0452   26.0228 H         1 UNK         0.0000 
     43 H43         3.7031   54.7707   24.2979 H         1 UNK         0.0000 
     44 H44         6.0267   55.2114   23.6231 H         1 UNK         0.0000 
     45 H45         7.8633   54.8350   25.1878 H         1 UNK         0.0000 
     46 H46         7.4239   53.9739   27.4749 H         1 UNK         0.0000 
     47 H47         5.8119   53.1511   29.1583 H         1 UNK         0.0000 
     48 H48         4.1237   52.9709   21.3231 H         1 UNK         0.0000 
     49 H49         2.7848   52.9318   20.1772 H         1 UNK         0.0000 
     50 H50         4.4214   50.6617   21.2669 H         1 UNK         0.0000 
     51 H51         3.6225   50.7489   19.7146 H         1 UNK         0.0000 
     52 H52         1.6218   49.8527   20.5973 H         1 UNK         0.0000 
     53 H53         2.7061   49.1968   21.8178 H         1 UNK         0.0000 
     54 O54         2.4331   52.8940   30.8823 O.co2     1 UNK         0.0000 
@<TRIPOS>BOND
     1    1    2 2    
     2    1   34 1    
     3    1   35 1    
     4    2    3 1    
     5    2   36 1    
     6    3    4 1    
     7    3   37 1    
     8    3   38 1    
     9    4   13 ar   
    10    4    5 ar   
    11    5    6 2    
    12    5    7 ar   
    13    7   11 ar   
    14    7    8 1    
    15    8   33 1    
    16    8    9 2    
    17    9   10 1    
    18    9   31 1    
    19   10   11 1    
    20   11   12 ar   
    21   12   13 ar   
    22   13   14 1    
    23   14   15 1    
    24   15   16 1    
    25   15   39 1    
    26   15   40 1    
    27   16   17 2    
    28   16   18 am   BACKBONE|DICT|INTERRES
    29   18   19 1    
    30   18   41 1    
    31   19   28 ar   
    32   19   20 ar   
    33   20   21 ar   
    34   20   42 1    
    35   21   26 ar   
    36   21   22 ar   
    37   22   23 ar   
    38   22   43 1    
    39   23   24 ar   
    40   23   44 1    
    41   24   25 ar   
    42   24   45 1    
    43   25   26 ar   
    44   25   46 1    
    45   26   27 ar   
    46   27   28 ar   
    47   27   47 1    
    48   28   29 1    
    49   29   30 2    
    50   29   54 1    
    51   31   32 1    
    52   31   48 1    
    53   31   49 1    
    54   32   33 1    
    55   32   50 1    
    56   32   51 1    
    57   33   52 1    
    58   33   53 1    
@<TRIPOS>SUBSTRUCTURE
     1 UNK         1 GROUP             0       ****    0 ROOT    
