@<TRIPOS>MOLECULE
ZINC49978549_1699
35   36    1
SMALL
USER_CHARGES


@<TRIPOS>ATOM
      1 C1          2.0328   54.1019   23.2824 C.3       1 UNK         0.0000 
      2 C2          3.0987   54.0971   24.3620 C.ar      1 UNK         0.0000 
      3 C3          4.4093   54.4706   24.0623 C.ar      1 UNK         0.0000 
      4 C4          5.3813   54.4972   25.0627 C.ar      1 UNK         0.0000 
      5 C5          5.0433   54.1192   26.3641 C.ar      1 UNK         0.0000 
      6 C6          3.7332   53.7274   26.6827 C.ar      1 UNK         0.0000 
      7 C7          2.7675   53.7373   25.6692 C.ar      1 UNK         0.0000 
      8 N8          3.3704   53.2971   27.9771 N.pl3     1 UNK         0.0000 
      9 C9          4.4181   52.7319   28.8277 C.3       1 UNK         0.0000 
     10 S10         2.0293   54.0794   28.8657 S.o2      1 UNK         0.0000 
     11 O11         2.4710   54.2711   30.2456 O.2       1 UNK         0.0000 
     12 O12         1.5038   55.1982   28.0817 O.2       1 UNK         0.0000 
     13 C13         0.7291   52.8344   28.9189 C.ar      1 UNK         0.0000 
     14 C14         0.3050   52.0092   27.8875 C.ar      1 UNK         0.0000 
     15 N15        -0.7340   51.2969   28.4131 N.pl3     1 UNK         0.0000 
     16 H16        -1.2517   50.5646   27.9387 H         1 UNK         0.0000 
     17 N17        -0.9882   51.6162   29.6818 N.2       1 UNK         0.0000 
     18 C18        -0.0953   52.5121   30.0093 C.ar      1 UNK         0.0000 
     19 N19        -0.0876   52.9916   31.2814 N.pl3     1 UNK         0.0000 
     20 C20         6.8014   54.9098   24.7296 C.3       1 UNK         0.0000 
     21 H21         1.8507   53.0905   22.9194 H         1 UNK         0.0000 
     22 H22         2.3167   54.7366   22.4430 H         1 UNK         0.0000 
     23 H23         1.0954   54.4971   23.6746 H         1 UNK         0.0000 
     24 H24         4.6708   54.7486   23.0516 H         1 UNK         0.0000 
     25 H25         5.8084   54.1350   27.1257 H         1 UNK         0.0000 
     26 H26         1.7490   53.4625   25.8905 H         1 UNK         0.0000 
     27 H27         5.0950   52.0968   28.2582 H         1 UNK         0.0000 
     28 H28         5.0080   53.5284   29.2819 H         1 UNK         0.0000 
     29 H29         3.9848   52.1293   29.6264 H         1 UNK         0.0000 
     30 H30         0.6287   51.8547   26.8696 H         1 UNK         0.0000 
     31 H31         0.6181   53.6386   31.5989 H         1 UNK         0.0000 
     32 H32        -0.6775   52.5451   31.9933 H         1 UNK         0.0000 
     33 H33         6.8945   55.9956   24.7153 H         1 UNK         0.0000 
     34 H34         7.5043   54.4967   25.4510 H         1 UNK         0.0000 
     35 H35         7.0961   54.5285   23.7510 H         1 UNK         0.0000 
@<TRIPOS>BOND
     1    1    2 1    
     2    1   21 1    
     3    1   22 1    
     4    1   23 1    
     5    2    7 ar   
     6    2    3 ar   
     7    3    4 ar   
     8    3   24 1    
     9    4    5 ar   
    10    4   20 1    
    11    5    6 ar   
    12    5   25 1    
    13    6    7 ar   
    14    6    8 1    
    15    7   26 1    
    16    8    9 1    
    17    8   10 1    
    18    9   27 1    
    19    9   28 1    
    20    9   29 1    
    21   10   11 2    
    22   10   12 2    
    23   10   13 1    
    24   13   18 ar   
    25   13   14 ar   
    26   14   15 ar   
    27   14   30 1    
    28   15   16 1    
    29   15   17 ar   
    30   17   18 ar   
    31   18   19 1    
    32   19   31 1    
    33   19   32 1    
    34   20   33 1    
    35   20   34 1    
    36   20   35 1    
@<TRIPOS>SUBSTRUCTURE
     1 UNK         1 GROUP             0       ****    0 ROOT    
