@<TRIPOS>MOLECULE
ZINC58983170_4455
57   60    1
SMALL
USER_CHARGES


@<TRIPOS>ATOM
      1 C1          6.4634   57.2275   18.8044 C.3       1 UNK         0.0000 
      2 C2          6.9734   55.7635   18.7459 C.3       1 UNK         0.0000 
      3 C3          8.3742   55.6967   19.3445 C.2       1 UNK         0.0000 
      4 O4          8.7034   56.0274   20.4815 O.2       1 UNK         0.0000 
      5 N5          9.1833   55.2764   18.3675 N.am      1 UNK         0.0000 
      6 C6          8.5661   55.0190   17.2034 C.2       1 UNK         0.0000 
      7 O7          9.0372   54.4537   16.2236 O.2       1 UNK         0.0000 
      8 N8          7.2983   55.4002   17.3858 N.am      1 UNK         0.0000 
      9 C9          6.0033   54.7846   19.4473 C.ar      1 UNK         0.0000 
     10 C10         5.3348   53.7620   18.7522 C.ar      1 UNK         0.0000 
     11 C11         4.4695   52.8973   19.4196 C.ar      1 UNK         0.0000 
     12 C12         4.2798   53.0137   20.7942 C.ar      1 UNK         0.0000 
     13 C13         4.9584   53.9986   21.5103 C.ar      1 UNK         0.0000 
     14 C14         5.7866   54.8985   20.8285 C.ar      1 UNK         0.0000 
     15 N15         4.7482   54.0384   22.8948 N.am      1 UNK         0.0000 
     16 C16         5.5805   54.4961   23.8564 C.2       1 UNK         0.0000 
     17 O17         6.7003   54.9739   23.6682 O.2       1 UNK         0.0000 
     18 C18         5.0420   54.3384   25.1821 C.2       1 UNK         0.0000 
     19 C19         3.7191   54.0985   25.5697 C.2       1 UNK         0.0000 
     20 C20         3.5480   53.9930   26.9528 C.2       1 UNK         0.0000 
     21 C21         4.7564   54.1427   27.6330 C.2       1 UNK         0.0000 
     22 S22         6.0794   54.4948   26.5676 S.3       1 UNK         0.0000 
     23 C23         4.9323   53.9473   29.1206 C.3       1 UNK         0.0000 
     24 C24         3.5514   54.0178   29.8001 C.3       1 UNK         0.0000 
     25 C25         2.4859   53.1278   29.1002 C.3       1 UNK         0.0000 
     26 H26         2.8989   52.1217   28.9970 H         1 UNK         0.0000 
     27 C27         2.2322   53.6644   27.6537 C.3       1 UNK         0.0000 
     28 C28         1.1549   52.9625   29.9347 C.3       1 UNK         0.0000 
     29 C29         0.4892   54.3256   30.2423 C.3       1 UNK         0.0000 
     30 C30         1.4219   52.2613   31.2877 C.3       1 UNK         0.0000 
     31 C31         0.1382   52.0827   29.1617 C.3       1 UNK         0.0000 
     32 H32         6.3498   57.5852   19.8287 H         1 UNK         0.0000 
     33 H33         7.1279   57.9236   18.2907 H         1 UNK         0.0000 
     34 H34         5.4832   57.3172   18.3311 H         1 UNK         0.0000 
     35 H35        10.1784   55.1729   18.5003 H         1 UNK         0.0000 
     36 H36         6.7114   55.6912   16.6189 H         1 UNK         0.0000 
     37 H37         5.4754   53.6195   17.6922 H         1 UNK         0.0000 
     38 H38         3.9682   52.1112   18.8709 H         1 UNK         0.0000 
     39 H39         3.6239   52.3158   21.2934 H         1 UNK         0.0000 
     40 H40         6.2879   55.6850   21.3716 H         1 UNK         0.0000 
     41 H41         3.8948   53.6069   23.2076 H         1 UNK         0.0000 
     42 H42         2.8945   53.9887   24.8799 H         1 UNK         0.0000 
     43 H43         5.6026   54.6954   29.5458 H         1 UNK         0.0000 
     44 H44         5.3808   52.9670   29.2813 H         1 UNK         0.0000 
     45 H45         3.1984   55.0459   29.8912 H         1 UNK         0.0000 
     46 H46         3.7057   53.6736   30.8201 H         1 UNK         0.0000 
     47 H47         1.6867   52.9287   27.0621 H         1 UNK         0.0000 
     48 H48         1.6238   54.5657   27.6563 H         1 UNK         0.0000 
     49 H49        -0.4694   54.1954   30.7426 H         1 UNK         0.0000 
     50 H50         0.3048   54.8952   29.3367 H         1 UNK         0.0000 
     51 H51         1.1027   54.9500   30.8904 H         1 UNK         0.0000 
     52 H52         2.0016   51.3494   31.1618 H         1 UNK         0.0000 
     53 H53         1.9559   52.8928   31.9907 H         1 UNK         0.0000 
     54 H54         0.4891   51.9887   31.7886 H         1 UNK         0.0000 
     55 H55         0.5849   51.1379   28.8491 H         1 UNK         0.0000 
     56 H56        -0.7323   51.8356   29.7726 H         1 UNK         0.0000 
     57 H57        -0.2429   52.5783   28.2684 H         1 UNK         0.0000 
@<TRIPOS>BOND
     1    1    2 1    
     2    1   32 1    
     3    1   33 1    
     4    1   34 1    
     5    2    8 1    
     6    2    3 1    
     7    2    9 1    
     8    3    4 2    
     9    3    5 am   BACKBONE|DICT|INTERRES
    10    5    6 am   BACKBONE|DICT|INTERRES
    11    5   35 1    
    12    6    7 2    
    13    6    8 am   BACKBONE|DICT|INTERRES
    14    8   36 1    
    15    9   14 ar   
    16    9   10 ar   
    17   10   11 ar   
    18   10   37 1    
    19   11   12 ar   
    20   11   38 1    
    21   12   13 ar   
    22   12   39 1    
    23   13   14 ar   
    24   13   15 1    
    25   14   40 1    
    26   15   16 am   BACKBONE|DICT|INTERRES
    27   15   41 1    
    28   16   17 2    
    29   16   18 1    
    30   18   22 1    
    31   18   19 2    
    32   19   20 1    
    33   19   42 1    
    34   20   27 1    
    35   20   21 2    
    36   21   22 1    
    37   21   23 1    
    38   23   24 1    
    39   23   43 1    
    40   23   44 1    
    41   24   25 1    
    42   24   45 1    
    43   24   46 1    
    44   25   26 1    
    45   25   27 1    
    46   25   28 1    
    47   27   47 1    
    48   27   48 1    
    49   28   29 1    
    50   28   30 1    
    51   28   31 1    
    52   29   49 1    
    53   29   50 1    
    54   29   51 1    
    55   30   52 1    
    56   30   53 1    
    57   30   54 1    
    58   31   55 1    
    59   31   56 1    
    60   31   57 1    
@<TRIPOS>SUBSTRUCTURE
     1 UNK         1 GROUP             0       ****    0 ROOT    
