ZINC50122289_4692
                    3D
 Schrodinger Suite 2024-2.
 39 42  0  0  1  0            999 V2000
    1.5042   52.9215   26.6017 C   0  0  0  0  0  0
    1.1507   52.7104   25.2635 C   0  0  0  0  0  0
    1.9956   53.2252   24.2700 C   0  0  0  0  0  0
    3.1614   53.9119   24.6018 C   0  0  0  0  0  0
    3.5044   54.1199   25.9392 C   0  0  0  0  0  0
    2.6662   53.6186   26.9521 C   0  0  0  0  0  0
    2.9445   53.8218   28.2861 O   0  0  0  0  0  0
    4.1579   53.2641   28.7821 C   0  0  0  0  0  0
    5.4127   54.0736   28.4226 C   0  0  0  0  0  0
    5.6696   54.1973   26.9187 C   0  0  0  0  0  0
    4.6149   54.8739   26.2476 O   0  0  0  0  0  0
    4.1771   54.4966   23.3316 Cl  0  0  0  0  0  0
   -0.1664   51.9962   24.9048 C   0  0  2  0  0  0
   -0.4464   50.6854   25.5777 C   0  0  0  0  0  0
   -0.4684   49.7497   24.6177 N   0  0  0  0  0  0
   -0.3606   50.2792   23.4020 C   0  0  0  0  0  0
   -0.2474   51.5947   23.5073 N   0  3  0  0  0  0
   -0.6355   48.3071   24.7944 C   0  0  0  0  0  0
   -1.8465   47.7753   25.5318 C   0  0  0  0  0  0
   -1.7451   47.6102   24.0343 C   0  0  0  0  0  0
   -0.6620   50.4966   26.8817 N   0  3  0  0  0  0
    0.8716   52.5736   27.4016 H   0  0  0  0  0  0
    1.7714   53.1083   23.2208 H   0  0  0  0  0  0
    4.0628   53.2244   29.8689 H   0  0  0  0  0  0
    4.2583   52.2205   28.4747 H   0  0  0  0  0  0
    5.3357   55.0695   28.8612 H   0  0  0  0  0  0
    6.2881   53.6120   28.8816 H   0  0  0  0  0  0
    6.5746   54.7848   26.7615 H   0  0  0  0  0  0
    5.8731   53.2266   26.4613 H   0  0  0  0  0  0
   -0.3698   49.7218   22.4751 H   0  0  0  0  0  0
    0.3070   47.7659   24.8822 H   0  0  0  0  0  0
   -2.5839   48.4714   25.9389 H   0  0  0  0  0  0
   -1.7004   46.9159   26.1893 H   0  0  0  0  0  0
   -1.5526   46.6167   23.6269 H   0  0  0  0  0  0
   -2.4219   48.1886   23.4033 H   0  0  0  0  0  0
   -0.6479   51.2718   27.5243 H   0  0  0  0  0  0
   -0.9933   52.6824   25.0969 H   0  0  0  0  0  0
   -0.8956   49.5683   27.2553 H   0  0  0  0  0  0
   -0.1346   52.2382   22.7338 H   0  0  0  0  0  0
  1  6  2  0  0  0
  1  2  1  0  0  0
  1 22  1  0  0  0
  2  3  2  0  0  0
  2 13  1  0  0  0
  3  4  1  0  0  0
  3 23  1  0  0  0
  4  5  2  0  0  0
  4 12  1  0  0  0
  5 11  1  0  0  0
  5  6  1  0  0  0
  6  7  1  0  0  0
  7  8  1  0  0  0
  8  9  1  0  0  0
  8 24  1  0  0  0
  8 25  1  0  0  0
  9 10  1  0  0  0
  9 26  1  0  0  0
  9 27  1  0  0  0
 10 11  1  0  0  0
 10 28  1  0  0  0
 10 29  1  0  0  0
 13 37  1  0  0  0
 13 17  1  0  0  0
 13 14  1  0  0  0
 14 15  1  0  0  0
 14 21  2  0  0  0
 15 16  1  0  0  0
 15 18  1  0  0  0
 16 17  2  0  0  0
 16 30  1  0  0  0
 17 39  1  0  0  0
 18 20  1  0  0  0
 18 19  1  0  0  0
 18 31  1  0  0  0
 19 20  1  0  0  0
 19 32  1  0  0  0
 19 33  1  0  0  0
 20 34  1  0  0  0
 20 35  1  0  0  0
 21 36  1  0  0  0
 21 38  1  0  0  0
M  CHG  2  17   1  21   1
M  END
> <i_i_glide_confnum>
35

> <i_i_glide_lignum>
4693

> <i_i_glide_posenum>
305

> <i_i_glide_rotatable_bonds>
2

> <i_m_Source_File_Index>
16

> <b_m_subgroup_collapsed>
0

> <r_i_docking_score>
-5.65228

> <r_i_glide_ecoul>
-4.70228

> <r_i_glide_eff_state_penalty>
0

> <r_i_glide_einternal>
3.75563

> <r_i_glide_emodel>
-45.2966

> <r_i_glide_energy>
-32.0531

> <r_i_glide_erotb>
0.390429

> <r_i_glide_esite>
-0.153776

> <r_i_glide_evdw>
-27.3509

> <r_i_glide_gscore>
-5.65228

> <r_i_glide_hbond>
-0.2

> <r_i_glide_ligand_efficiency>
-0.269156

> <r_i_glide_ligand_efficiency_ln>
-1.39752

> <r_i_glide_ligand_efficiency_sa>
-0.742582

> <r_i_glide_lipo>
-2.25211

> <r_i_glide_metal>
0

> <r_i_glide_rewards>
-1.36394

> <s_i_glide_gridfile>
wee1_glide-grid

> <s_m_Source_File>
wee1_decoys_glide_SP.sdf

> <s_m_Source_Path>
/Users/zhangxujun/Desktop

> <s_m_entry_id>
291

> <s_m_entry_name>
wee1_decoys_glide_SP.16

> <s_m_subgroup_title>
wee1_decoys_glide_SP

> <s_m_subgroupid>
wee1_decoys_glide_SP


$$$$
