@<TRIPOS>MOLECULE
ZINC64893868_2842
49   52    1
SMALL
USER_CHARGES


@<TRIPOS>ATOM
      1 C1          5.2145   55.2936   18.1754 C.3       1 UNK         0.0000 
      2 N2          5.0364   54.4570   19.3505 N.pl3     1 UNK         0.0000 
      3 C3          5.5268   54.6560   20.6131 C.ar      1 UNK         0.0000 
      4 C4          5.1041   53.5704   21.3499 C.ar      1 UNK         0.0000 
      5 C5          4.2621   52.8317   20.4840 C.ar      1 UNK         0.0000 
      6 N6          4.2503   53.3749   19.2784 N.2       1 UNK         0.0000 
      7 C7          3.4395   51.7145   20.8968 C.2       1 UNK         0.0000 
      8 O8          3.0680   51.6102   22.0695 O.2       1 UNK         0.0000 
      9 N9          3.1044   50.8471   19.9150 N.am      1 UNK         0.0000 
     10 C10         2.1310   49.8324   19.9778 C.ar      1 UNK         0.0000 
     11 C11         2.2975   48.7328   19.1306 C.ar      1 UNK         0.0000 
     12 C12         1.3468   47.7159   19.1066 C.ar      1 UNK         0.0000 
     13 C13         0.2210   47.8037   19.9232 C.ar      1 UNK         0.0000 
     14 C14         0.0406   48.8957   20.7691 C.ar      1 UNK         0.0000 
     15 C15         0.9925   49.9111   20.7989 C.ar      1 UNK         0.0000 
     16 C16         5.5579   53.3705   22.7854 C.3       1 UNK         0.0000 
     17 N17         6.3618   54.5108   23.3091 N.am      1 UNK         0.0000 
     18 C18         7.2366   55.2451   22.3599 C.3       1 UNK         0.0000 
     19 C19         6.4666   55.7393   21.1028 C.3       1 UNK         0.0000 
     20 C20         6.2988   54.8875   24.6193 C.2       1 UNK         0.0000 
     21 O21         6.6390   55.9977   25.0334 O.2       1 UNK         0.0000 
     22 N22         5.7953   53.9510   25.4467 N.am      1 UNK         0.0000 
     23 C23         4.9424   54.2032   26.5136 C.ar      1 UNK         0.0000 
     24 C24         5.4472   54.3310   27.8127 C.ar      1 UNK         0.0000 
     25 C25         4.5645   54.4971   28.8819 C.ar      1 UNK         0.0000 
     26 C26         3.1858   54.5377   28.6541 C.ar      1 UNK         0.0000 
     27 C27         2.6880   54.3848   27.3636 C.ar      1 UNK         0.0000 
     28 C28         3.5589   54.2189   26.2908 C.ar      1 UNK         0.0000 
     29 F29         3.0525   54.0707   25.0438 F         1 UNK         0.0000 
     30 Br30        1.9668   54.8253   30.0817 Br        1 UNK         0.0000 
     31 H31         6.2415   55.6570   18.1373 H         1 UNK         0.0000 
     32 H32         5.0090   54.7226   17.2658 H         1 UNK         0.0000 
     33 H33         4.5309   56.1420   18.2320 H         1 UNK         0.0000 
     34 H34         3.6357   50.8984   19.0489 H         1 UNK         0.0000 
     35 H35         3.1563   48.6611   18.4817 H         1 UNK         0.0000 
     36 H36         1.4787   46.8687   18.4490 H         1 UNK         0.0000 
     37 H37        -0.5205   47.0190   19.8991 H         1 UNK         0.0000 
     38 H38        -0.8349   48.9581   21.3991 H         1 UNK         0.0000 
     39 H39         0.8279   50.7588   21.4453 H         1 UNK         0.0000 
     40 H40         4.6784   53.1738   23.3981 H         1 UNK         0.0000 
     41 H41         6.1324   52.4511   22.8754 H         1 UNK         0.0000 
     42 H42         8.0177   54.5513   22.0511 H         1 UNK         0.0000 
     43 H43         7.7323   56.0948   22.8328 H         1 UNK         0.0000 
     44 H44         7.1804   56.0316   20.3314 H         1 UNK         0.0000 
     45 H45         5.9044   56.6421   21.3339 H         1 UNK         0.0000 
     46 H46         5.6683   53.0325   25.0432 H         1 UNK         0.0000 
     47 H47         6.5134   54.3076   27.9946 H         1 UNK         0.0000 
     48 H48         4.9522   54.6204   29.8827 H         1 UNK         0.0000 
     49 H49         1.6211   54.4004   27.1910 H         1 UNK         0.0000 
@<TRIPOS>BOND
     1    1    2 1    
     2    1   31 1    
     3    1   32 1    
     4    1   33 1    
     5    2    6 ar   
     6    2    3 ar   
     7    3   19 1    
     8    3    4 ar   
     9    4    5 ar   
    10    4   16 1    
    11    5    6 ar   
    12    5    7 1    
    13    7    8 2    
    14    7    9 am   BACKBONE|DICT|INTERRES
    15    9   10 1    
    16    9   34 1    
    17   10   15 ar   
    18   10   11 ar   
    19   11   12 ar   
    20   11   35 1    
    21   12   13 ar   
    22   12   36 1    
    23   13   14 ar   
    24   13   37 1    
    25   14   15 ar   
    26   14   38 1    
    27   15   39 1    
    28   16   17 1    
    29   16   40 1    
    30   16   41 1    
    31   17   18 1    
    32   17   20 am   BACKBONE|DICT|INTERRES
    33   18   19 1    
    34   18   42 1    
    35   18   43 1    
    36   19   44 1    
    37   19   45 1    
    38   20   21 2    
    39   20   22 am   BACKBONE|DICT|INTERRES
    40   22   23 1    
    41   22   46 1    
    42   23   28 ar   
    43   23   24 ar   
    44   24   25 ar   
    45   24   47 1    
    46   25   26 ar   
    47   25   48 1    
    48   26   27 ar   
    49   26   30 1    
    50   27   28 ar   
    51   27   49 1    
    52   28   29 1    
@<TRIPOS>SUBSTRUCTURE
     1 UNK         1 GROUP             0       ****    0 ROOT    
