@<TRIPOS>MOLECULE
ZINC41332142_5165
56   60    1
SMALL
USER_CHARGES


@<TRIPOS>ATOM
      1 C1          3.7260   53.8266   29.6815 C.3       1 UNK         0.0000 
      2 C2          3.6136   53.4898   28.1882 C.3       1 UNK         0.0000 
      3 H3          3.7932   52.4166   28.0937 H         1 UNK         0.0000 
      4 C4          2.2188   53.8502   27.6590 C.3       1 UNK         0.0000 
      5 C5          2.0036   53.2973   26.2408 C.3       1 UNK         0.0000 
      6 C6          3.1802   53.6818   25.3273 C.2       1 UNK         0.0000 
      7 C7          4.3946   54.1168   25.8899 C.2       1 UNK         0.0000 
      8 S8          5.5622   54.5397   24.6978 S.3       1 UNK         0.0000 
      9 C9          4.4638   54.1160   23.4115 C.2       1 UNK         0.0000 
     10 C10         3.2262   53.6273   23.8954 C.2       1 UNK         0.0000 
     11 C11         2.1994   53.0645   23.0045 C.2       1 UNK         0.0000 
     12 O12         2.4122   52.8967   21.8020 O.2       1 UNK         0.0000 
     13 N13         1.0317   52.7064   23.5670 N.am      1 UNK         0.0000 
     14 C14        -0.0945   52.0668   22.8836 C.3       1 UNK         0.0000 
     15 H15        -0.1676   52.5470   21.9037 H         1 UNK         0.0000 
     16 C16        -1.4162   52.2689   23.6537 C.3       1 UNK         0.0000 
     17 C17        -1.4600   51.3020   24.8542 C.3       1 UNK         0.0000 
     18 S18        -0.4355   49.8146   24.3343 S.o2      1 UNK         0.0000 
     19 O19        -1.3001   48.6639   24.0565 O.2       1 UNK         0.0000 
     20 O20         0.7044   49.6969   25.2458 O.2       1 UNK         0.0000 
     21 C21         0.1215   50.5579   22.7069 C.3       1 UNK         0.0000 
     22 N22         4.8243   54.2395   22.0679 N.am      1 UNK         0.0000 
     23 C23         5.8668   54.8957   21.5125 C.2       1 UNK         0.0000 
     24 O24         6.7049   55.5746   22.1084 O.2       1 UNK         0.0000 
     25 C25         5.9154   54.7428   20.0810 C.2       1 UNK         0.0000 
     26 C26         5.4833   53.7016   19.2539 C.2       1 UNK         0.0000 
     27 C27         5.9276   54.0194   17.9350 C.ar      1 UNK         0.0000 
     28 C28         5.8277   53.4287   16.6661 C.ar      1 UNK         0.0000 
     29 C29         6.4317   54.0666   15.5785 C.ar      1 UNK         0.0000 
     30 C30         7.1262   55.2694   15.7354 C.ar      1 UNK         0.0000 
     31 C31         7.2452   55.8782   16.9860 C.ar      1 UNK         0.0000 
     32 C32         6.6363   55.2339   18.0696 C.ar      1 UNK         0.0000 
     33 O33         6.6471   55.6534   19.3699 O.3       1 UNK         0.0000 
     34 F34         7.9245   57.0380   17.1342 F         1 UNK         0.0000 
     35 C35         4.6947   54.2460   27.3815 C.3       1 UNK         0.0000 
     36 H36         3.5773   54.8910   29.8662 H         1 UNK         0.0000 
     37 H37         2.9854   53.2783   30.2656 H         1 UNK         0.0000 
     38 H38         4.7044   53.5557   30.0729 H         1 UNK         0.0000 
     39 H39         1.4581   53.4221   28.3150 H         1 UNK         0.0000 
     40 H40         2.0503   54.9268   27.7157 H         1 UNK         0.0000 
     41 H41         1.0656   53.6968   25.8754 H         1 UNK         0.0000 
     42 H42         1.8944   52.2139   26.2843 H         1 UNK         0.0000 
     43 H43         0.9311   52.8398   24.5614 H         1 UNK         0.0000 
     44 H44        -2.2523   52.0631   22.9845 H         1 UNK         0.0000 
     45 H45        -1.5457   53.3048   23.9717 H         1 UNK         0.0000 
     46 H46        -2.4528   50.9693   25.1594 H         1 UNK         0.0000 
     47 H47        -0.9745   51.7422   25.7253 H         1 UNK         0.0000 
     48 H48         1.1181   50.1996   22.4499 H         1 UNK         0.0000 
     49 H49        -0.5927   50.1992   21.9663 H         1 UNK         0.0000 
     50 H50         4.1436   53.8462   21.4276 H         1 UNK         0.0000 
     51 H51         4.9326   52.8211   19.5542 H         1 UNK         0.0000 
     52 H52         5.2971   52.4966   16.5344 H         1 UNK         0.0000 
     53 H53         6.3639   53.6200   14.5966 H         1 UNK         0.0000 
     54 H54         7.5830   55.7370   14.8745 H         1 UNK         0.0000 
     55 H55         5.6841   53.8497   27.6132 H         1 UNK         0.0000 
     56 H56         4.6948   55.2967   27.6603 H         1 UNK         0.0000 
@<TRIPOS>BOND
     1    1    2 1    
     2    1   36 1    
     3    1   37 1    
     4    1   38 1    
     5    2    3 1    
     6    2   35 1    
     7    2    4 1    
     8    4    5 1    
     9    4   39 1    
    10    4   40 1    
    11    5    6 1    
    12    5   41 1    
    13    5   42 1    
    14    6   10 1    
    15    6    7 2    
    16    7    8 1    
    17    7   35 1    
    18    8    9 1    
    19    9   10 2    
    20    9   22 am   BACKBONE|DICT|INTERRES
    21   10   11 1    
    22   11   12 2    
    23   11   13 am   BACKBONE|DICT|INTERRES
    24   13   14 1    
    25   13   43 1    
    26   14   15 1    
    27   14   21 1    
    28   14   16 1    
    29   16   17 1    
    30   16   44 1    
    31   16   45 1    
    32   17   18 1    
    33   17   46 1    
    34   17   47 1    
    35   18   19 2    
    36   18   20 2    
    37   18   21 1    
    38   21   48 1    
    39   21   49 1    
    40   22   23 am   BACKBONE|DICT|INTERRES
    41   22   50 1    
    42   23   24 2    
    43   23   25 1    
    44   25   33 1    
    45   25   26 2    
    46   26   27 1    
    47   26   51 1    
    48   27   32 ar   
    49   27   28 ar   
    50   28   29 ar   
    51   28   52 1    
    52   29   30 ar   
    53   29   53 1    
    54   30   31 ar   
    55   30   54 1    
    56   31   32 ar   
    57   31   34 1    
    58   32   33 1    
    59   35   55 1    
    60   35   56 1    
@<TRIPOS>SUBSTRUCTURE
     1 UNK         1 GROUP             0       ****    0 ROOT    
