ZINC33058476_4492
                    3D
 Schrodinger Suite 2024-2.
 51 54  0  0  1  0            999 V2000
    0.7035   54.5532   28.7723 C   0  0  0  0  0  0
    2.1693   54.3115   28.4577 C   0  0  0  0  0  0
    3.1233   54.7406   29.3807 C   0  0  0  0  0  0
    4.4781   54.5068   29.1625 C   0  0  0  0  0  0
    4.8899   53.8397   28.0152 C   0  0  0  0  0  0
    3.9427   53.4331   27.0780 C   0  0  0  0  0  0
    2.5742   53.6812   27.2691 C   0  0  0  0  0  0
    1.5965   53.2938   26.3282 N   0  0  0  0  0  0
    1.6651   53.1418   24.9605 C   0  0  0  0  0  0
    0.6675   52.6483   24.1206 C   0  0  0  0  0  0
    1.1230   52.5228   22.7939 C   0  0  0  0  0  0
    2.4380   52.9564   22.5795 C   0  0  0  0  0  0
    3.0203   53.7016   24.0352 S   0  0  0  0  0  0
    3.2583   52.8968   21.3513 C   0  0  0  0  0  0
    2.8698   52.1930   20.4190 O   0  0  0  0  0  0
    4.4311   53.8130   21.1421 C   0  0  0  0  0  0
    5.4425   53.9927   22.0994 C   0  0  0  0  0  0
    6.4734   54.8995   21.8723 C   0  0  0  0  0  0
    6.5258   55.5907   20.6658 C   0  0  0  0  0  0
    5.5833   55.3559   19.6699 C   0  0  0  0  0  0
    4.5428   54.4622   19.9045 C   0  0  0  0  0  0
    7.5055   56.4950   20.4541 F   0  0  0  0  0  0
    0.3332   52.0432   21.7908 N   0  0  0  0  0  0
   -1.0267   52.2467   24.6567 S   0  0  0  0  0  0
   -1.1143   52.4968   26.1008 O   0  0  0  0  0  0
   -1.9240   52.9306   23.7164 O   0  0  0  0  0  0
   -1.2435   50.4867   24.4154 C   0  0  0  0  0  0
   -0.8924   49.6008   25.4363 C   0  0  0  0  0  0
   -1.1427   48.2412   25.2802 C   0  0  0  0  0  0
   -1.7358   47.7727   24.1100 C   0  0  0  0  0  0
   -2.0700   48.6508   23.0824 C   0  0  0  0  0  0
   -1.8298   50.0110   23.2370 C   0  0  0  0  0  0
   -2.0953   46.0969   23.9386 Cl  0  0  0  0  0  0
    0.5512   54.8999   29.7951 H   0  0  0  0  0  0
    0.3053   55.2944   28.0816 H   0  0  0  0  0  0
    0.1215   53.6372   28.6561 H   0  0  0  0  0  0
    2.8072   55.2649   30.2681 H   0  0  0  0  0  0
    5.2100   54.8585   29.8761 H   0  0  0  0  0  0
    5.9388   53.6396   27.8493 H   0  0  0  0  0  0
    4.2965   52.8972   26.2145 H   0  0  0  0  0  0
    0.6795   53.1999   26.7479 H   0  0  0  0  0  0
    5.4481   53.4408   23.0252 H   0  0  0  0  0  0
    7.2394   55.0581   22.6200 H   0  0  0  0  0  0
    5.6407   55.8833   18.7296 H   0  0  0  0  0  0
    3.8003   54.3107   19.1320 H   0  0  0  0  0  0
   -0.6490   51.8632   21.9231 H   0  0  0  0  0  0
    0.7136   51.9368   20.8560 H   0  0  0  0  0  0
   -0.4678   49.9569   26.3663 H   0  0  0  0  0  0
   -0.8957   47.5660   26.0878 H   0  0  0  0  0  0
   -2.5410   48.2826   22.1825 H   0  0  0  0  0  0
   -2.1259   50.6892   22.4495 H   0  0  0  0  0  0
  1  2  1  0  0  0
  1 34  1  0  0  0
  1 35  1  0  0  0
  1 36  1  0  0  0
  2  7  2  0  0  0
  2  3  1  0  0  0
  3  4  2  0  0  0
  3 37  1  0  0  0
  4  5  1  0  0  0
  4 38  1  0  0  0
  5  6  2  0  0  0
  5 39  1  0  0  0
  6  7  1  0  0  0
  6 40  1  0  0  0
  7  8  1  0  0  0
  8  9  1  0  0  0
  8 41  1  0  0  0
  9 13  1  0  0  0
  9 10  2  0  0  0
 10 11  1  0  0  0
 10 24  1  0  0  0
 11 12  2  0  0  0
 11 23  1  0  0  0
 12 13  1  0  0  0
 12 14  1  0  0  0
 14 15  2  0  0  0
 14 16  1  0  0  0
 16 21  2  0  0  0
 16 17  1  0  0  0
 17 18  2  0  0  0
 17 42  1  0  0  0
 18 19  1  0  0  0
 18 43  1  0  0  0
 19 20  2  0  0  0
 19 22  1  0  0  0
 20 21  1  0  0  0
 20 44  1  0  0  0
 21 45  1  0  0  0
 23 46  1  0  0  0
 23 47  1  0  0  0
 24 25  2  0  0  0
 24 26  2  0  0  0
 24 27  1  0  0  0
 27 32  2  0  0  0
 27 28  1  0  0  0
 28 29  2  0  0  0
 28 48  1  0  0  0
 29 30  1  0  0  0
 29 49  1  0  0  0
 30 31  2  0  0  0
 30 33  1  0  0  0
 31 32  1  0  0  0
 31 50  1  0  0  0
 32 51  1  0  0  0
M  END
> <i_i_glide_confnum>
98

> <i_i_glide_lignum>
4493

> <i_i_glide_posenum>
378

> <i_i_glide_rotatable_bonds>
6

> <i_m_Source_File_Index>
5705

> <b_m_subgroup_collapsed>
0

> <r_i_docking_score>
-5.5766

> <r_i_glide_ecoul>
-4.14032

> <r_i_glide_eff_state_penalty>
0

> <r_i_glide_einternal>
10.07

> <r_i_glide_emodel>
-59.4826

> <r_i_glide_energy>
-48.2225

> <r_i_glide_erotb>
0.488218

> <r_i_glide_esite>
-0.0438672

> <r_i_glide_evdw>
-44.0822

> <r_i_glide_gscore>
-5.5766

> <r_i_glide_hbond>
0

> <r_i_glide_ligand_efficiency>
-0.168988

> <r_i_glide_ligand_efficiency_ln>
-1.24021

> <r_i_glide_ligand_efficiency_sa>
-0.542035

> <r_i_glide_lipo>
-3.10461

> <r_i_glide_metal>
0

> <r_i_glide_rewards>
-0.0911894

> <s_i_glide_gridfile>
wee1_glide-grid

> <s_m_Source_File>
wee1_decoys_glide_SP.sdf

> <s_m_Source_Path>
/Users/zhangxujun/Desktop

> <s_m_entry_id>
5980

> <s_m_entry_name>
wee1_decoys_glide_SP.5705

> <s_m_subgroup_title>
wee1_decoys_glide_SP

> <s_m_subgroupid>
wee1_decoys_glide_SP


$$$$
