ZINC39686437_791
                    3D
 Schrodinger Suite 2024-2.
 72 76  0  0  1  0            999 V2000
   -0.4896   48.6790   24.1119 C   0  0  0  0  0  0
   -1.0212   50.0901   24.4315 C   0  0  2  0  0  0
   -0.9204   50.2246   25.5115 H   0  0  0  0  0  0
   -2.5394   50.2107   24.1268 C   0  0  0  0  0  0
   -3.2223   51.4370   24.7293 C   0  0  0  0  0  0
   -3.3542   52.5957   23.9596 C   0  0  0  0  0  0
   -4.0268   53.7073   24.4652 C   0  0  0  0  0  0
   -4.5772   53.6646   25.7401 C   0  0  0  0  0  0
   -4.4406   52.5164   26.5129 C   0  0  0  0  0  0
   -3.7457   51.3966   26.0320 C   0  0  0  0  0  0
   -3.5619   50.2449   26.7734 O   0  0  0  0  0  0
   -3.9170   50.2347   28.1531 C   0  0  0  0  0  0
   -0.1459   51.1130   23.8337 N   0  0  0  0  0  0
   -0.0874   51.5028   22.5426 C   0  0  0  0  0  0
   -0.9471   51.1874   21.7217 O   0  0  0  0  0  0
    1.0834   52.4071   22.0586 C   0  0  1  0  0  0
    0.7044   53.4155   21.9191 H   0  0  0  0  0  0
    2.2063   52.4939   23.1104 C   0  0  0  0  0  0
    3.3211   53.0550   22.3371 N   0  0  0  0  0  0
    3.1625   52.7258   20.9131 C   0  0  0  0  0  0
    1.8259   51.9343   20.7797 C   0  0  0  0  0  0
    1.0747   52.2280   19.4511 C   0  0  0  0  0  0
    1.9521   51.8827   18.2270 C   0  0  0  0  0  0
    2.3042   50.3780   18.2844 N   0  3  0  0  0  0
    2.9187   49.9109   19.6246 C   0  0  0  0  0  0
    2.0330   50.3811   20.7824 C   0  0  0  0  0  0
    4.3716   53.8273   22.7475 C   0  0  0  0  0  0
    5.2033   54.2440   21.9347 O   0  0  0  0  0  0
    4.6268   54.0969   24.2194 C   0  0  0  0  0  0
    5.9522   54.0970   24.6767 C   0  0  0  0  0  0
    6.2553   54.2171   26.0287 C   0  0  0  0  0  0
    5.2256   54.3324   26.9838 C   0  0  0  0  0  0
    5.4992   54.3825   28.3710 C   0  0  0  0  0  0
    4.4545   54.4844   29.2848 C   0  0  0  0  0  0
    3.1338   54.5368   28.8548 C   0  0  0  0  0  0
    2.8350   54.4940   27.4958 C   0  0  0  0  0  0
    3.8734   54.3983   26.5360 C   0  0  0  0  0  0
    3.6073   54.3462   25.1465 C   0  0  0  0  0  0
   -1.1351   47.9155   24.5469 H   0  0  0  0  0  0
   -0.4623   48.4938   23.0374 H   0  0  0  0  0  0
    0.5048   48.5180   24.5305 H   0  0  0  0  0  0
   -3.0591   49.3278   24.5019 H   0  0  0  0  0  0
   -2.7337   50.1800   23.0556 H   0  0  0  0  0  0
   -2.9442   52.6346   22.9615 H   0  0  0  0  0  0
   -4.1252   54.5957   23.8581 H   0  0  0  0  0  0
   -5.1104   54.5165   26.1334 H   0  0  0  0  0  0
   -4.8868   52.5092   27.4923 H   0  0  0  0  0  0
   -3.6333   49.2852   28.5991 H   0  0  0  0  0  0
   -3.3946   51.0144   28.7052 H   0  0  0  0  0  0
   -4.9908   50.3566   28.2912 H   0  0  0  0  0  0
    0.5614   51.4708   24.4560 H   0  0  0  0  0  0
    1.8251   53.0319   23.9651 H   0  0  0  0  0  0
    2.4945   51.4898   23.4223 H   0  0  0  0  0  0
    4.0186   52.2367   20.4545 H   0  0  0  0  0  0
    3.0505   53.6828   20.4006 H   0  0  0  0  0  0
    0.1113   51.7155   19.4071 H   0  0  0  0  0  0
    0.8331   53.2921   19.3908 H   0  0  0  0  0  0
    1.4309   52.0377   17.2817 H   0  0  0  0  0  0
    2.8997   52.4254   18.1977 H   0  0  0  0  0  0
    1.4762   49.8324   18.0926 H   0  0  0  0  0  0
    3.0150   48.8259   19.5624 H   0  0  0  0  0  0
    3.9081   50.3422   19.6817 H   0  0  0  0  0  0
    2.5261   50.0748   21.7053 H   0  0  0  0  0  0
    1.0893   49.8332   20.7670 H   0  0  0  0  0  0
    6.7722   53.9586   23.9844 H   0  0  0  0  0  0
    7.2780   54.1702   26.3633 H   0  0  0  0  0  0
    6.5226   54.3368   28.7162 H   0  0  0  0  0  0
    4.6769   54.4963   30.3400 H   0  0  0  0  0  0
    2.3328   54.6124   29.5764 H   0  0  0  0  0  0
    1.8054   54.5397   27.1749 H   0  0  0  0  0  0
    2.5897   54.5170   24.8415 H   0  0  0  0  0  0
    2.9772   50.1416   17.5507 H   0  0  0  0  0  0
  1  2  1  0  0  0
  1 39  1  0  0  0
  1 40  1  0  0  0
  1 41  1  0  0  0
  2  3  1  0  0  0
  2  4  1  0  0  0
  2 13  1  0  0  0
  4  5  1  0  0  0
  4 42  1  0  0  0
  4 43  1  0  0  0
  5 10  2  0  0  0
  5  6  1  0  0  0
  6  7  2  0  0  0
  6 44  1  0  0  0
  7  8  1  0  0  0
  7 45  1  0  0  0
  8  9  2  0  0  0
  8 46  1  0  0  0
  9 10  1  0  0  0
  9 47  1  0  0  0
 10 11  1  0  0  0
 11 12  1  0  0  0
 12 48  1  0  0  0
 12 49  1  0  0  0
 12 50  1  0  0  0
 13 14  1  0  0  0
 13 51  1  0  0  0
 14 15  2  0  0  0
 14 16  1  0  0  0
 16 17  1  0  0  0
 16 21  1  0  0  0
 16 18  1  0  0  0
 18 19  1  0  0  0
 18 52  1  0  0  0
 18 53  1  0  0  0
 19 20  1  0  0  0
 19 27  1  0  0  0
 20 21  1  0  0  0
 20 54  1  0  0  0
 20 55  1  0  0  0
 21 26  1  0  0  0
 21 22  1  0  0  0
 22 23  1  0  0  0
 22 56  1  0  0  0
 22 57  1  0  0  0
 23 24  1  0  0  0
 23 58  1  0  0  0
 23 59  1  0  0  0
 24 25  1  0  0  0
 24 60  1  0  0  0
 24 72  1  0  0  0
 25 26  1  0  0  0
 25 61  1  0  0  0
 25 62  1  0  0  0
 26 63  1  0  0  0
 26 64  1  0  0  0
 27 28  2  0  0  0
 27 29  1  0  0  0
 29 38  2  0  0  0
 29 30  1  0  0  0
 30 31  2  0  0  0
 30 65  1  0  0  0
 31 32  1  0  0  0
 31 66  1  0  0  0
 32 37  2  0  0  0
 32 33  1  0  0  0
 33 34  2  0  0  0
 33 67  1  0  0  0
 34 35  1  0  0  0
 34 68  1  0  0  0
 35 36  2  0  0  0
 35 69  1  0  0  0
 36 37  1  0  0  0
 36 70  1  0  0  0
 37 38  1  0  0  0
 38 71  1  0  0  0
M  CHG  1  24   1
M  END
> <i_i_glide_confnum>
40

> <i_i_glide_lignum>
792

> <i_i_glide_posenum>
262

> <i_i_glide_rotatable_bonds>
8

> <i_m_Source_File_Index>
2978

> <b_m_subgroup_collapsed>
0

> <r_i_docking_score>
-6.12183

> <r_i_glide_ecoul>
-3.35393

> <r_i_glide_eff_state_penalty>
0

> <r_i_glide_einternal>
10.6954

> <r_i_glide_emodel>
-59.729

> <r_i_glide_energy>
-45.1828

> <r_i_glide_erotb>
0.600771

> <r_i_glide_esite>
-0.1

> <r_i_glide_evdw>
-41.8288

> <r_i_glide_gscore>
-6.12183

> <r_i_glide_hbond>
-0.2

> <r_i_glide_ligand_efficiency>
-0.170051

> <r_i_glide_ligand_efficiency_ln>
-1.33562

> <r_i_glide_ligand_efficiency_sa>
-0.561495

> <r_i_glide_lipo>
-3.1759

> <r_i_glide_metal>
0

> <r_i_glide_rewards>
-0.652165

> <s_i_glide_gridfile>
wee1_glide-grid

> <s_m_Source_File>
wee1_decoys_glide_SP.sdf

> <s_m_Source_Path>
/Users/zhangxujun/Desktop

> <s_m_entry_id>
3253

> <s_m_entry_name>
wee1_decoys_glide_SP.2978

> <s_m_subgroup_title>
wee1_decoys_glide_SP

> <s_m_subgroupid>
wee1_decoys_glide_SP


$$$$
