@<TRIPOS>MOLECULE
ZINC39121642_4791
25   26    1
SMALL
USER_CHARGES


@<TRIPOS>ATOM
      1 C1          3.3980   54.0997   23.5429 C.ar      1 UNK         0.0000 
      2 C2          3.9465   54.2641   22.2711 C.ar      1 UNK         0.0000 
      3 C3          5.3145   54.4967   22.1049 C.ar      1 UNK         0.0000 
      4 C4          6.1486   54.5404   23.2215 C.ar      1 UNK         0.0000 
      5 C5          5.6196   54.4097   24.5279 C.ar      1 UNK         0.0000 
      6 C6          4.2185   54.1937   24.6955 C.ar      1 UNK         0.0000 
      7 C7          3.6930   54.0892   26.0098 C.ar      1 UNK         0.0000 
      8 C8          4.5350   54.1891   27.1168 C.ar      1 UNK         0.0000 
      9 C9          5.9012   54.3888   26.9492 C.ar      1 UNK         0.0000 
     10 C10         6.4460   54.4967   25.6729 C.ar      1 UNK         0.0000 
     11 Br11        3.8164   54.0603   28.8753 Br        1 UNK         0.0000 
     12 N12         5.9044   54.7287   20.8550 N.pl3     1 UNK         0.0000 
     13 S13         5.2666   54.1273   19.3236 S.o2      1 UNK         0.0000 
     14 O14         4.0521   54.8865   19.0213 O.2       1 UNK         0.0000 
     15 O15         6.4007   54.0878   18.3975 O.2       1 UNK         0.0000 
     16 N16         4.7911   52.4967   19.6817 N.pl3     1 UNK         0.0000 
     17 H17         2.3361   53.9347   23.6557 H         1 UNK         0.0000 
     18 H18         3.2886   54.2360   21.4149 H         1 UNK         0.0000 
     19 H19         7.2094   54.7156   23.1043 H         1 UNK         0.0000 
     20 H20         2.6337   53.9302   26.1497 H         1 UNK         0.0000 
     21 H21         6.5414   54.4634   27.8172 H         1 UNK         0.0000 
     22 H22         7.5044   54.6484   25.5418 H         1 UNK         0.0000 
     23 H23         6.8986   54.8926   20.8535 H         1 UNK         0.0000 
     24 H24         3.7815   52.4118   19.8091 H         1 UNK         0.0000 
     25 H25         5.1044   51.8044   18.9768 H         1 UNK         0.0000 
@<TRIPOS>BOND
     1    1    6 ar   
     2    1    2 ar   
     3    1   17 1    
     4    2    3 ar   
     5    2   18 1    
     6    3    4 ar   
     7    3   12 1    
     8    4    5 ar   
     9    4   19 1    
    10    5   10 ar   
    11    5    6 ar   
    12    6    7 ar   
    13    7    8 ar   
    14    7   20 1    
    15    8    9 ar   
    16    8   11 1    
    17    9   10 ar   
    18    9   21 1    
    19   10   22 1    
    20   12   13 1    
    21   12   23 1    
    22   13   14 2    
    23   13   15 2    
    24   13   16 1    
    25   16   24 1    
    26   16   25 1    
@<TRIPOS>SUBSTRUCTURE
     1 UNK         1 GROUP             0       ****    0 ROOT    
