@<TRIPOS>MOLECULE
ZINC02226158_2900
64   67    1
SMALL
USER_CHARGES


@<TRIPOS>ATOM
      1 C1          8.6443   54.9864   19.0961 C.3       1 UNK         0.0000 
      2 C2          7.8588   56.0678   19.8501 C.3       1 UNK         0.0000 
      3 O3          7.3082   55.5840   21.0766 O.3       1 UNK         0.0000 
      4 C4          6.1271   54.8972   21.0918 C.2       1 UNK         0.0000 
      5 O5          5.4706   54.6287   20.0853 O.2       1 UNK         0.0000 
      6 C6          5.6760   54.5599   22.4514 C.ar      1 UNK         0.0000 
      7 C7          4.4879   54.0042   22.9200 C.ar      1 UNK         0.0000 
      8 C8          4.5160   54.0871   24.3543 C.ar      1 UNK         0.0000 
      9 C9          3.6156   53.7277   25.3728 C.ar      1 UNK         0.0000 
     10 C10         3.9844   53.9268   26.7017 C.ar      1 UNK         0.0000 
     11 C11         5.2256   54.4648   27.0293 C.ar      1 UNK         0.0000 
     12 C12         6.1531   54.8316   26.0522 C.ar      1 UNK         0.0000 
     13 C13         5.7845   54.6367   24.7159 C.ar      1 UNK         0.0000 
     14 N14         6.4591   54.8965   23.5374 N.pl3     1 UNK         0.0000 
     15 H15         7.3823   55.2975   23.4244 H         1 UNK         0.0000 
     16 Br16        2.7752   53.4344   28.0862 Br        1 UNK         0.0000 
     17 N17         3.4327   53.4665   22.2069 N.am      1 UNK         0.0000 
     18 C18         3.5416   52.3216   21.4990 C.2       1 UNK         0.0000 
     19 O19         4.5966   51.6970   21.3660 O.2       1 UNK         0.0000 
     20 C20         2.2751   51.7602   20.8348 C.3       1 UNK         0.0000 
     21 C21         0.8989   52.1551   21.4319 C.3       1 UNK         0.0000 
     22 C22         0.8943   50.4039   23.4280 C.3       1 UNK         0.0000 
     23 C23        -0.1805   50.2526   24.5411 C.3       1 UNK         0.0000 
     24 C24        -0.4428   51.7011   24.9589 C.3       1 UNK         0.0000 
     25 C25        -0.5266   52.3820   23.5975 C.3       1 UNK         0.0000 
     26 H26        -0.4161   53.4650   23.6827 H         1 UNK         0.0000 
     27 C27        -1.8626   52.0162   22.8904 C.3       1 UNK         0.0000 
     28 C28        -2.3065   50.5055   22.9235 C.3       1 UNK         0.0000 
     29 C29        -1.5006   49.6504   23.9680 C.3       1 UNK         0.0000 
     30 C30        -3.8183   50.4174   23.2543 C.3       1 UNK         0.0000 
     31 C31        -2.0618   49.8854   21.5255 C.3       1 UNK         0.0000 
     32 C32         0.3137   49.3982   25.7312 C.3       1 UNK         0.0000 
     33 H33         9.0212   55.3699   18.1480 H         1 UNK         0.0000 
     34 H34         9.5044   54.6614   19.6784 H         1 UNK         0.0000 
     35 H35         8.0271   54.1141   18.8818 H         1 UNK         0.0000 
     36 H36         7.0756   56.4836   19.2133 H         1 UNK         0.0000 
     37 H37         8.5319   56.8948   20.0753 H         1 UNK         0.0000 
     38 H38         2.6551   53.2983   25.1389 H         1 UNK         0.0000 
     39 H39         5.4797   54.6008   28.0716 H         1 UNK         0.0000 
     40 H40         7.1042   55.2446   26.3355 H         1 UNK         0.0000 
     41 H41         2.5294   53.9046   22.2966 H         1 UNK         0.0000 
     42 H42         2.3553   50.6718   20.8097 H         1 UNK         0.0000 
     43 H43         2.3087   52.0682   19.7882 H         1 UNK         0.0000 
     44 H44         0.0889   51.6177   20.9457 H         1 UNK         0.0000 
     45 H45         0.7050   53.2222   21.3080 H         1 UNK         0.0000 
     46 H46         1.9109   50.3019   23.8098 H         1 UNK         0.0000 
     47 H47         0.7322   49.7285   22.5892 H         1 UNK         0.0000 
     48 H48        -1.3513   51.8178   25.5534 H         1 UNK         0.0000 
     49 H49         0.3775   52.1049   25.5555 H         1 UNK         0.0000 
     50 H50        -2.5631   52.5511   23.5356 H         1 UNK         0.0000 
     51 H51        -2.0157   52.4939   21.9220 H         1 UNK         0.0000 
     52 H52        -1.4398   48.5929   23.7043 H         1 UNK         0.0000 
     53 H53        -2.1218   49.6345   24.8670 H         1 UNK         0.0000 
     54 H54        -4.1503   49.3805   23.3168 H         1 UNK         0.0000 
     55 H55        -4.0550   50.8857   24.2110 H         1 UNK         0.0000 
     56 H56        -4.4292   50.8984   22.4893 H         1 UNK         0.0000 
     57 H57        -2.4962   48.8863   21.4595 H         1 UNK         0.0000 
     58 H58        -2.5238   50.4798   20.7357 H         1 UNK         0.0000 
     59 H59        -1.0104   49.7738   21.2770 H         1 UNK         0.0000 
     60 H60         0.6917   48.4296   25.4039 H         1 UNK         0.0000 
     61 H61        -0.4781   49.2079   26.4581 H         1 UNK         0.0000 
     62 H62         1.1045   49.8934   26.2867 H         1 UNK         0.0000 
     63 N63         0.7830   51.8775   22.9556 N.4       1 UNK         0.0000 
     64 H64         1.5269   52.3697   23.4277 H         1 UNK         0.0000 
@<TRIPOS>BOND
     1    1    2 1    
     2    1   33 1    
     3    1   34 1    
     4    1   35 1    
     5    2    3 1    
     6    2   36 1    
     7    2   37 1    
     8    3    4 1    
     9    4    5 2    
    10    4    6 1    
    11    6   14 ar   
    12    6    7 ar   
    13    7    8 ar   
    14    7   17 1    
    15    8   13 ar   
    16    8    9 ar   
    17    9   10 ar   
    18    9   38 1    
    19   10   11 ar   
    20   10   16 1    
    21   11   12 ar   
    22   11   39 1    
    23   12   13 ar   
    24   12   40 1    
    25   13   14 ar   
    26   14   15 1    
    27   17   18 am   BACKBONE|DICT|INTERRES
    28   17   41 1    
    29   18   19 2    
    30   18   20 1    
    31   20   21 1    
    32   20   42 1    
    33   20   43 1    
    34   21   44 1    
    35   21   45 1    
    36   21   63 1    
    37   22   23 1    
    38   22   46 1    
    39   22   47 1    
    40   22   63 1    
    41   23   29 1    
    42   23   24 1    
    43   23   32 1    
    44   24   25 1    
    45   24   48 1    
    46   24   49 1    
    47   25   26 1    
    48   25   27 1    
    49   25   63 1    
    50   27   28 1    
    51   27   50 1    
    52   27   51 1    
    53   28   29 1    
    54   28   30 1    
    55   28   31 1    
    56   29   52 1    
    57   29   53 1    
    58   30   54 1    
    59   30   55 1    
    60   30   56 1    
    61   31   57 1    
    62   31   58 1    
    63   31   59 1    
    64   32   60 1    
    65   32   61 1    
    66   32   62 1    
    67   63   64 1    
@<TRIPOS>SUBSTRUCTURE
     1 UNK         1 GROUP             0       ****    0 ROOT    
