ZINC08686972_5966
                    3D
 Schrodinger Suite 2024-2.
 53 56  0  0  1  0            999 V2000
    4.4781   57.9883   14.0163 C   0  0  0  0  0  0
    5.2079   57.6034   15.2896 C   0  0  0  0  0  0
    6.5492   57.2189   15.2440 C   0  0  0  0  0  0
    7.2161   56.8827   16.4200 C   0  0  0  0  0  0
    6.5416   56.9342   17.6425 C   0  0  0  0  0  0
    5.1919   57.2887   17.6806 C   0  0  0  0  0  0
    4.5267   57.6309   16.5078 C   0  0  0  0  0  0
    7.4058   56.5117   19.1647 S   0  0  0  0  0  0
    8.7951   56.8953   18.8955 O   0  0  0  0  0  0
    6.7044   57.2513   20.2232 O   0  0  0  0  0  0
    7.2094   54.9574   19.2057 N   0  5  0  0  0  0
    5.9684   54.3910   19.3507 C   0  0  0  0  0  0
    5.3926   53.9435   18.1535 C   0  0  0  0  0  0
    4.1650   53.2989   18.1182 C   0  0  0  0  0  0
    3.4862   53.0672   19.3014 C   0  0  0  0  0  0
    4.0325   53.4814   20.5089 C   0  0  0  0  0  0
    5.2811   54.1388   20.5775 C   0  0  0  0  0  0
    5.8564   54.4970   21.9507 C   0  0  0  0  0  0
    7.0056   54.9149   22.0816 O   0  0  0  0  0  0
    5.0353   54.2821   23.0051 N   0  0  0  0  0  0
    5.2804   54.4915   24.3560 C   0  0  0  0  0  0
    4.4111   54.0969   25.2488 N   0  0  0  0  0  0
    4.8224   54.2736   26.4952 C   0  0  0  0  0  0
    6.0694   54.8971   26.6050 C   0  0  0  0  0  0
    6.7044   55.2340   25.0249 S   0  0  0  0  0  0
    3.9789   53.7902   27.6300 C   0  0  0  0  0  0
    4.5926   53.3369   28.8002 C   0  0  0  0  0  0
    3.8226   52.8410   29.8485 C   0  0  0  0  0  0
    2.4336   52.7989   29.7490 C   0  0  0  0  0  0
    1.8149   53.2672   28.5809 C   0  0  0  0  0  0
    2.5843   53.7538   27.5286 C   0  0  0  0  0  0
    1.7578   52.2808   30.8348 O   0  0  0  0  0  0
    0.3350   52.2151   30.7945 C   0  0  0  0  0  0
    3.5734   57.3899   13.9070 H   0  0  0  0  0  0
    5.0914   57.8387   13.1267 H   0  0  0  0  0  0
    4.1746   59.0352   14.0619 H   0  0  0  0  0  0
    7.0789   57.1870   14.3036 H   0  0  0  0  0  0
    8.2551   56.5890   16.3847 H   0  0  0  0  0  0
    4.6643   57.2957   18.6216 H   0  0  0  0  0  0
    3.4879   57.9239   16.5479 H   0  0  0  0  0  0
    5.9118   54.0923   17.2172 H   0  0  0  0  0  0
    3.7524   52.9638   17.1782 H   0  0  0  0  0  0
    2.5333   52.5597   19.2840 H   0  0  0  0  0  0
    3.4509   53.2527   21.3890 H   0  0  0  0  0  0
    4.1381   53.8797   22.7909 H   0  0  0  0  0  0
    6.6164   55.1601   27.4999 H   0  0  0  0  0  0
    5.6689   53.3445   28.8877 H   0  0  0  0  0  0
    4.3045   52.4793   30.7444 H   0  0  0  0  0  0
    0.7421   53.2522   28.4667 H   0  0  0  0  0  0
    2.0917   54.0967   26.6307 H   0  0  0  0  0  0
   -0.0220   51.6973   31.6815 H   0  0  0  0  0  0
   -0.1099   53.2111   30.7869 H   0  0  0  0  0  0
   -0.0265   51.6546   29.9310 H   0  0  0  0  0  0
  1  2  1  0  0  0
  1 34  1  0  0  0
  1 35  1  0  0  0
  1 36  1  0  0  0
  2  7  2  0  0  0
  2  3  1  0  0  0
  3  4  2  0  0  0
  3 37  1  0  0  0
  4  5  1  0  0  0
  4 38  1  0  0  0
  5  6  2  0  0  0
  5  8  1  0  0  0
  6  7  1  0  0  0
  6 39  1  0  0  0
  7 40  1  0  0  0
  8  9  2  0  0  0
  8 10  2  0  0  0
  8 11  1  0  0  0
 11 12  1  0  0  0
 12 17  2  0  0  0
 12 13  1  0  0  0
 13 14  2  0  0  0
 13 41  1  0  0  0
 14 15  1  0  0  0
 14 42  1  0  0  0
 15 16  2  0  0  0
 15 43  1  0  0  0
 16 17  1  0  0  0
 16 44  1  0  0  0
 17 18  1  0  0  0
 18 19  2  0  0  0
 18 20  1  0  0  0
 20 21  1  0  0  0
 20 45  1  0  0  0
 21 25  1  0  0  0
 21 22  2  0  0  0
 22 23  1  0  0  0
 23 24  2  0  0  0
 23 26  1  0  0  0
 24 25  1  0  0  0
 24 46  1  0  0  0
 26 31  2  0  0  0
 26 27  1  0  0  0
 27 28  2  0  0  0
 27 47  1  0  0  0
 28 29  1  0  0  0
 28 48  1  0  0  0
 29 30  2  0  0  0
 29 32  1  0  0  0
 30 31  1  0  0  0
 30 49  1  0  0  0
 31 50  1  0  0  0
 32 33  1  0  0  0
 33 51  1  0  0  0
 33 52  1  0  0  0
 33 53  1  0  0  0
M  CHG  1  11  -1
M  END
> <i_i_glide_confnum>
11

> <i_i_glide_lignum>
5967

> <i_i_glide_posenum>
372

> <i_i_glide_rotatable_bonds>
8

> <i_m_Source_File_Index>
1025

> <b_m_subgroup_collapsed>
0

> <r_i_docking_score>
-5.32588

> <r_i_glide_ecoul>
-4.78949

> <r_i_glide_eff_state_penalty>
0

> <r_i_glide_einternal>
12.0954

> <r_i_glide_emodel>
-61.3775

> <r_i_glide_energy>
-51.0192

> <r_i_glide_erotb>
0.619399

> <r_i_glide_esite>
-0.0895829

> <r_i_glide_evdw>
-46.2297

> <r_i_glide_gscore>
-5.32588

> <r_i_glide_hbond>
-0.0517847

> <r_i_glide_ligand_efficiency>
-0.16139

> <r_i_glide_ligand_efficiency_ln>
-1.18445

> <r_i_glide_ligand_efficiency_sa>
-0.517665

> <r_i_glide_lipo>
-2.37277

> <r_i_glide_metal>
0

> <r_i_glide_rewards>
-0.401242

> <s_i_glide_gridfile>
wee1_glide-grid

> <s_m_Source_File>
wee1_decoys_glide_SP.sdf

> <s_m_Source_Path>
/Users/zhangxujun/Desktop

> <s_m_entry_id>
1300

> <s_m_entry_name>
wee1_decoys_glide_SP.1025

> <s_m_subgroup_title>
wee1_decoys_glide_SP

> <s_m_subgroupid>
wee1_decoys_glide_SP


$$$$
