@<TRIPOS>MOLECULE
ZINC04651761_1635
39   41    1
SMALL
USER_CHARGES


@<TRIPOS>ATOM
      1 C1          6.1159   54.3208   25.5752 C.ar      1 UNK         0.0000 
      2 C2          5.8890   54.4406   26.9443 C.ar      1 UNK         0.0000 
      3 C3          4.5862   54.3885   27.4340 C.ar      1 UNK         0.0000 
      4 C4          3.5088   54.2411   26.5630 C.ar      1 UNK         0.0000 
      5 C5          3.7332   54.1300   25.1926 C.ar      1 UNK         0.0000 
      6 C6          5.0421   54.1566   24.6888 C.ar      1 UNK         0.0000 
      7 C7          5.3204   53.9487   23.2198 C.2       1 UNK         0.0000 
      8 O8          6.3044   53.2967   22.8817 O.2       1 UNK         0.0000 
      9 N9          4.4294   54.4967   22.3612 N.am      1 UNK         0.0000 
     10 N10         4.5942   54.4668   20.9569 N.am      1 UNK         0.0000 
     11 C11         5.6332   55.0701   20.3209 C.2       1 UNK         0.0000 
     12 O12         6.6506   55.4654   20.8918 O.2       1 UNK         0.0000 
     13 C13         5.3909   55.3292   18.8033 C.3       1 UNK         0.0000 
     14 H14         4.3241   55.5581   18.7374 H         1 UNK         0.0000 
     15 C15         5.7067   54.0755   17.9427 C.3       1 UNK         0.0000 
     16 H16         5.0435   53.2288   18.1313 H         1 UNK         0.0000 
     17 C17         7.2060   53.6967   17.9707 C.3       1 UNK         0.0000 
     18 C18         7.8657   54.7879   17.1148 C.3       1 UNK         0.0000 
     19 C19         6.6712   55.7054   16.7734 C.3       1 UNK         0.0000 
     20 H20         6.8640   56.3516   15.9158 H         1 UNK         0.0000 
     21 C21         5.5795   54.6615   16.5403 C.3       1 UNK         0.0000 
     22 C22         6.1470   56.4829   18.0231 C.3       1 UNK         0.0000 
     23 H23         5.3676   57.1450   17.6408 H         1 UNK         0.0000 
     24 C24         7.1046   57.5017   18.6907 C.2       1 UNK         0.0000 
     25 O25         6.7044   58.0931   19.7156 O.co2     1 UNK         0.0000 
     26 O26         8.2007   57.7397   18.1365 O.co2     1 UNK         0.0000 
     27 Cl27        4.3043   54.4967   29.1339 Cl        1 UNK         0.0000 
     28 H28         7.1314   54.3362   25.2039 H         1 UNK         0.0000 
     29 H29         6.7193   54.5573   27.6262 H         1 UNK         0.0000 
     30 H30         2.5012   54.1990   26.9499 H         1 UNK         0.0000 
     31 H31         2.8854   53.9895   24.5370 H         1 UNK         0.0000 
     32 H32         3.8757   55.2937   22.6386 H         1 UNK         0.0000 
     33 H33         3.7130   54.3282   20.4820 H         1 UNK         0.0000 
     34 H34         7.3718   52.7066   17.5425 H         1 UNK         0.0000 
     35 H35         7.6167   53.6967   18.9769 H         1 UNK         0.0000 
     36 H36         8.6709   55.2975   17.6439 H         1 UNK         0.0000 
     37 H37         8.2972   54.3601   16.2086 H         1 UNK         0.0000 
     38 H38         4.5987   55.0939   16.3296 H         1 UNK         0.0000 
     39 H39         5.8141   53.9483   15.7463 H         1 UNK         0.0000 
@<TRIPOS>BOND
     1    1    6 ar   
     2    1    2 ar   
     3    1   28 1    
     4    2    3 ar   
     5    2   29 1    
     6    3    4 ar   
     7    3   27 1    
     8    4    5 ar   
     9    4   30 1    
    10    5    6 ar   
    11    5   31 1    
    12    6    7 1    
    13    7    8 2    
    14    7    9 am   BACKBONE|DICT|INTERRES
    15    9   10 1    
    16    9   32 1    
    17   10   11 am   BACKBONE|DICT|INTERRES
    18   10   33 1    
    19   11   12 2    
    20   11   13 1    
    21   13   14 1    
    22   13   22 1    
    23   13   15 1    
    24   15   16 1    
    25   15   21 1    
    26   15   17 1    
    27   17   18 1    
    28   17   34 1    
    29   17   35 1    
    30   18   19 1    
    31   18   36 1    
    32   18   37 1    
    33   19   20 1    
    34   19   21 1    
    35   19   22 1    
    36   21   38 1    
    37   21   39 1    
    38   22   23 1    
    39   22   24 1    
    40   24   25 2    
    41   24   26 1    
@<TRIPOS>SUBSTRUCTURE
     1 UNK         1 GROUP             0       ****    0 ROOT    
