ZINC38656203_5856
                    3D
 Schrodinger Suite 2024-2.
 41 44  0  0  1  0            999 V2000
    0.2069   52.0111   27.0652 C   0  0  0  0  0  0
    1.3434   52.4958   26.4118 C   0  0  0  0  0  0
    1.9926   53.5509   27.0554 C   0  0  0  0  0  0
    1.0631   53.9891   28.4781 S   0  0  0  0  0  0
   -0.0738   52.7122   28.2203 C   0  0  0  0  0  0
    3.2873   54.2872   26.6890 C   0  0  2  0  0  0
    3.1039   55.3438   26.8609 H   0  0  0  0  0  0
    3.7561   54.1851   25.2183 C   0  0  0  0  0  0
    2.8675   54.1744   24.1328 C   0  0  0  0  0  0
    3.3248   54.1075   22.8165 C   0  0  0  0  0  0
    4.6920   54.0965   22.5414 C   0  0  0  0  0  0
    5.5996   54.0982   23.6066 C   0  0  0  0  0  0
    5.1353   54.1475   24.9208 C   0  0  0  0  0  0
    6.1059   54.1357   25.9019 O   0  0  0  0  0  0
    5.7252   53.9356   27.1850 C   0  0  0  0  0  0
    4.4524   53.9498   27.6267 C   0  0  0  0  0  0
    4.1797   53.6846   28.9998 C   0  0  0  0  0  0
    3.9044   53.4534   30.0975 N   0  0  0  0  0  0
    6.8487   53.6967   27.9244 N   0  0  0  0  0  0
    5.1019   54.0318   21.2262 O   0  0  0  0  0  0
    5.9107   54.9980   20.6795 C   0  0  0  0  0  0
    6.3041   56.0037   21.2804 O   0  0  0  0  0  0
    6.3090   54.6948   19.2653 C   0  0  0  0  0  0
    7.1939   55.5617   18.6066 C   0  0  0  0  0  0
    7.6008   55.2989   17.3014 C   0  0  0  0  0  0
    7.1288   54.1670   16.6443 C   0  0  0  0  0  0
    6.2500   53.2973   17.2824 C   0  0  0  0  0  0
    5.8386   53.5582   18.5864 C   0  0  0  0  0  0
    7.5258   53.9111   15.3785 F   0  0  0  0  0  0
   -0.3812   51.1748   26.7132 H   0  0  0  0  0  0
    1.7112   52.0597   25.4956 H   0  0  0  0  0  0
   -0.8795   52.5397   28.9187 H   0  0  0  0  0  0
    1.8023   54.2266   24.3056 H   0  0  0  0  0  0
    2.6148   54.0989   22.0019 H   0  0  0  0  0  0
    6.6619   54.0683   23.4145 H   0  0  0  0  0  0
    6.8274   53.7549   28.9320 H   0  0  0  0  0  0
    7.6678   53.2972   27.4926 H   0  0  0  0  0  0
    7.5806   56.4431   19.0988 H   0  0  0  0  0  0
    8.2833   55.9683   16.7984 H   0  0  0  0  0  0
    5.8917   52.4146   16.7724 H   0  0  0  0  0  0
    5.1615   52.8540   19.0516 H   0  0  0  0  0  0
  1  5  2  0  0  0
  1  2  1  0  0  0
  1 30  1  0  0  0
  2  3  2  0  0  0
  2 31  1  0  0  0
  3  4  1  0  0  0
  3  6  1  0  0  0
  4  5  1  0  0  0
  5 32  1  0  0  0
  6  7  1  0  0  0
  6 16  1  0  0  0
  6  8  1  0  0  0
  8 13  2  0  0  0
  8  9  1  0  0  0
  9 10  2  0  0  0
  9 33  1  0  0  0
 10 11  1  0  0  0
 10 34  1  0  0  0
 11 12  2  0  0  0
 11 20  1  0  0  0
 12 13  1  0  0  0
 12 35  1  0  0  0
 13 14  1  0  0  0
 14 15  1  0  0  0
 15 16  2  0  0  0
 15 19  1  0  0  0
 16 17  1  0  0  0
 17 18  3  0  0  0
 19 36  1  0  0  0
 19 37  1  0  0  0
 20 21  1  0  0  0
 21 22  2  0  0  0
 21 23  1  0  0  0
 23 28  2  0  0  0
 23 24  1  0  0  0
 24 25  2  0  0  0
 24 38  1  0  0  0
 25 26  1  0  0  0
 25 39  1  0  0  0
 26 27  2  0  0  0
 26 29  1  0  0  0
 27 28  1  0  0  0
 27 40  1  0  0  0
 28 41  1  0  0  0
M  END
> <i_i_glide_confnum>
29

> <i_i_glide_lignum>
5857

> <i_i_glide_posenum>
122

> <i_i_glide_rotatable_bonds>
5

> <i_m_Source_File_Index>
1994

> <b_m_subgroup_collapsed>
0

> <r_i_docking_score>
-5.74348

> <r_i_glide_ecoul>
-5.34741

> <r_i_glide_eff_state_penalty>
0

> <r_i_glide_einternal>
4.86077

> <r_i_glide_emodel>
-58.6987

> <r_i_glide_energy>
-47.8969

> <r_i_glide_erotb>
0.507191

> <r_i_glide_esite>
0

> <r_i_glide_evdw>
-42.5495

> <r_i_glide_gscore>
-5.74348

> <r_i_glide_hbond>
-0.215416

> <r_i_glide_ligand_efficiency>
-0.205124

> <r_i_glide_ligand_efficiency_ln>
-1.32576

> <r_i_glide_ligand_efficiency_sa>
-0.622879

> <r_i_glide_lipo>
-2.85534

> <r_i_glide_metal>
0

> <r_i_glide_rewards>
-0.250334

> <s_i_glide_gridfile>
wee1_glide-grid

> <s_m_Source_File>
wee1_decoys_glide_SP.sdf

> <s_m_Source_Path>
/Users/zhangxujun/Desktop

> <s_m_entry_id>
2269

> <s_m_entry_name>
wee1_decoys_glide_SP.1994

> <s_m_subgroup_title>
wee1_decoys_glide_SP

> <s_m_subgroupid>
wee1_decoys_glide_SP


$$$$
