@<TRIPOS>MOLECULE
ZINC09599725_4217
62   66    1
SMALL
USER_CHARGES


@<TRIPOS>ATOM
      1 C1          1.6917   47.6731   19.2760 C.3       1 UNK         0.0000 
      2 N2          1.9043   48.8710   18.4812 N.am      1 UNK         0.0000 
      3 C3          1.4609   50.0854   18.8345 C.2       1 UNK         0.0000 
      4 O4          0.8241   50.3122   19.8666 O.2       1 UNK         0.0000 
      5 C5          1.8163   51.1473   17.9181 C.2       1 UNK         0.0000 
      6 C6          1.6193   51.1121   16.5060 C.2       1 UNK         0.0000 
      7 C7          1.9389   52.3385   15.8973 C.2       1 UNK         0.0000 
      8 S8          2.4659   53.5272   17.0331 S.3       1 UNK         0.0000 
      9 C9          2.3011   52.4038   18.3327 C.2       1 UNK         0.0000 
     10 N10         2.6789   52.8966   19.5696 N.am      1 UNK         0.0000 
     11 C11         3.4536   52.2552   20.4660 C.2       1 UNK         0.0000 
     12 O12         3.9046   51.1171   20.3554 O.2       1 UNK         0.0000 
     13 C13         3.7744   53.0295   21.7038 C.ar      1 UNK         0.0000 
     14 C14         2.7541   53.5885   22.4789 C.ar      1 UNK         0.0000 
     15 C15         3.0552   54.1000   23.7329 C.ar      1 UNK         0.0000 
     16 C16         4.3664   54.0381   24.2089 C.ar      1 UNK         0.0000 
     17 C17         5.4078   53.6404   23.3744 C.ar      1 UNK         0.0000 
     18 C18         5.1034   53.1040   22.1303 C.ar      1 UNK         0.0000 
     19 S19         4.6991   54.4974   25.8939 S.o2      1 UNK         0.0000 
     20 O20         6.1556   54.5326   26.0841 O.2       1 UNK         0.0000 
     21 O21         3.9042   55.6935   26.0816 O.2       1 UNK         0.0000 
     22 N22         4.0143   53.2968   27.0416 N.pl3     1 UNK         0.0000 
     23 C23         4.7007   53.2113   28.3413 C.3       1 UNK         0.0000 
     24 C24         4.1914   54.3388   29.2617 C.3       1 UNK         0.0000 
     25 C25         2.6774   54.2549   29.5124 C.3       1 UNK         0.0000 
     26 C26         1.9367   53.5572   28.3801 C.ar      1 UNK         0.0000 
     27 C27         2.5995   53.1842   27.1843 C.ar      1 UNK         0.0000 
     28 C28         1.8753   52.4974   26.2018 C.ar      1 UNK         0.0000 
     29 C29         0.5364   52.1634   26.3838 C.ar      1 UNK         0.0000 
     30 C30        -0.1089   52.5212   27.5604 C.ar      1 UNK         0.0000 
     31 C31         0.5845   53.2281   28.5398 C.ar      1 UNK         0.0000 
     32 C32         1.8901   52.6240   14.4033 C.3       1 UNK         0.0000 
     33 C33         1.0009   51.5714   13.7149 C.3       1 UNK         0.0000 
     34 C34         1.3660   50.1483   14.1648 C.3       1 UNK         0.0000 
     35 C35         1.1190   49.9203   15.6727 C.3       1 UNK         0.0000 
     36 H36         1.9045   46.7879   18.6775 H         1 UNK         0.0000 
     37 H37         2.3583   47.6832   20.1394 H         1 UNK         0.0000 
     38 H38         0.6625   47.6077   19.6328 H         1 UNK         0.0000 
     39 H39         2.6338   48.8415   17.7723 H         1 UNK         0.0000 
     40 H40         2.5303   53.8894   19.7123 H         1 UNK         0.0000 
     41 H41         1.7244   53.5643   22.1480 H         1 UNK         0.0000 
     42 H42         2.2613   54.4866   24.3559 H         1 UNK         0.0000 
     43 H43         6.4316   53.6407   23.7215 H         1 UNK         0.0000 
     44 H44         5.8976   52.6833   21.5330 H         1 UNK         0.0000 
     45 H45         4.4580   52.2335   28.7595 H         1 UNK         0.0000 
     46 H46         5.7851   53.2512   28.2257 H         1 UNK         0.0000 
     47 H47         4.7043   54.3347   30.2184 H         1 UNK         0.0000 
     48 H48         4.4353   55.2959   28.8042 H         1 UNK         0.0000 
     49 H49         2.5000   53.6764   30.4200 H         1 UNK         0.0000 
     50 H50         2.2620   55.2494   29.6869 H         1 UNK         0.0000 
     51 H51         2.3629   52.1529   25.3017 H         1 UNK         0.0000 
     52 H52         0.0074   51.6069   25.6235 H         1 UNK         0.0000 
     53 H53        -1.1431   52.2494   27.7141 H         1 UNK         0.0000 
     54 H54         0.0697   53.4972   29.4521 H         1 UNK         0.0000 
     55 H55         2.8982   52.5763   13.9891 H         1 UNK         0.0000 
     56 H56         1.5161   53.6280   14.1996 H         1 UNK         0.0000 
     57 H57         1.1024   51.6585   12.6321 H         1 UNK         0.0000 
     58 H58        -0.0495   51.7680   13.9381 H         1 UNK         0.0000 
     59 H59         2.4174   49.9601   13.9393 H         1 UNK         0.0000 
     60 H60         0.8016   49.4162   13.5860 H         1 UNK         0.0000 
     61 H61         0.0550   49.7682   15.8552 H         1 UNK         0.0000 
     62 H62         1.6181   48.9927   15.9500 H         1 UNK         0.0000 
@<TRIPOS>BOND
     1    1    2 1    
     2    1   36 1    
     3    1   37 1    
     4    1   38 1    
     5    2    3 am   BACKBONE|DICT|INTERRES
     6    2   39 1    
     7    3    4 2    
     8    3    5 1    
     9    5    9 2    
    10    5    6 1    
    11    6   35 1    
    12    6    7 2    
    13    7    8 1    
    14    7   32 1    
    15    8    9 1    
    16    9   10 am   BACKBONE|DICT|INTERRES
    17   10   11 am   BACKBONE|DICT|INTERRES
    18   10   40 1    
    19   11   12 2    
    20   11   13 1    
    21   13   18 ar   
    22   13   14 ar   
    23   14   15 ar   
    24   14   41 1    
    25   15   16 ar   
    26   15   42 1    
    27   16   17 ar   
    28   16   19 1    
    29   17   18 ar   
    30   17   43 1    
    31   18   44 1    
    32   19   20 2    
    33   19   21 2    
    34   19   22 1    
    35   22   27 1    
    36   22   23 1    
    37   23   24 1    
    38   23   45 1    
    39   23   46 1    
    40   24   25 1    
    41   24   47 1    
    42   24   48 1    
    43   25   26 1    
    44   25   49 1    
    45   25   50 1    
    46   26   31 ar   
    47   26   27 ar   
    48   27   28 ar   
    49   28   29 ar   
    50   28   51 1    
    51   29   30 ar   
    52   29   52 1    
    53   30   31 ar   
    54   30   53 1    
    55   31   54 1    
    56   32   33 1    
    57   32   55 1    
    58   32   56 1    
    59   33   34 1    
    60   33   57 1    
    61   33   58 1    
    62   34   35 1    
    63   34   59 1    
    64   34   60 1    
    65   35   61 1    
    66   35   62 1    
@<TRIPOS>SUBSTRUCTURE
     1 UNK         1 GROUP             0       ****    0 ROOT    
