@<TRIPOS>MOLECULE
ZINC20159521_2967
52   54    1
SMALL
USER_CHARGES


@<TRIPOS>ATOM
      1 C1          4.4509   53.6359   21.8999 C.3       1 UNK         0.0000 
      2 C2          5.6955   54.4996   22.1998 C.2       1 UNK         0.0000 
      3 N3          6.1195   54.7860   23.3802 N.2       1 UNK         0.0000 
      4 N4          5.3564   54.4025   24.4214 N.am      1 UNK         0.0000 
      5 C5          5.6593   54.6709   25.7044 C.2       1 UNK         0.0000 
      6 O6          6.6846   55.2500   26.0830 O.2       1 UNK         0.0000 
      7 C7          4.6621   54.1977   26.6365 C.ar      1 UNK         0.0000 
      8 C8          4.8701   54.1479   28.0065 C.ar      1 UNK         0.0000 
      9 N9          3.7799   53.6241   28.6586 N.pl3     1 UNK         0.0000 
     10 C10         2.8134   53.2962   27.7288 C.ar      1 UNK         0.0000 
     11 C11         3.3128   53.6964   26.4466 C.ar      1 UNK         0.0000 
     12 C12         2.4707   53.5151   25.3301 C.ar      1 UNK         0.0000 
     13 C13         1.2326   52.8970   25.4923 C.ar      1 UNK         0.0000 
     14 C14         0.7907   52.4958   26.7469 C.ar      1 UNK         0.0000 
     15 C15         1.5571   52.6953   27.8925 C.ar      1 UNK         0.0000 
     16 C16         3.7063   53.3630   30.0840 C.3       1 UNK         0.0000 
     17 C17         6.4088   55.0494   21.0116 C.ar      1 UNK         0.0000 
     18 C18         5.9022   54.9308   19.7041 C.ar      1 UNK         0.0000 
     19 C19         6.6316   55.3752   18.6021 C.ar      1 UNK         0.0000 
     20 C20         7.8804   55.9660   18.7821 C.ar      1 UNK         0.0000 
     21 C21         8.3992   56.0960   20.0717 C.ar      1 UNK         0.0000 
     22 C22         7.6615   55.6688   21.1652 C.ar      1 UNK         0.0000 
     23 N23         8.5998   56.3476   17.6379 N.am      1 UNK         0.0000 
     24 C24         9.4755   57.3747   17.5218 C.2       1 UNK         0.0000 
     25 O25         9.6714   58.2086   18.4112 O.2       1 UNK         0.0000 
     26 C26        10.2546   57.4890   16.1887 C.3       1 UNK         0.0000 
     27 C27        11.7037   56.9102   16.2861 C.3       1 UNK         0.0000 
     28 C28        12.6955   57.7269   17.1666 C.3       1 UNK         0.0000 
     29 F29        13.9377   57.2515   17.0556 F         1 UNK         0.0000 
     30 F30        12.3915   57.6961   18.4639 F         1 UNK         0.0000 
     31 F31        12.7367   59.0139   16.8155 F         1 UNK         0.0000 
     32 F32        12.2105   56.8652   15.0516 F         1 UNK         0.0000 
     33 F33        11.6747   55.6430   16.7185 F         1 UNK         0.0000 
     34 F34        10.2652   58.7765   15.8246 F         1 UNK         0.0000 
     35 F35         9.5749   56.8259   15.2425 F         1 UNK         0.0000 
     36 H36         3.5963   54.2665   21.6476 H         1 UNK         0.0000 
     37 H37         4.6247   52.9488   21.0701 H         1 UNK         0.0000 
     38 H38         4.1433   53.0085   22.7345 H         1 UNK         0.0000 
     39 H39         4.5144   53.9032   24.1848 H         1 UNK         0.0000 
     40 H40         5.7442   54.4343   28.5779 H         1 UNK         0.0000 
     41 H41         2.7668   53.8281   24.3435 H         1 UNK         0.0000 
     42 H42         0.5989   52.7360   24.6322 H         1 UNK         0.0000 
     43 H43        -0.1772   52.0208   26.8345 H         1 UNK         0.0000 
     44 H44         1.1867   52.3851   28.8588 H         1 UNK         0.0000 
     45 H45         2.6715   53.4473   30.4197 H         1 UNK         0.0000 
     46 H46         4.0780   52.3577   30.2859 H         1 UNK         0.0000 
     47 H47         4.3044   54.0966   30.6230 H         1 UNK         0.0000 
     48 H48         4.9402   54.4829   19.5069 H         1 UNK         0.0000 
     49 H49         6.2173   55.2551   17.6117 H         1 UNK         0.0000 
     50 H50         9.3885   56.4970   20.2371 H         1 UNK         0.0000 
     51 H51         8.1127   55.7786   22.1385 H         1 UNK         0.0000 
     52 H52         8.3723   55.8448   16.7903 H         1 UNK         0.0000 
@<TRIPOS>BOND
     1    1    2 1    
     2    1   36 1    
     3    1   37 1    
     4    1   38 1    
     5    2    3 2    
     6    2   17 1    
     7    3    4 1    
     8    4    5 am   BACKBONE|DICT|INTERRES
     9    4   39 1    
    10    5    6 2    
    11    5    7 1    
    12    7   11 ar   
    13    7    8 ar   
    14    8    9 ar   
    15    8   40 1    
    16    9   10 ar   
    17    9   16 1    
    18   10   15 ar   
    19   10   11 ar   
    20   11   12 ar   
    21   12   13 ar   
    22   12   41 1    
    23   13   14 ar   
    24   13   42 1    
    25   14   15 ar   
    26   14   43 1    
    27   15   44 1    
    28   16   45 1    
    29   16   46 1    
    30   16   47 1    
    31   17   22 ar   
    32   17   18 ar   
    33   18   19 ar   
    34   18   48 1    
    35   19   20 ar   
    36   19   49 1    
    37   20   21 ar   
    38   20   23 1    
    39   21   22 ar   
    40   21   50 1    
    41   22   51 1    
    42   23   24 am   BACKBONE|DICT|INTERRES
    43   23   52 1    
    44   24   25 2    
    45   24   26 1    
    46   26   27 1    
    47   26   34 1    
    48   26   35 1    
    49   27   28 1    
    50   27   32 1    
    51   27   33 1    
    52   28   29 1    
    53   28   30 1    
    54   28   31 1    
@<TRIPOS>SUBSTRUCTURE
     1 UNK         1 GROUP             0       ****    0 ROOT    
