@<TRIPOS>MOLECULE
ZINC13623749_3289
58   62    1
SMALL
USER_CHARGES


@<TRIPOS>ATOM
      1 C1          2.7268   52.5999   21.9059 C.3       1 UNK         0.0000 
      2 C2          3.9783   53.4096   21.6426 C.ar      1 UNK         0.0000 
      3 C3          4.8181   54.0755   22.5510 C.ar      1 UNK         0.0000 
      4 C4          5.7974   54.6993   21.7670 C.ar      1 UNK         0.0000 
      5 N5          5.5046   54.2954   20.4822 N.pl3     1 UNK         0.0000 
      6 N6          4.4054   53.5380   20.4089 N.2       1 UNK         0.0000 
      7 C7          6.2200   54.6091   19.2453 C.3       1 UNK         0.0000 
      8 C8          5.7089   55.8391   18.4992 C.ar      1 UNK         0.0000 
      9 C9          6.5060   56.9848   18.4032 C.ar      1 UNK         0.0000 
     10 C10         6.0556   58.0893   17.6817 C.ar      1 UNK         0.0000 
     11 C11         4.8105   58.0446   17.0585 C.ar      1 UNK         0.0000 
     12 C12         4.0057   56.9111   17.1608 C.ar      1 UNK         0.0000 
     13 C13         4.4552   55.8080   17.8814 C.ar      1 UNK         0.0000 
     14 C14         6.9587   55.6229   22.0802 C.3       1 UNK         0.0000 
     15 N15         4.5992   54.1045   23.9192 N.am      1 UNK         0.0000 
     16 C16         5.5262   54.1475   24.8969 C.2       1 UNK         0.0000 
     17 O17         6.7459   54.1297   24.7313 O.2       1 UNK         0.0000 
     18 C18         4.9643   54.1945   26.2257 C.ar      1 UNK         0.0000 
     19 C19         5.6450   54.5317   27.4043 C.ar      1 UNK         0.0000 
     20 N20         4.8835   54.4965   28.4705 N.2       1 UNK         0.0000 
     21 N21         3.6926   54.0494   28.0434 N.pl3     1 UNK         0.0000 
     22 C22         3.7062   53.7884   26.6793 C.ar      1 UNK         0.0000 
     23 N23         2.5719   53.3010   26.0409 N.pl3     1 UNK         0.0000 
     24 C24         1.5982   52.6421   26.9142 C.3       1 UNK         0.0000 
     25 H25         2.0615   51.7283   27.2846 H         1 UNK         0.0000 
     26 C26         1.3074   53.5695   28.1156 C.3       1 UNK         0.0000 
     27 C27         2.5793   53.8090   28.9759 C.3       1 UNK         0.0000 
     28 H28         2.4483   54.7153   29.5686 H         1 UNK         0.0000 
     29 C29         2.8593   52.6540   29.9708 C.3       1 UNK         0.0000 
     30 F30         3.9045   52.8980   30.7570 F         1 UNK         0.0000 
     31 F31         1.8157   52.4472   30.7728 F         1 UNK         0.0000 
     32 F32         3.1017   51.5090   29.3394 F         1 UNK         0.0000 
     33 C33         0.3503   52.2019   26.1794 C.2       1 UNK         0.0000 
     34 C34        -0.2241   52.4942   24.9464 C.2       1 UNK         0.0000 
     35 C35        -1.3970   51.7418   24.8589 C.2       1 UNK         0.0000 
     36 C36        -1.4917   51.0271   26.0424 C.2       1 UNK         0.0000 
     37 O37        -0.4396   51.3191   26.8448 O.3       1 UNK         0.0000 
     38 H38         2.5155   52.4891   22.9703 H         1 UNK         0.0000 
     39 H39         1.8508   53.0662   21.4530 H         1 UNK         0.0000 
     40 H40         2.8068   51.5933   21.4936 H         1 UNK         0.0000 
     41 H41         6.1497   53.7454   18.5795 H         1 UNK         0.0000 
     42 H42         7.2827   54.7058   19.4738 H         1 UNK         0.0000 
     43 H43         7.4769   57.0191   18.8749 H         1 UNK         0.0000 
     44 H44         6.6602   58.9830   17.6065 H         1 UNK         0.0000 
     45 H45         4.4623   58.9103   16.5085 H         1 UNK         0.0000 
     46 H46         3.0362   56.8914   16.6848 H         1 UNK         0.0000 
     47 H47         3.8318   54.9286   17.9546 H         1 UNK         0.0000 
     48 H48         6.8563   56.0945   23.0560 H         1 UNK         0.0000 
     49 H49         7.9041   55.0838   22.0814 H         1 UNK         0.0000 
     50 H50         7.0433   56.4333   21.3572 H         1 UNK         0.0000 
     51 H51         3.6359   54.1047   24.2126 H         1 UNK         0.0000 
     52 H52         6.6770   54.8452   27.4763 H         1 UNK         0.0000 
     53 H53         2.7146   52.7360   25.2157 H         1 UNK         0.0000 
     54 H54         0.5159   53.1401   28.7337 H         1 UNK         0.0000 
     55 H55         0.8999   54.5246   27.7829 H         1 UNK         0.0000 
     56 H56         0.1680   53.1700   24.1999 H         1 UNK         0.0000 
     57 H57        -2.0930   51.7165   24.0335 H         1 UNK         0.0000 
     58 H58        -2.2021   50.3127   26.4389 H         1 UNK         0.0000 
@<TRIPOS>BOND
     1    1    2 1    
     2    1   38 1    
     3    1   39 1    
     4    1   40 1    
     5    2    6 ar   
     6    2    3 ar   
     7    3    4 ar   
     8    3   15 1    
     9    4    5 ar   
    10    4   14 1    
    11    5    6 ar   
    12    5    7 1    
    13    7    8 1    
    14    7   41 1    
    15    7   42 1    
    16    8   13 ar   
    17    8    9 ar   
    18    9   10 ar   
    19    9   43 1    
    20   10   11 ar   
    21   10   44 1    
    22   11   12 ar   
    23   11   45 1    
    24   12   13 ar   
    25   12   46 1    
    26   13   47 1    
    27   14   48 1    
    28   14   49 1    
    29   14   50 1    
    30   15   16 am   BACKBONE|DICT|INTERRES
    31   15   51 1    
    32   16   17 2    
    33   16   18 1    
    34   18   22 ar   
    35   18   19 ar   
    36   19   20 ar   
    37   19   52 1    
    38   20   21 ar   
    39   21   27 1    
    40   21   22 ar   
    41   22   23 1    
    42   23   24 1    
    43   23   53 1    
    44   24   25 1    
    45   24   26 1    
    46   24   33 1    
    47   26   27 1    
    48   26   54 1    
    49   26   55 1    
    50   27   28 1    
    51   27   29 1    
    52   29   30 1    
    53   29   31 1    
    54   29   32 1    
    55   33   37 1    
    56   33   34 2    
    57   34   35 1    
    58   34   56 1    
    59   35   36 2    
    60   35   57 1    
    61   36   37 1    
    62   36   58 1    
@<TRIPOS>SUBSTRUCTURE
     1 UNK         1 GROUP             0       ****    0 ROOT    
