@<TRIPOS>MOLECULE
ZINC39674206_5548
72   77    1
SMALL
USER_CHARGES


@<TRIPOS>ATOM
      1 C1          2.5652   53.4250   17.5325 C.3       1 UNK         0.0000 
      2 C2          3.8917   53.2672   18.2991 C.3       1 UNK         0.0000 
      3 H3          4.5091   52.4970   17.8318 H         1 UNK         0.0000 
      4 C4          3.6961   53.0039   19.7652 C.2       1 UNK         0.0000 
      5 C5          4.2962   54.0475   20.3566 C.2       1 UNK         0.0000 
      6 N6          4.8300   54.8969   19.4505 N.2       1 UNK         0.0000 
      7 N7          4.6217   54.4962   18.2705 N.2       1 UNK         0.0000 
      8 C8          4.5047   54.3936   21.8149 C.3       1 UNK         0.0000 
      9 C9          3.0031   51.7668   20.3118 C.3       1 UNK         0.0000 
     10 H10         2.5454   51.2593   19.4591 H         1 UNK         0.0000 
     11 C11         4.0081   50.8049   20.9337 C.3       1 UNK         0.0000 
     12 N12         1.9778   52.0798   21.3027 N.am      1 UNK         0.0000 
     13 C13         0.9058   51.3058   21.5654 C.2       1 UNK         0.0000 
     14 O14         0.6178   50.3232   20.8807 O.2       1 UNK         0.0000 
     15 C15        -0.0347   51.6922   22.7383 C.3       1 UNK         0.0000 
     16 H16        -1.0282   51.7232   22.2892 H         1 UNK         0.0000 
     17 C17         0.2487   53.0731   23.3487 C.3       1 UNK         0.0000 
     18 N18         1.1196   52.8023   24.5010 N.am      1 UNK         0.0000 
     19 C19         1.1045   51.3770   24.8524 C.3       1 UNK         0.0000 
     20 C20         0.0159   50.7197   23.9573 C.3       1 UNK         0.0000 
     21 C21        -1.3897   50.7430   24.6336 C.3       1 UNK         0.0000 
     22 C22        -1.4388   49.9512   25.9544 C.3       1 UNK         0.0000 
     23 N23        -1.0377   48.4935   25.6817 N.4       1 UNK         0.0000 
     24 C24         0.3048   48.3547   24.9366 C.3       1 UNK         0.0000 
     25 C25         0.2589   49.2103   23.6555 C.3       1 UNK         0.0000 
     26 C26         2.0803   53.7149   24.8096 C.2       1 UNK         0.0000 
     27 O27         2.2355   54.7020   24.0822 O.2       1 UNK         0.0000 
     28 C28         3.0270   53.5988   25.9968 C.ar      1 UNK         0.0000 
     29 C29         4.3491   54.0311   25.7549 C.ar      1 UNK         0.0000 
     30 C30         5.3223   54.0490   26.7479 C.ar      1 UNK         0.0000 
     31 C31         5.0018   53.6390   28.0302 C.ar      1 UNK         0.0000 
     32 C32         3.6994   53.2325   28.3089 C.ar      1 UNK         0.0000 
     33 C33         2.6911   53.2220   27.3284 C.ar      1 UNK         0.0000 
     34 C34         1.4499   52.7982   28.0437 C.ar      1 UNK         0.0000 
     35 C35         0.1144   52.6344   27.6518 C.ar      1 UNK         0.0000 
     36 C36        -0.8283   52.1048   28.5400 C.ar      1 UNK         0.0000 
     37 C37        -0.4834   51.8592   29.8652 C.ar      1 UNK         0.0000 
     38 C38         0.8191   52.0976   30.2948 C.ar      1 UNK         0.0000 
     39 C39         1.7771   52.5300   29.3756 C.ar      1 UNK         0.0000 
     40 C40         3.2010   52.7719   29.6130 C.2       1 UNK         0.0000 
     41 O41         3.8289   52.6274   30.6620 O.2       1 UNK         0.0000 
     42 H42         2.0120   52.4859   17.4978 H         1 UNK         0.0000 
     43 H43         1.9184   54.1657   18.0051 H         1 UNK         0.0000 
     44 H44         2.7336   53.7367   16.5011 H         1 UNK         0.0000 
     45 H45         5.5535   54.6136   22.0133 H         1 UNK         0.0000 
     46 H46         3.9059   55.2647   22.0792 H         1 UNK         0.0000 
     47 H47         4.2072   53.5665   22.4579 H         1 UNK         0.0000 
     48 H48         4.7634   50.5210   20.2092 H         1 UNK         0.0000 
     49 H49         4.5171   51.2507   21.7890 H         1 UNK         0.0000 
     50 H50         3.5053   49.8967   21.2729 H         1 UNK         0.0000 
     51 H51         2.1739   52.8664   21.9024 H         1 UNK         0.0000 
     52 H52         0.6919   53.7186   22.5870 H         1 UNK         0.0000 
     53 H53        -0.7135   53.4597   23.6846 H         1 UNK         0.0000 
     54 H54         1.1050   51.1083   25.9050 H         1 UNK         0.0000 
     55 H55         2.0463   50.9878   24.4747 H         1 UNK         0.0000 
     56 H56        -1.6697   51.7686   24.8738 H         1 UNK         0.0000 
     57 H57        -2.1632   50.3920   23.9469 H         1 UNK         0.0000 
     58 H58        -0.7238   50.2754   26.7037 H         1 UNK         0.0000 
     59 H59        -2.4328   49.9172   26.4066 H         1 UNK         0.0000 
     60 H60        -0.9888   48.0414   26.5987 H         1 UNK         0.0000 
     61 H61         1.0910   48.6579   25.6321 H         1 UNK         0.0000 
     62 H62         0.4219   47.2925   24.7261 H         1 UNK         0.0000 
     63 H63        -0.4838   48.8263   22.9530 H         1 UNK         0.0000 
     64 H64         1.2203   49.0807   23.1574 H         1 UNK         0.0000 
     65 H65         4.6468   54.3634   24.7701 H         1 UNK         0.0000 
     66 H66         6.3267   54.3747   26.5223 H         1 UNK         0.0000 
     67 H67         5.7641   53.6485   28.7983 H         1 UNK         0.0000 
     68 H68        -0.2142   52.8880   26.6578 H         1 UNK         0.0000 
     69 H69        -1.8440   51.9315   28.2145 H         1 UNK         0.0000 
     70 H70        -1.2214   51.4747   30.5599 H         1 UNK         0.0000 
     71 H71         1.0694   51.9062   31.3296 H         1 UNK         0.0000 
     72 H72        -1.7732   48.0322   25.1680 H         1 UNK         0.0000 
@<TRIPOS>BOND
     1    1    2 1    
     2    1   42 1    
     3    1   43 1    
     4    1   44 1    
     5    2    3 1    
     6    2    7 1    
     7    2    4 1    
     8    4    5 2    
     9    4    9 1    
    10    5    6 1    
    11    5    8 1    
    12    6    7 2    
    13    8   45 1    
    14    8   46 1    
    15    8   47 1    
    16    9   10 1    
    17    9   11 1    
    18    9   12 1    
    19   11   48 1    
    20   11   49 1    
    21   11   50 1    
    22   12   13 am   BACKBONE|DICT|INTERRES
    23   12   51 1    
    24   13   14 2    
    25   13   15 1    
    26   15   16 1    
    27   15   20 1    
    28   15   17 1    
    29   17   18 1    
    30   17   52 1    
    31   17   53 1    
    32   18   19 1    
    33   18   26 am   BACKBONE|DICT|INTERRES
    34   19   20 1    
    35   19   54 1    
    36   19   55 1    
    37   20   25 1    
    38   20   21 1    
    39   21   22 1    
    40   21   56 1    
    41   21   57 1    
    42   22   23 1    
    43   22   58 1    
    44   22   59 1    
    45   23   24 1    
    46   23   60 1    
    47   23   72 1    
    48   24   25 1    
    49   24   61 1    
    50   24   62 1    
    51   25   63 1    
    52   25   64 1    
    53   26   27 2    
    54   26   28 1    
    55   28   33 ar   
    56   28   29 ar   
    57   29   30 ar   
    58   29   65 1    
    59   30   31 ar   
    60   30   66 1    
    61   31   32 ar   
    62   31   67 1    
    63   32   40 1    
    64   32   33 ar   
    65   33   34 1    
    66   34   39 ar   
    67   34   35 ar   
    68   35   36 ar   
    69   35   68 1    
    70   36   37 ar   
    71   36   69 1    
    72   37   38 ar   
    73   37   70 1    
    74   38   39 ar   
    75   38   71 1    
    76   39   40 1    
    77   40   41 2    
@<TRIPOS>SUBSTRUCTURE
     1 UNK         1 GROUP             0       ****    0 ROOT    
