@<TRIPOS>MOLECULE
ZINC63375353_5471
68   74    1
SMALL
USER_CHARGES


@<TRIPOS>ATOM
      1 C1         -1.2248   50.3968   24.9090 C.ar      1 UNK         0.0000 
      2 C2          0.0018   49.9173   24.4567 C.ar      1 UNK         0.0000 
      3 C3          0.6122   50.5184   23.3583 C.ar      1 UNK         0.0000 
      4 C4         -0.0038   51.5988   22.7084 C.ar      1 UNK         0.0000 
      5 C5         -1.2386   52.0675   23.1674 C.ar      1 UNK         0.0000 
      6 C6         -1.8502   51.4665   24.2667 C.ar      1 UNK         0.0000 
      7 C7          0.6837   52.3029   21.5306 C.3       1 UNK         0.0000 
      8 H8          0.2671   53.2949   21.3604 H         1 UNK         0.0000 
      9 C9          0.5324   51.4537   20.2341 C.3       1 UNK         0.0000 
     10 H10         0.7122   50.3929   20.4186 H         1 UNK         0.0000 
     11 C11         1.4627   51.9915   19.1694 C.2       1 UNK         0.0000 
     12 C12         0.7445   52.3746   18.1046 C.2       1 UNK         0.0000 
     13 C13         1.1453   53.0041   16.8413 C.2       1 UNK         0.0000 
     14 C14         0.2229   53.3009   15.9039 C.2       1 UNK         0.0000 
     15 C15        -1.1696   52.9731   16.1855 C.2       1 UNK         0.0000 
     16 C16        -1.5555   52.3988   17.3563 C.2       1 UNK         0.0000 
     17 C17        -0.6052   52.0975   18.3428 C.2       1 UNK         0.0000 
     18 N18        -0.7659   51.5678   19.5373 N.pl3     1 UNK         0.0000 
     19 C19         2.9357   52.1012   19.5302 C.3       1 UNK         0.0000 
     20 C20         3.1419   51.8750   21.0604 C.3       1 UNK         0.0000 
     21 H21         3.1470   50.8113   21.3053 H         1 UNK         0.0000 
     22 N22         2.1159   52.5409   21.8177 N.am      1 UNK         0.0000 
     23 C23         2.5840   53.5262   22.6065 C.2       1 UNK         0.0000 
     24 O24         1.9053   54.3162   23.2674 O.2       1 UNK         0.0000 
     25 N25         3.9445   53.4426   22.5513 N.am      1 UNK         0.0000 
     26 C26         4.3620   52.4886   21.6818 C.2       1 UNK         0.0000 
     27 O27         5.5040   52.1019   21.4579 O.2       1 UNK         0.0000 
     28 C28         4.8060   54.1093   23.4747 C.ar      1 UNK         0.0000 
     29 C29         4.4976   53.9684   24.8433 C.ar      1 UNK         0.0000 
     30 C30         5.2773   54.5469   25.8351 C.ar      1 UNK         0.0000 
     31 C31         6.3836   55.2986   25.4805 C.ar      1 UNK         0.0000 
     32 C32         6.7039   55.4709   24.1380 C.ar      1 UNK         0.0000 
     33 C33         5.9366   54.8964   23.1049 C.ar      1 UNK         0.0000 
     34 C34         6.3115   55.2009   21.6590 C.2       1 UNK         0.0000 
     35 O35         5.4696   55.1939   20.7642 O.2       1 UNK         0.0000 
     36 N36         7.6116   55.4630   21.4213 N.am      1 UNK         0.0000 
     37 C37         8.2641   55.6594   20.1173 C.3       1 UNK         0.0000 
     38 C38         7.5533   56.5425   19.0509 C.3       1 UNK         0.0000 
     39 H39         6.7173   55.9870   18.6224 H         1 UNK         0.0000 
     40 C40         8.4837   57.2032   18.0292 C.3       1 UNK         0.0000 
     41 C41         7.7763   58.4725   17.6069 C.3       1 UNK         0.0000 
     42 C42         6.7481   58.7113   18.7102 C.3       1 UNK         0.0000 
     43 O43         7.0017   57.6965   19.6821 O.3       1 UNK         0.0000 
     44 H44        -1.6920   49.9359   25.7690 H         1 UNK         0.0000 
     45 H45         0.4814   49.0902   24.9614 H         1 UNK         0.0000 
     46 H46         1.5696   50.1447   23.0248 H         1 UNK         0.0000 
     47 H47        -1.7239   52.8990   22.6778 H         1 UNK         0.0000 
     48 H48        -2.8011   51.8322   24.6267 H         1 UNK         0.0000 
     49 H49         2.1792   53.2425   16.6345 H         1 UNK         0.0000 
     50 H50         0.5053   53.7671   14.9693 H         1 UNK         0.0000 
     51 H51        -1.9179   53.1902   15.4351 H         1 UNK         0.0000 
     52 H52        -2.6024   52.1721   17.5031 H         1 UNK         0.0000 
     53 H53         3.3301   53.0695   19.2146 H         1 UNK         0.0000 
     54 H54         3.5045   51.3437   18.9839 H         1 UNK         0.0000 
     55 H55         3.6490   53.3762   25.1556 H         1 UNK         0.0000 
     56 H56         5.0211   54.4121   26.8753 H         1 UNK         0.0000 
     57 H57         6.9771   55.7614   26.2522 H         1 UNK         0.0000 
     58 H58         7.5537   56.0962   23.9153 H         1 UNK         0.0000 
     59 H59         8.2375   55.4246   22.2160 H         1 UNK         0.0000 
     60 H60         8.4669   54.6801   19.6811 H         1 UNK         0.0000 
     61 H61         9.2454   56.0808   20.3336 H         1 UNK         0.0000 
     62 H62         8.7350   56.5326   17.2083 H         1 UNK         0.0000 
     63 H63         9.4406   57.4462   18.4961 H         1 UNK         0.0000 
     64 H64         7.2744   58.3439   16.6478 H         1 UNK         0.0000 
     65 H65         8.4673   59.3083   17.5079 H         1 UNK         0.0000 
     66 H66         5.7281   58.6209   18.3356 H         1 UNK         0.0000 
     67 H67         6.8425   59.6945   19.1685 H         1 UNK         0.0000 
     68 H68        -1.6503   51.2679   19.9399 H         1 UNK         0.0000 
@<TRIPOS>BOND
     1    1    6 ar   
     2    1    2 ar   
     3    1   44 1    
     4    2    3 ar   
     5    2   45 1    
     6    3    4 ar   
     7    3   46 1    
     8    4    5 ar   
     9    4    7 1    
    10    5    6 ar   
    11    5   47 1    
    12    6   48 1    
    13    7    8 1    
    14    7   22 1    
    15    7    9 1    
    16    9   10 1    
    17    9   18 1    
    18    9   11 1    
    19   11   12 2    
    20   11   19 1    
    21   12   17 1    
    22   12   13 1    
    23   13   14 2    
    24   13   49 1    
    25   14   15 1    
    26   14   50 1    
    27   15   16 2    
    28   15   51 1    
    29   16   17 1    
    30   16   52 1    
    31   17   18 2    
    32   18   68 1    
    33   19   20 1    
    34   19   53 1    
    35   19   54 1    
    36   20   21 1    
    37   20   26 1    
    38   20   22 1    
    39   22   23 am   BACKBONE|DICT|INTERRES
    40   23   24 2    
    41   23   25 am   BACKBONE|DICT|INTERRES
    42   25   26 am   BACKBONE|DICT|INTERRES
    43   25   28 1    
    44   26   27 2    
    45   28   33 ar   
    46   28   29 ar   
    47   29   30 ar   
    48   29   55 1    
    49   30   31 ar   
    50   30   56 1    
    51   31   32 ar   
    52   31   57 1    
    53   32   33 ar   
    54   32   58 1    
    55   33   34 1    
    56   34   35 2    
    57   34   36 am   BACKBONE|DICT|INTERRES
    58   36   37 1    
    59   36   59 1    
    60   37   38 1    
    61   37   60 1    
    62   37   61 1    
    63   38   39 1    
    64   38   43 1    
    65   38   40 1    
    66   40   41 1    
    67   40   62 1    
    68   40   63 1    
    69   41   42 1    
    70   41   64 1    
    71   41   65 1    
    72   42   43 1    
    73   42   66 1    
    74   42   67 1    
@<TRIPOS>SUBSTRUCTURE
     1 UNK         1 GROUP             0       ****    0 ROOT    
