@<TRIPOS>MOLECULE
ZINC50364231_1648
40   41    1
SMALL
USER_CHARGES


@<TRIPOS>ATOM
      1 C1          2.6599   52.6829   28.8908 C.3       1 UNK         0.0000 
      2 C2          2.1253   53.8074   27.9810 C.3       1 UNK         0.0000 
      3 C3          2.0374   55.1522   28.7314 C.3       1 UNK         0.0000 
      4 C4          2.9372   53.9205   26.6893 C.ar      1 UNK         0.0000 
      5 N5          2.3067   53.6036   25.5348 N.ar      1 UNK         0.0000 
      6 C6          3.0526   53.6981   24.4069 C.ar      1 UNK         0.0000 
      7 C7          4.4044   54.0965   24.3752 C.ar      1 UNK         0.0000 
      8 C8          4.9502   54.4398   25.6486 C.ar      1 UNK         0.0000 
      9 N9          4.2218   54.3362   26.7965 N.ar      1 UNK         0.0000 
     10 C10         6.3042   55.0328   25.8393 C.2       1 UNK         0.0000 
     11 O11         6.5549   56.0958   25.2349 O.co2     1 UNK         0.0000 
     12 O12         7.1042   54.4554   26.6092 O.co2     1 UNK         0.0000 
     13 N13         5.0866   54.1067   23.1438 N.pl3     1 UNK         0.0000 
     14 C14         6.5127   53.7597   22.9745 C.3       1 UNK         0.0000 
     15 C15         7.2645   54.8078   22.1257 C.3       1 UNK         0.0000 
     16 C16         6.6598   54.9672   20.7234 C.3       1 UNK         0.0000 
     17 C17         5.1691   55.2285   20.8620 C.3       1 UNK         0.0000 
     18 C18         4.4050   54.2716   21.8250 C.3       1 UNK         0.0000 
     19 H19         3.4257   54.7276   21.9806 H         1 UNK         0.0000 
     20 C20         4.0738   52.9102   21.1353 C.2       1 UNK         0.0000 
     21 O21         4.7015   51.8767   21.3445 O.2       1 UNK         0.0000 
     22 N22         3.0719   52.8967   20.2601 N.am      1 UNK         0.0000 
     23 H23         2.6896   51.7295   28.3612 H         1 UNK         0.0000 
     24 H24         2.0258   52.5485   29.7672 H         1 UNK         0.0000 
     25 H25         3.6702   52.8986   29.2426 H         1 UNK         0.0000 
     26 H26         1.1027   53.5346   27.7090 H         1 UNK         0.0000 
     27 H27         1.6460   55.9377   28.0850 H         1 UNK         0.0000 
     28 H28         1.3757   55.0802   29.5953 H         1 UNK         0.0000 
     29 H29         3.0145   55.4791   29.0904 H         1 UNK         0.0000 
     30 H30         2.5306   53.3960   23.5130 H         1 UNK         0.0000 
     31 H31         7.0329   53.6109   23.9159 H         1 UNK         0.0000 
     32 H32         6.5702   52.7819   22.5043 H         1 UNK         0.0000 
     33 H33         7.2847   55.7619   22.6552 H         1 UNK         0.0000 
     34 H34         8.3040   54.5098   22.0392 H         1 UNK         0.0000 
     35 H35         7.1422   55.7952   20.2024 H         1 UNK         0.0000 
     36 H36         6.7928   54.0974   20.0822 H         1 UNK         0.0000 
     37 H37         5.1047   56.2265   21.2745 H         1 UNK         0.0000 
     38 H38         4.7044   55.2732   19.8761 H         1 UNK         0.0000 
     39 H39         2.5264   53.7343   20.0816 H         1 UNK         0.0000 
     40 H40         2.8771   52.0403   19.7643 H         1 UNK         0.0000 
@<TRIPOS>BOND
     1    1    2 1    
     2    1   23 1    
     3    1   24 1    
     4    1   25 1    
     5    2    3 1    
     6    2    4 1    
     7    2   26 1    
     8    3   27 1    
     9    3   28 1    
    10    3   29 1    
    11    4    9 ar   
    12    4    5 ar   
    13    5    6 ar   
    14    6    7 ar   
    15    6   30 1    
    16    7    8 ar   
    17    7   13 1    
    18    8    9 ar   
    19    8   10 1    
    20   10   11 2    
    21   10   12 1    
    22   13   18 1    
    23   13   14 1    
    24   14   15 1    
    25   14   31 1    
    26   14   32 1    
    27   15   16 1    
    28   15   33 1    
    29   15   34 1    
    30   16   17 1    
    31   16   35 1    
    32   16   36 1    
    33   17   18 1    
    34   17   37 1    
    35   17   38 1    
    36   18   19 1    
    37   18   20 1    
    38   20   21 2    
    39   20   22 am   BACKBONE|DICT|INTERRES
    40   22   39 1    
    41   22   40 1    
@<TRIPOS>SUBSTRUCTURE
     1 UNK         1 GROUP             0       ****    0 ROOT    
