ZINC14816773_2249
                    3D
 Schrodinger Suite 2024-2.
 54 56  0  0  1  0            999 V2000
    0.1339   49.2941   25.3072 C   0  0  0  0  0  0
    0.3238   49.6272   23.8372 C   0  0  0  0  0  0
   -0.4639   49.0019   22.8671 C   0  0  0  0  0  0
   -0.2738   49.2910   21.5153 C   0  0  0  0  0  0
    0.7012   50.2105   21.1249 C   0  0  0  0  0  0
    1.4724   50.8704   22.0864 C   0  0  0  0  0  0
    1.2824   50.5671   23.4457 C   0  0  0  0  0  0
    2.4401   51.7826   21.6289 N   0  0  0  0  0  0
    2.8914   52.8866   22.2653 C   0  0  0  0  0  0
    2.4381   53.2910   23.3396 O   0  0  0  0  0  0
    4.0613   53.6023   21.6091 C   0  0  0  0  0  0
    4.1194   53.6744   20.2070 C   0  0  0  0  0  0
    5.1480   54.3527   19.5596 C   0  0  0  0  0  0
    6.1478   54.9686   20.3003 C   0  0  0  0  0  0
    6.1269   54.8964   21.6912 C   0  0  0  0  0  0
    5.0947   54.2165   22.3670 C   0  0  0  0  0  0
    5.0569   54.1078   23.7782 N   0  0  0  0  0  0
    5.7857   54.7073   24.7445 C   0  0  0  0  0  0
    6.7034   55.5055   24.5490 O   0  0  0  0  0  0
    5.4324   54.3078   26.1547 C   0  0  0  0  0  0
    6.4342   54.3170   27.1347 C   0  0  0  0  0  0
    6.1560   53.9334   28.4429 C   0  0  0  0  0  0
    4.8719   53.5301   28.7936 C   0  0  0  0  0  0
    3.8560   53.5268   27.8400 C   0  0  0  0  0  0
    4.1278   53.9260   26.5250 C   0  0  0  0  0  0
    2.2148   53.0385   28.3535 S   0  0  0  0  0  0
    1.3591   52.9973   27.1616 O   0  0  0  0  0  0
    2.3736   51.8508   29.2034 O   0  0  0  0  0  0
    1.6561   54.3696   29.3859 N   0  0  0  0  0  0
    0.5581   54.0515   30.3238 C   0  0  0  0  0  0
    1.5684   55.6958   28.7420 C   0  0  0  0  0  0
   -0.8914   48.9846   25.5149 H   0  0  0  0  0  0
    0.3309   50.1608   25.9408 H   0  0  0  0  0  0
    0.8047   48.4891   25.6094 H   0  0  0  0  0  0
   -1.2142   48.2846   23.1628 H   0  0  0  0  0  0
   -0.8816   48.7985   20.7710 H   0  0  0  0  0  0
    0.8411   50.4155   20.0724 H   0  0  0  0  0  0
    1.8900   51.0432   24.1992 H   0  0  0  0  0  0
    2.8141   51.5945   20.7113 H   0  0  0  0  0  0
    3.3508   53.2295   19.5932 H   0  0  0  0  0  0
    5.1612   54.3984   18.4802 H   0  0  0  0  0  0
    6.9461   55.4929   19.7948 H   0  0  0  0  0  0
    6.9430   55.3660   22.2180 H   0  0  0  0  0  0
    4.3103   53.5112   24.1051 H   0  0  0  0  0  0
    7.4430   54.6152   26.8917 H   0  0  0  0  0  0
    6.9478   53.9539   29.1763 H   0  0  0  0  0  0
    4.6666   53.2234   29.8074 H   0  0  0  0  0  0
    3.3212   53.9284   25.8047 H   0  0  0  0  0  0
    0.4589   54.8381   31.0724 H   0  0  0  0  0  0
   -0.3763   53.9399   29.7727 H   0  0  0  0  0  0
    0.7662   53.1091   30.8335 H   0  0  0  0  0  0
    0.7043   55.7263   28.0817 H   0  0  0  0  0  0
    1.4996   56.4815   29.4935 H   0  0  0  0  0  0
    2.4559   55.8722   28.1368 H   0  0  0  0  0  0
  1  2  1  0  0  0
  1 32  1  0  0  0
  1 33  1  0  0  0
  1 34  1  0  0  0
  2  7  2  0  0  0
  2  3  1  0  0  0
  3  4  2  0  0  0
  3 35  1  0  0  0
  4  5  1  0  0  0
  4 36  1  0  0  0
  5  6  2  0  0  0
  5 37  1  0  0  0
  6  7  1  0  0  0
  6  8  1  0  0  0
  7 38  1  0  0  0
  8  9  1  0  0  0
  8 39  1  0  0  0
  9 10  2  0  0  0
  9 11  1  0  0  0
 11 16  2  0  0  0
 11 12  1  0  0  0
 12 13  2  0  0  0
 12 40  1  0  0  0
 13 14  1  0  0  0
 13 41  1  0  0  0
 14 15  2  0  0  0
 14 42  1  0  0  0
 15 16  1  0  0  0
 15 43  1  0  0  0
 16 17  1  0  0  0
 17 18  1  0  0  0
 17 44  1  0  0  0
 18 19  2  0  0  0
 18 20  1  0  0  0
 20 25  2  0  0  0
 20 21  1  0  0  0
 21 22  2  0  0  0
 21 45  1  0  0  0
 22 23  1  0  0  0
 22 46  1  0  0  0
 23 24  2  0  0  0
 23 47  1  0  0  0
 24 25  1  0  0  0
 24 26  1  0  0  0
 25 48  1  0  0  0
 26 27  2  0  0  0
 26 28  2  0  0  0
 26 29  1  0  0  0
 29 30  1  0  0  0
 29 31  1  0  0  0
 30 49  1  0  0  0
 30 50  1  0  0  0
 30 51  1  0  0  0
 31 52  1  0  0  0
 31 53  1  0  0  0
 31 54  1  0  0  0
M  END
> <i_i_glide_confnum>
71

> <i_i_glide_lignum>
2250

> <i_i_glide_posenum>
152

> <i_i_glide_rotatable_bonds>
8

> <i_m_Source_File_Index>
2808

> <b_m_subgroup_collapsed>
0

> <r_i_docking_score>
-5.02798

> <r_i_glide_ecoul>
-2.72994

> <r_i_glide_eff_state_penalty>
0

> <r_i_glide_einternal>
5.35144

> <r_i_glide_emodel>
-63.7983

> <r_i_glide_energy>
-54.0697

> <r_i_glide_erotb>
0.729265

> <r_i_glide_esite>
0

> <r_i_glide_evdw>
-51.3397

> <r_i_glide_gscore>
-5.02798

> <r_i_glide_hbond>
0

> <r_i_glide_ligand_efficiency>
-0.162193

> <r_i_glide_ligand_efficiency_ln>
-1.13396

> <r_i_glide_ligand_efficiency_sa>
-0.509509

> <r_i_glide_lipo>
-2.99398

> <r_i_glide_metal>
0

> <r_i_glide_rewards>
0.213215

> <s_i_glide_gridfile>
wee1_glide-grid

> <s_m_Source_File>
wee1_decoys_glide_SP.sdf

> <s_m_Source_Path>
/Users/zhangxujun/Desktop

> <s_m_entry_id>
3083

> <s_m_entry_name>
wee1_decoys_glide_SP.2808

> <s_m_subgroup_title>
wee1_decoys_glide_SP

> <s_m_subgroupid>
wee1_decoys_glide_SP


$$$$
