@<TRIPOS>MOLECULE
ZINC02717791_4662
57   61    1
SMALL
USER_CHARGES


@<TRIPOS>ATOM
      1 C1          3.4431   53.6634   14.8836 C.3       1 UNK         0.0000 
      2 C2          2.0279   53.0638   14.9093 C.3       1 UNK         0.0000 
      3 O3          1.9024   52.0096   15.8637 O.3       1 UNK         0.0000 
      4 C4          1.7739   52.2567   17.1914 C.2       1 UNK         0.0000 
      5 O5          1.7340   53.3893   17.6785 O.2       1 UNK         0.0000 
      6 C6          1.7151   51.0224   18.0045 C.2       1 UNK         0.0000 
      7 C7          1.3704   49.7116   17.5465 C.2       1 UNK         0.0000 
      8 C8          1.4202   48.7382   18.5552 C.2       1 UNK         0.0000 
      9 S9          1.9027   49.3920   20.0666 S.3       1 UNK         0.0000 
     10 C10         2.0208   50.9934   19.3850 C.2       1 UNK         0.0000 
     11 N11         2.4160   52.1005   20.1453 N.am      1 UNK         0.0000 
     12 C12         2.7562   52.1548   21.4514 C.2       1 UNK         0.0000 
     13 O13         2.7034   51.2031   22.2283 O.2       1 UNK         0.0000 
     14 C14         3.2364   53.5140   21.9789 C.3       1 UNK         0.0000 
     15 S15         2.2999   54.0219   23.4704 S.3       1 UNK         0.0000 
     16 C16         3.5579   54.1525   24.7680 C.ar      1 UNK         0.0000 
     17 N17         4.7846   54.3928   24.4084 N.2       1 UNK         0.0000 
     18 C18         5.7977   54.5265   25.2905 C.ar      1 UNK         0.0000 
     19 O19         6.9599   54.8153   25.0055 O.2       1 UNK         0.0000 
     20 C20         5.4078   54.3046   26.6831 C.ar      1 UNK         0.0000 
     21 C21         6.0366   54.2490   27.9228 C.ar      1 UNK         0.0000 
     22 N22         5.1799   53.9767   28.8806 N.2       1 UNK         0.0000 
     23 N23         3.9657   53.8384   28.3004 N.pl3     1 UNK         0.0000 
     24 C24         4.0644   54.0658   26.9418 C.ar      1 UNK         0.0000 
     25 N25         3.0995   54.0095   25.9721 N.ar      1 UNK         0.0000 
     26 C26         2.8274   53.5326   29.0972 C.ar      1 UNK         0.0000 
     27 C27         2.9749   52.7773   30.2712 C.ar      1 UNK         0.0000 
     28 C28         1.8653   52.4955   31.0651 C.ar      1 UNK         0.0000 
     29 C29         0.6054   52.9498   30.6837 C.ar      1 UNK         0.0000 
     30 C30         0.4484   53.6909   29.5152 C.ar      1 UNK         0.0000 
     31 C31         1.5554   53.9842   28.7237 C.ar      1 UNK         0.0000 
     32 C32         1.0473   47.2684   18.4002 C.3       1 UNK         0.0000 
     33 C33         1.0537   46.8977   16.9062 C.3       1 UNK         0.0000 
     34 C34         0.2747   47.9321   16.0807 C.3       1 UNK         0.0000 
     35 C35         0.9416   49.3266   16.1213 C.3       1 UNK         0.0000 
     36 H36         3.5276   54.4143   14.0986 H         1 UNK         0.0000 
     37 H37         3.6908   54.1454   15.8298 H         1 UNK         0.0000 
     38 H38         4.1944   52.8974   14.6898 H         1 UNK         0.0000 
     39 H39         1.8059   52.6490   13.9263 H         1 UNK         0.0000 
     40 H40         1.2831   53.8402   15.0916 H         1 UNK         0.0000 
     41 H41         2.4380   52.9699   19.6293 H         1 UNK         0.0000 
     42 H42         4.3078   53.4303   22.1491 H         1 UNK         0.0000 
     43 H43         3.1034   54.2847   21.2226 H         1 UNK         0.0000 
     44 H44         7.0900   54.3941   28.1193 H         1 UNK         0.0000 
     45 H45         3.9451   52.4114   30.5757 H         1 UNK         0.0000 
     46 H46         1.9755   51.9249   31.9764 H         1 UNK         0.0000 
     47 H47        -0.2543   52.7190   31.3009 H         1 UNK         0.0000 
     48 H48        -0.5290   54.0395   29.2257 H         1 UNK         0.0000 
     49 H49         1.4103   54.5694   27.8274 H         1 UNK         0.0000 
     50 H50         0.0510   47.0972   18.8070 H         1 UNK         0.0000 
     51 H51         1.7277   46.6230   18.9536 H         1 UNK         0.0000 
     52 H52         0.6249   45.9032   16.7690 H         1 UNK         0.0000 
     53 H53         2.0817   46.8368   16.5434 H         1 UNK         0.0000 
     54 H54        -0.7452   48.0012   16.4624 H         1 UNK         0.0000 
     55 H55         0.1845   47.5985   15.0454 H         1 UNK         0.0000 
     56 H56         1.8277   49.3180   15.4853 H         1 UNK         0.0000 
     57 H57         0.2589   50.0592   15.6924 H         1 UNK         0.0000 
@<TRIPOS>BOND
     1    1    2 1    
     2    1   36 1    
     3    1   37 1    
     4    1   38 1    
     5    2    3 1    
     6    2   39 1    
     7    2   40 1    
     8    3    4 1    
     9    4    5 2    
    10    4    6 1    
    11    6   10 2    
    12    6    7 1    
    13    7   35 1    
    14    7    8 2    
    15    8    9 1    
    16    8   32 1    
    17    9   10 1    
    18   10   11 am   BACKBONE|DICT|INTERRES
    19   11   12 am   BACKBONE|DICT|INTERRES
    20   11   41 1    
    21   12   13 2    
    22   12   14 1    
    23   14   15 1    
    24   14   42 1    
    25   14   43 1    
    26   15   16 1    
    27   16   25 ar   
    28   16   17 ar   
    29   17   18 ar   
    30   18   19 2    
    31   18   20 ar   
    32   20   24 ar   
    33   20   21 ar   
    34   21   22 ar   
    35   21   44 1    
    36   22   23 ar   
    37   23   24 ar   
    38   23   26 1    
    39   24   25 ar   
    40   26   31 ar   
    41   26   27 ar   
    42   27   28 ar   
    43   27   45 1    
    44   28   29 ar   
    45   28   46 1    
    46   29   30 ar   
    47   29   47 1    
    48   30   31 ar   
    49   30   48 1    
    50   31   49 1    
    51   32   33 1    
    52   32   50 1    
    53   32   51 1    
    54   33   34 1    
    55   33   52 1    
    56   33   53 1    
    57   34   35 1    
    58   34   54 1    
    59   34   55 1    
    60   35   56 1    
    61   35   57 1    
@<TRIPOS>SUBSTRUCTURE
     1 UNK         1 GROUP             0       ****    0 ROOT    
