@<TRIPOS>MOLECULE
ZINC08991889_1478
34   37    1
SMALL
USER_CHARGES


@<TRIPOS>ATOM
      1 C1          5.5961   54.4379   27.3216 C.ar      1 UNK         0.0000 
      2 C2          5.1124   54.4967   28.6351 C.ar      1 UNK         0.0000 
      3 C3          3.7431   54.3642   28.8259 C.ar      1 UNK         0.0000 
      4 C4          2.8886   54.1736   27.7786 C.ar      1 UNK         0.0000 
      5 C5          3.3395   54.0967   26.4650 C.ar      1 UNK         0.0000 
      6 C6          4.7249   54.2443   26.2311 C.ar      1 UNK         0.0000 
      7 N7          5.3336   54.1890   24.9626 N.am      1 UNK         0.0000 
      8 C8          4.7754   54.0968   23.7360 C.2       1 UNK         0.0000 
      9 O9          3.5657   54.0973   23.5115 O.2       1 UNK         0.0000 
     10 C10         5.7826   54.0059   22.5824 C.3       1 UNK         0.0000 
     11 S11         5.1044   53.3933   20.9955 S.3       1 UNK         0.0000 
     12 C12         5.5593   54.5520   19.7345 C.ar      1 UNK         0.0000 
     13 C13         5.5279   54.0820   18.4165 C.ar      1 UNK         0.0000 
     14 C14         5.8403   55.0011   17.3787 C.ar      1 UNK         0.0000 
     15 N15         5.7501   54.4134   16.1451 N.2       1 UNK         0.0000 
     16 C16         5.4266   53.1721   16.4075 C.ar      1 UNK         0.0000 
     17 N17         5.2836   52.8968   17.7478 N.pl3     1 UNK         0.0000 
     18 H18         5.1045   51.9413   18.0825 H         1 UNK         0.0000 
     19 N19         6.1839   56.2705   17.6270 N.ar      1 UNK         0.0000 
     20 C20         6.2229   56.6262   18.9405 C.ar      1 UNK         0.0000 
     21 N21         5.9266   55.8308   20.0035 N.ar      1 UNK         0.0000 
     22 Cl22        6.7044   58.2461   19.2817 Cl        1 UNK         0.0000 
     23 O23         1.6201   54.0517   28.2509 O.3       1 UNK         0.0000 
     24 C24         1.6884   54.3870   29.6119 C.3       1 UNK         0.0000 
     25 O25         3.0404   54.3617   29.9891 O.3       1 UNK         0.0000 
     26 H26         6.6593   54.5452   27.1629 H         1 UNK         0.0000 
     27 H27         5.7920   54.6555   29.4586 H         1 UNK         0.0000 
     28 H28         2.6296   53.9236   25.6724 H         1 UNK         0.0000 
     29 H29         6.3403   54.2151   24.9862 H         1 UNK         0.0000 
     30 H30         6.2312   54.9885   22.4451 H         1 UNK         0.0000 
     31 H31         6.5861   53.3316   22.8808 H         1 UNK         0.0000 
     32 H32         5.2929   52.3764   15.6873 H         1 UNK         0.0000 
     33 H33         1.2941   55.3963   29.7528 H         1 UNK         0.0000 
     34 H34         1.1058   53.6809   30.2072 H         1 UNK         0.0000 
@<TRIPOS>BOND
     1    1    6 ar   
     2    1    2 ar   
     3    1   26 1    
     4    2    3 ar   
     5    2   27 1    
     6    3   25 1    
     7    3    4 ar   
     8    4    5 ar   
     9    4   23 1    
    10    5    6 ar   
    11    5   28 1    
    12    6    7 1    
    13    7    8 am   BACKBONE|DICT|INTERRES
    14    7   29 1    
    15    8    9 2    
    16    8   10 1    
    17   10   11 1    
    18   10   30 1    
    19   10   31 1    
    20   11   12 1    
    21   12   21 ar   
    22   12   13 ar   
    23   13   17 ar   
    24   13   14 ar   
    25   14   15 ar   
    26   14   19 ar   
    27   15   16 ar   
    28   16   17 ar   
    29   16   32 1    
    30   17   18 1    
    31   19   20 ar   
    32   20   21 ar   
    33   20   22 1    
    34   23   24 1    
    35   24   25 1    
    36   24   33 1    
    37   24   34 1    
@<TRIPOS>SUBSTRUCTURE
     1 UNK         1 GROUP             0       ****    0 ROOT    
