ZINC54201083_958
                    3D
 Schrodinger Suite 2024-2.
 49 51  0  0  1  0            999 V2000
    1.8714   53.6733   25.2831 C   0  0  0  0  0  0
    1.5038   52.3339   25.2841 C   0  0  0  0  0  0
    1.3569   51.6561   24.0766 C   0  0  0  0  0  0
    1.4915   52.3340   22.8622 C   0  0  0  0  0  0
    1.8050   53.6961   22.8824 C   0  0  0  0  0  0
    2.0250   54.3564   24.0820 C   0  0  0  0  0  0
    1.2898   51.5697   21.5409 C   0  0  2  0  0  0
    1.4672   50.5136   21.7565 H   0  0  0  0  0  0
    2.2074   51.9634   20.3397 C   0  0  0  0  0  0
    3.6497   52.3461   20.6982 C   0  0  0  0  0  0
    4.3757   51.5417   21.2818 O   0  0  0  0  0  0
    4.0103   53.6029   20.3668 N   0  0  0  0  0  0
    5.1475   54.3080   20.7895 C   0  0  0  0  0  0
    5.5838   54.1890   22.1195 C   0  0  0  0  0  0
    6.7045   54.8847   22.5627 C   0  0  0  0  0  0
    7.4105   55.6951   21.6812 C   0  0  0  0  0  0
    6.9727   55.8428   20.3677 C   0  0  0  0  0  0
    5.8238   55.1802   19.9020 C   0  0  0  0  0  0
    5.3661   55.4388   18.5084 N   0  3  0  0  0  0
    6.1792   55.8935   17.7089 O   0  0  0  0  0  0
    4.1927   55.2359   18.2091 O   0  5  0  0  0  0
   -0.1198   51.7165   21.1137 N   0  0  0  0  0  0
   -1.3692   50.5587   21.5539 S   0  0  0  0  0  0
   -2.5943   50.9861   20.8693 O   0  0  0  0  0  0
   -0.8260   49.2069   21.3777 O   0  0  0  0  0  0
   -1.6585   50.8164   23.3002 C   0  0  0  0  0  0
   -1.4310   49.7884   24.2214 C   0  0  0  0  0  0
   -1.5616   50.0453   25.5847 C   0  0  0  0  0  0
   -1.9359   51.3158   26.0154 C   0  0  0  0  0  0
   -2.2139   52.3235   25.0960 C   0  0  0  0  0  0
   -2.0727   52.0774   23.7343 C   0  0  0  0  0  0
   -2.0359   51.6959   27.8759 Br  0  0  0  0  0  0
    2.0291   54.1787   26.2238 H   0  0  0  0  0  0
    1.3759   51.8082   26.2194 H   0  0  0  0  0  0
    1.1296   50.6008   24.0893 H   0  0  0  0  0  0
    1.9186   54.2461   21.9697 H   0  0  0  0  0  0
    2.3064   55.3961   24.0818 H   0  0  0  0  0  0
    1.7535   52.7924   19.7913 H   0  0  0  0  0  0
    2.2484   51.1398   19.6252 H   0  0  0  0  0  0
    3.4300   54.0856   19.6919 H   0  0  0  0  0  0
    5.0560   53.5540   22.8171 H   0  0  0  0  0  0
    7.0428   54.7755   23.5830 H   0  0  0  0  0  0
    8.3024   56.2008   22.0228 H   0  0  0  0  0  0
    7.5338   56.4892   19.7067 H   0  0  0  0  0  0
   -0.4253   52.6623   20.8772 H   0  0  0  0  0  0
   -1.1134   48.8092   23.8932 H   0  0  0  0  0  0
   -1.3530   49.2715   26.3107 H   0  0  0  0  0  0
   -2.5159   53.2969   25.4453 H   0  0  0  0  0  0
   -2.2576   52.8695   23.0235 H   0  0  0  0  0  0
  1  6  2  0  0  0
  1  2  1  0  0  0
  1 33  1  0  0  0
  2  3  2  0  0  0
  2 34  1  0  0  0
  3  4  1  0  0  0
  3 35  1  0  0  0
  4  5  2  0  0  0
  4  7  1  0  0  0
  5  6  1  0  0  0
  5 36  1  0  0  0
  6 37  1  0  0  0
  7  8  1  0  0  0
  7  9  1  0  0  0
  7 22  1  0  0  0
  9 10  1  0  0  0
  9 38  1  0  0  0
  9 39  1  0  0  0
 10 11  2  0  0  0
 10 12  1  0  0  0
 12 13  1  0  0  0
 12 40  1  0  0  0
 13 18  2  0  0  0
 13 14  1  0  0  0
 14 15  2  0  0  0
 14 41  1  0  0  0
 15 16  1  0  0  0
 15 42  1  0  0  0
 16 17  2  0  0  0
 16 43  1  0  0  0
 17 18  1  0  0  0
 17 44  1  0  0  0
 18 19  1  0  0  0
 19 20  2  0  0  0
 19 21  1  0  0  0
 22 23  1  0  0  0
 22 45  1  0  0  0
 23 24  2  0  0  0
 23 25  2  0  0  0
 23 26  1  0  0  0
 26 31  2  0  0  0
 26 27  1  0  0  0
 27 28  2  0  0  0
 27 46  1  0  0  0
 28 29  1  0  0  0
 28 47  1  0  0  0
 29 30  2  0  0  0
 29 32  1  0  0  0
 30 31  1  0  0  0
 30 48  1  0  0  0
 31 49  1  0  0  0
M  CHG  2  19   1  21  -1
M  END
> <i_i_glide_confnum>
132

> <i_i_glide_lignum>
959

> <i_i_glide_posenum>
5

> <i_i_glide_rotatable_bonds>
9

> <i_m_Source_File_Index>
1684

> <b_m_subgroup_collapsed>
0

> <r_i_docking_score>
-3.12672

> <r_i_glide_ecoul>
-4.15677

> <r_i_glide_eff_state_penalty>
0

> <r_i_glide_einternal>
12.4923

> <r_i_glide_emodel>
-39.9087

> <r_i_glide_energy>
-38.8176

> <r_i_glide_erotb>
0.482269

> <r_i_glide_esite>
-0.0286874

> <r_i_glide_evdw>
-34.6609

> <r_i_glide_gscore>
-3.12672

> <r_i_glide_hbond>
-0.0288396

> <r_i_glide_ligand_efficiency>
-0.100862

> <r_i_glide_ligand_efficiency_ln>
-0.705172

> <r_i_glide_ligand_efficiency_sa>
-0.316846

> <r_i_glide_lipo>
-1.90954

> <r_i_glide_metal>
0

> <r_i_glide_rewards>
0.714629

> <s_i_glide_gridfile>
wee1_glide-grid

> <s_m_Source_File>
wee1_decoys_glide_SP.sdf

> <s_m_Source_Path>
/Users/zhangxujun/Desktop

> <s_m_entry_id>
1959

> <s_m_entry_name>
wee1_decoys_glide_SP.1684

> <s_m_subgroup_title>
wee1_decoys_glide_SP

> <s_m_subgroupid>
wee1_decoys_glide_SP


$$$$
