@<TRIPOS>MOLECULE
ZINC13132295_3600
39   42    1
SMALL
USER_CHARGES


@<TRIPOS>ATOM
      1 C1          6.7044   54.4193   24.7514 C.ar      1 UNK         0.0000 
      2 C2          5.8622   54.5435   25.8525 C.ar      1 UNK         0.0000 
      3 C3          4.4844   54.4350   25.6824 C.ar      1 UNK         0.0000 
      4 C4          3.9436   54.2107   24.4148 C.ar      1 UNK         0.0000 
      5 C5          4.7843   54.0968   23.2882 C.ar      1 UNK         0.0000 
      6 C6          6.1724   54.1883   23.4836 C.ar      1 UNK         0.0000 
      7 C7          4.1684   53.8857   21.8885 C.3       1 UNK         0.0000 
      8 H8          3.3127   54.5596   21.8113 H         1 UNK         0.0000 
      9 C9          3.6466   52.4400   21.6821 C.3       1 UNK         0.0000 
     10 C10         3.0093   52.2562   20.2835 C.3       1 UNK         0.0000 
     11 H11         2.2553   53.0338   20.1444 H         1 UNK         0.0000 
     12 N12         4.0425   52.4967   19.2599 N.pl3     1 UNK         0.0000 
     13 C13         4.9005   53.5627   19.4721 C.ar      1 UNK         0.0000 
     14 N14         4.9845   54.1883   20.6993 N.pl3     1 UNK         0.0000 
     15 N15         5.8919   55.1718   20.5979 N.2       1 UNK         0.0000 
     16 C16         6.3307   55.0237   19.3689 C.ar      1 UNK         0.0000 
     17 N17         5.7777   54.0665   18.6459 N.2       1 UNK         0.0000 
     18 N18         7.3195   55.8091   18.8678 N.pl3     1 UNK         0.0000 
     19 C19         2.1709   50.9702   20.1426 C.ar      1 UNK         0.0000 
     20 C20         2.3045   50.1274   19.0318 C.ar      1 UNK         0.0000 
     21 C21         1.5563   48.9576   18.9279 C.ar      1 UNK         0.0000 
     22 C22         0.6478   48.6296   19.9283 C.ar      1 UNK         0.0000 
     23 C23         0.4695   49.4739   21.0206 C.ar      1 UNK         0.0000 
     24 C24         1.2217   50.6422   21.1236 C.ar      1 UNK         0.0000 
     25 F25        -0.0718   47.4881   19.8355 F         1 UNK         0.0000 
     26 Cl26        2.2204   54.0963   24.2853 Cl        1 UNK         0.0000 
     27 H27         7.7724   54.4976   24.8785 H         1 UNK         0.0000 
     28 H28         6.2750   54.7123   26.8367 H         1 UNK         0.0000 
     29 H29         3.8330   54.5236   26.5399 H         1 UNK         0.0000 
     30 H30         6.8622   54.0869   22.6601 H         1 UNK         0.0000 
     31 H31         4.4486   51.7136   21.8254 H         1 UNK         0.0000 
     32 H32         2.9389   52.2066   22.4730 H         1 UNK         0.0000 
     33 H33         4.4488   51.6385   18.8732 H         1 UNK         0.0000 
     34 H34         7.7899   56.4945   19.4357 H         1 UNK         0.0000 
     35 H35         7.6330   55.7027   17.9151 H         1 UNK         0.0000 
     36 H36         3.0047   50.3581   18.2416 H         1 UNK         0.0000 
     37 H37         1.6903   48.3098   18.0737 H         1 UNK         0.0000 
     38 H38        -0.2475   49.2204   21.7872 H         1 UNK         0.0000 
     39 H39         1.0520   51.2854   21.9722 H         1 UNK         0.0000 
@<TRIPOS>BOND
     1    1    6 ar   
     2    1    2 ar   
     3    1   27 1    
     4    2    3 ar   
     5    2   28 1    
     6    3    4 ar   
     7    3   29 1    
     8    4    5 ar   
     9    4   26 1    
    10    5    6 ar   
    11    5    7 1    
    12    6   30 1    
    13    7    8 1    
    14    7   14 1    
    15    7    9 1    
    16    9   10 1    
    17    9   31 1    
    18    9   32 1    
    19   10   11 1    
    20   10   12 1    
    21   10   19 1    
    22   12   13 1    
    23   12   33 1    
    24   13   17 ar   
    25   13   14 ar   
    26   14   15 ar   
    27   15   16 ar   
    28   16   17 ar   
    29   16   18 1    
    30   18   34 1    
    31   18   35 1    
    32   19   24 ar   
    33   19   20 ar   
    34   20   21 ar   
    35   20   36 1    
    36   21   22 ar   
    37   21   37 1    
    38   22   23 ar   
    39   22   25 1    
    40   23   24 ar   
    41   23   38 1    
    42   24   39 1    
@<TRIPOS>SUBSTRUCTURE
     1 UNK         1 GROUP             0       ****    0 ROOT    
