@<TRIPOS>MOLECULE
ZINC20426679_3465
40   41    1
SMALL
USER_CHARGES


@<TRIPOS>ATOM
      1 C1         -1.8969   47.7593   21.5129 C.3       1 UNK         0.0000 
      2 C2         -1.6671   47.9490   23.0002 C.ar      1 UNK         0.0000 
      3 C3         -2.0956   46.9847   23.9178 C.ar      1 UNK         0.0000 
      4 C4         -1.8774   47.1945   25.2813 C.ar      1 UNK         0.0000 
      5 N5         -1.2660   48.3251   25.6817 N.pl3     1 UNK         0.0000 
      6 C6         -0.8433   49.2952   24.8464 C.ar      1 UNK         0.0000 
      7 C7         -1.0460   49.1095   23.4718 C.ar      1 UNK         0.0000 
      8 N8         -0.2442   50.4480   25.4385 N.pl3     1 UNK         0.0000 
      9 C9         -0.0021   51.7826   24.8270 C.3       1 UNK         0.0000 
     10 C10        -1.3887   52.4803   24.5154 C.3       1 UNK         0.0000 
     11 F11        -1.2349   53.6964   23.9890 F         1 UNK         0.0000 
     12 F12        -2.1634   51.7953   23.6741 F         1 UNK         0.0000 
     13 F13        -2.1242   52.6407   25.6172 F         1 UNK         0.0000 
     14 C14         0.7628   52.6627   25.8759 C.3       1 UNK         0.0000 
     15 F15         0.0625   52.8967   26.9872 F         1 UNK         0.0000 
     16 F16         1.9038   52.0967   26.2714 F         1 UNK         0.0000 
     17 F17         1.1065   53.8435   25.3596 F         1 UNK         0.0000 
     18 N18         0.9400   51.6436   23.6816 N.am      1 UNK         0.0000 
     19 C19         0.8053   51.9755   22.3799 C.2       1 UNK         0.0000 
     20 O20        -0.2729   52.0967   21.8011 O.2       1 UNK         0.0000 
     21 C21         2.0896   52.2614   21.6463 C.ar      1 UNK         0.0000 
     22 C22         3.0357   53.1283   22.2204 C.ar      1 UNK         0.0000 
     23 C23         4.1891   53.4882   21.5241 C.ar      1 UNK         0.0000 
     24 C24         4.4153   52.9833   20.2460 C.ar      1 UNK         0.0000 
     25 C25         3.5030   52.0966   19.6813 C.ar      1 UNK         0.0000 
     26 C26         2.3493   51.7213   20.3704 C.ar      1 UNK         0.0000 
     27 Cl27        1.2856   50.5894   19.5983 Cl        1 UNK         0.0000 
     28 Cl28        5.8132   53.4616   19.3530 Cl        1 UNK         0.0000 
     29 H29        -2.7705   47.1351   21.3221 H         1 UNK         0.0000 
     30 H30        -1.0235   47.3035   21.0449 H         1 UNK         0.0000 
     31 H31        -2.0868   48.7177   21.0270 H         1 UNK         0.0000 
     32 H32        -2.6000   46.0958   23.5739 H         1 UNK         0.0000 
     33 H33        -2.1734   46.5232   26.0767 H         1 UNK         0.0000 
     34 H34        -0.7370   49.8496   22.7588 H         1 UNK         0.0000 
     35 H35        -0.1167   50.4128   26.4416 H         1 UNK         0.0000 
     36 H36         1.8750   51.3753   23.9514 H         1 UNK         0.0000 
     37 H37         2.8665   53.5660   23.1945 H         1 UNK         0.0000 
     38 H38         4.8938   54.1771   21.9661 H         1 UNK         0.0000 
     39 H39         3.6947   51.6967   18.6952 H         1 UNK         0.0000 
     40 H40        -1.1778   48.4677   26.6915 H         1 UNK         0.0000 
@<TRIPOS>BOND
     1    1    2 1    
     2    1   29 1    
     3    1   30 1    
     4    1   31 1    
     5    2    7 ar   
     6    2    3 ar   
     7    3    4 ar   
     8    3   32 1    
     9    4    5 ar   
    10    4   33 1    
    11    5    6 ar   
    12    5   40 1    
    13    6    7 ar   
    14    6    8 1    
    15    7   34 1    
    16    8    9 1    
    17    8   35 1    
    18    9   10 1    
    19    9   14 1    
    20    9   18 1    
    21   10   11 1    
    22   10   12 1    
    23   10   13 1    
    24   14   15 1    
    25   14   16 1    
    26   14   17 1    
    27   18   19 am   BACKBONE|DICT|INTERRES
    28   18   36 1    
    29   19   20 2    
    30   19   21 1    
    31   21   26 ar   
    32   21   22 ar   
    33   22   23 ar   
    34   22   37 1    
    35   23   24 ar   
    36   23   38 1    
    37   24   25 ar   
    38   24   28 1    
    39   25   26 ar   
    40   25   39 1    
    41   26   27 1    
@<TRIPOS>SUBSTRUCTURE
     1 UNK         1 GROUP             0       ****    0 ROOT    
