@<TRIPOS>MOLECULE
ZINC40659310_3393
56   59    1
SMALL
USER_CHARGES


@<TRIPOS>ATOM
      1 C1          5.8510   55.5375   16.6532 C.3       1 UNK         0.0000 
      2 C2          4.6389   54.6257   16.6463 C.ar      1 UNK         0.0000 
      3 C3          3.4373   55.0598   17.2095 C.ar      1 UNK         0.0000 
      4 C4          2.3326   54.2123   17.2269 C.ar      1 UNK         0.0000 
      5 C5          2.4330   52.9283   16.6870 C.ar      1 UNK         0.0000 
      6 C6          3.6304   52.4954   16.1154 C.ar      1 UNK         0.0000 
      7 C7          4.7352   53.3431   16.1003 C.ar      1 UNK         0.0000 
      8 S8          1.0323   51.8134   16.7553 S.o2      1 UNK         0.0000 
      9 O9          0.0294   52.4129   17.6464 O.2       1 UNK         0.0000 
     10 O10         0.6969   51.4806   15.3659 O.2       1 UNK         0.0000 
     11 N11         1.6292   50.3358   17.5201 N.pl3     1 UNK         0.0000 
     12 N12         2.3043   50.4771   18.7382 N.pl3     1 UNK         0.0000 
     13 C13         1.5920   50.5888   19.9387 C.ar      1 UNK         0.0000 
     14 C14         2.0285   51.4606   20.9509 C.ar      1 UNK         0.0000 
     15 C15         1.2171   51.5612   22.1055 C.ar      1 UNK         0.0000 
     16 N16         0.1375   50.7435   22.2711 N.ar      1 UNK         0.0000 
     17 C17        -0.1825   49.9166   21.2508 C.ar      1 UNK         0.0000 
     18 N18         0.4790   49.8180   20.0763 N.ar      1 UNK         0.0000 
     19 N19         1.4278   52.4808   23.1334 N.pl3     1 UNK         0.0000 
     20 C20         0.8242   52.3994   24.4737 C.3       1 UNK         0.0000 
     21 C21         1.5966   53.1269   25.6078 C.3       1 UNK         0.0000 
     22 N22         2.9761   53.5295   25.2837 N.pl3     1 UNK         0.0000 
     23 C23         3.0178   54.2262   23.9870 C.3       1 UNK         0.0000 
     24 C24         1.9779   53.8223   22.9276 C.3       1 UNK         0.0000 
     25 C25         3.9906   53.6969   26.2332 C.ar      1 UNK         0.0000 
     26 C26         3.8038   53.3584   27.5847 C.ar      1 UNK         0.0000 
     27 C27         4.8681   53.3784   28.4820 C.ar      1 UNK         0.0000 
     28 C28         6.1350   53.7386   28.0387 C.ar      1 UNK         0.0000 
     29 C29         6.3390   54.1200   26.7217 C.ar      1 UNK         0.0000 
     30 C30         5.2772   54.0970   25.8281 C.ar      1 UNK         0.0000 
     31 F31         7.1836   53.6967   28.8815 F         1 UNK         0.0000 
     32 N32         3.3235   52.1549   20.8267 N.pl3     1 UNK         0.0000 
     33 O33         3.4958   52.8947   19.8651 O.co2     1 UNK         0.0000 
     34 O34         4.1748   51.9359   21.6814 O.co2     1 UNK         0.0000 
     35 H35         6.7718   54.9591   16.7414 H         1 UNK         0.0000 
     36 H36         5.8273   56.2178   17.5059 H         1 UNK         0.0000 
     37 H37         5.8923   56.1248   15.7354 H         1 UNK         0.0000 
     38 H38         3.3587   56.0465   17.6417 H         1 UNK         0.0000 
     39 H39         1.4119   54.5497   17.6800 H         1 UNK         0.0000 
     40 H40         3.7139   51.4976   15.7052 H         1 UNK         0.0000 
     41 H41         5.6656   52.9947   15.6743 H         1 UNK         0.0000 
     42 H42         2.1023   49.6865   16.8800 H         1 UNK         0.0000 
     43 H43         3.1377   51.0452   18.6058 H         1 UNK         0.0000 
     44 H44        -1.0539   49.2922   21.3795 H         1 UNK         0.0000 
     45 H45        -0.2270   52.6921   24.4836 H         1 UNK         0.0000 
     46 H46         0.8840   51.3379   24.7185 H         1 UNK         0.0000 
     47 H47         1.1210   54.0960   25.7349 H         1 UNK         0.0000 
     48 H48         1.4569   52.6086   26.5540 H         1 UNK         0.0000 
     49 H49         3.9535   53.9147   23.5260 H         1 UNK         0.0000 
     50 H50         3.0105   55.3002   24.1121 H         1 UNK         0.0000 
     51 H51         2.3113   54.0558   21.9193 H         1 UNK         0.0000 
     52 H52         1.1060   54.4688   23.0472 H         1 UNK         0.0000 
     53 H53         2.8475   53.0403   27.9632 H         1 UNK         0.0000 
     54 H54         4.7148   53.0839   29.5096 H         1 UNK         0.0000 
     55 H55         7.3257   54.3978   26.3862 H         1 UNK         0.0000 
     56 H56         5.4945   54.3593   24.8065 H         1 UNK         0.0000 
@<TRIPOS>BOND
     1    1    2 1    
     2    1   35 1    
     3    1   36 1    
     4    1   37 1    
     5    2    7 ar   
     6    2    3 ar   
     7    3    4 ar   
     8    3   38 1    
     9    4    5 ar   
    10    4   39 1    
    11    5    6 ar   
    12    5    8 1    
    13    6    7 ar   
    14    6   40 1    
    15    7   41 1    
    16    8    9 2    
    17    8   10 2    
    18    8   11 1    
    19   11   12 1    
    20   11   42 1    
    21   12   13 1    
    22   12   43 1    
    23   13   18 ar   
    24   13   14 ar   
    25   14   15 ar   
    26   14   32 1    
    27   15   16 ar   
    28   15   19 1    
    29   16   17 ar   
    30   17   18 ar   
    31   17   44 1    
    32   19   24 1    
    33   19   20 1    
    34   20   21 1    
    35   20   45 1    
    36   20   46 1    
    37   21   22 1    
    38   21   47 1    
    39   21   48 1    
    40   22   23 1    
    41   22   25 1    
    42   23   24 1    
    43   23   49 1    
    44   23   50 1    
    45   24   51 1    
    46   24   52 1    
    47   25   30 ar   
    48   25   26 ar   
    49   26   27 ar   
    50   26   53 1    
    51   27   28 ar   
    52   27   54 1    
    53   28   29 ar   
    54   28   31 1    
    55   29   30 ar   
    56   29   55 1    
    57   30   56 1    
    58   32   33 2    
    59   32   34 1    
@<TRIPOS>SUBSTRUCTURE
     1 UNK         1 GROUP             0       ****    0 ROOT    
