@<TRIPOS>MOLECULE
ZINC26809050_2763
59   63    1
SMALL
USER_CHARGES


@<TRIPOS>ATOM
      1 C1         -0.1008   51.9965   27.4047 C.2       1 UNK         0.0000 
      2 C2          0.6472   52.6714   28.3712 C.2       1 UNK         0.0000 
      3 C3          1.5469   53.5690   27.8086 C.2       1 UNK         0.0000 
      4 S4          1.5052   53.5741   26.0780 S.3       1 UNK         0.0000 
      5 C5          0.2272   52.3931   26.1168 C.2       1 UNK         0.0000 
      6 S6          2.6792   54.6071   28.7210 S.o2      1 UNK         0.0000 
      7 O7          2.7353   54.0637   30.0791 O.2       1 UNK         0.0000 
      8 O8          2.2994   56.0010   28.4733 O.2       1 UNK         0.0000 
      9 N9          4.1893   54.2226   27.8750 N.pl3     1 UNK         0.0000 
     10 C10         5.3766   54.1139   28.7399 C.3       1 UNK         0.0000 
     11 C11         6.4582   53.2965   28.0151 C.3       1 UNK         0.0000 
     12 C12         6.7124   53.7337   26.5477 C.3       1 UNK         0.0000 
     13 C13         5.3939   53.9730   25.7352 C.3       1 UNK         0.0000 
     14 H14         4.8738   53.0487   25.5231 H         1 UNK         0.0000 
     15 C15         4.4953   54.8864   26.5821 C.3       1 UNK         0.0000 
     16 C16         5.7325   54.6654   24.3849 C.2       1 UNK         0.0000 
     17 O17         6.6293   55.5057   24.3689 O.2       1 UNK         0.0000 
     18 N18         5.0196   54.4958   23.2511 N.am      1 UNK         0.0000 
     19 N19         4.3984   53.2995   22.9271 N.am      1 UNK         0.0000 
     20 C20         3.0560   53.2772   22.7235 C.2       1 UNK         0.0000 
     21 O21         2.3155   54.1877   23.1024 O.2       1 UNK         0.0000 
     22 C22         2.4332   52.0406   21.9717 C.3       1 UNK         0.0000 
     23 C23         1.9088   50.9760   22.9902 C.3       1 UNK         0.0000 
     24 C24         1.2432   49.7852   22.2466 C.3       1 UNK         0.0000 
     25 C25         2.2795   49.1248   21.3014 C.3       1 UNK         0.0000 
     26 C26         2.7778   50.1643   20.2614 C.3       1 UNK         0.0000 
     27 C27         3.4550   51.3529   21.0001 C.3       1 UNK         0.0000 
     28 C28         1.5778   50.6809   19.4296 C.3       1 UNK         0.0000 
     29 C29         0.5397   51.3338   20.3735 C.3       1 UNK         0.0000 
     30 C30         0.0410   50.2918   21.4059 C.3       1 UNK         0.0000 
     31 C31         1.2036   52.5092   21.1280 C.3       1 UNK         0.0000 
     32 H32        -0.8559   51.2549   27.6374 H         1 UNK         0.0000 
     33 H33         0.5350   52.5094   29.4343 H         1 UNK         0.0000 
     34 H34        -0.2196   52.0396   25.2033 H         1 UNK         0.0000 
     35 H35         5.0950   53.6472   29.6834 H         1 UNK         0.0000 
     36 H36         5.7907   55.1089   28.9029 H         1 UNK         0.0000 
     37 H37         6.1430   52.2547   28.0274 H         1 UNK         0.0000 
     38 H38         7.3891   53.3205   28.5853 H         1 UNK         0.0000 
     39 H39         7.3197   52.9563   26.0851 H         1 UNK         0.0000 
     40 H40         7.2808   54.6599   26.6529 H         1 UNK         0.0000 
     41 H41         5.1395   55.7029   26.8459 H         1 UNK         0.0000 
     42 H42         3.5884   55.2337   26.0890 H         1 UNK         0.0000 
     43 H43         5.2962   54.9923   22.4185 H         1 UNK         0.0000 
     44 H44         5.0159   52.6592   22.4472 H         1 UNK         0.0000 
     45 H45         1.1974   51.4265   23.6751 H         1 UNK         0.0000 
     46 H46         2.7059   50.5795   23.6148 H         1 UNK         0.0000 
     47 H47         0.8969   49.0494   22.9724 H         1 UNK         0.0000 
     48 H48         3.1112   48.7333   21.8848 H         1 UNK         0.0000 
     49 H49         1.8459   48.2590   20.7982 H         1 UNK         0.0000 
     50 H50         3.5068   49.7027   19.5905 H         1 UNK         0.0000 
     51 H51         4.3232   50.9803   21.5492 H         1 UNK         0.0000 
     52 H52         3.8351   52.0650   20.2638 H         1 UNK         0.0000 
     53 H53         1.1237   49.8573   18.8748 H         1 UNK         0.0000 
     54 H54         1.9214   51.3955   18.6803 H         1 UNK         0.0000 
     55 H55        -0.3054   51.7054   19.7889 H         1 UNK         0.0000 
     56 H56        -0.7179   50.7395   22.0530 H         1 UNK         0.0000 
     57 H57        -0.4482   49.4583   20.8974 H         1 UNK         0.0000 
     58 H58         1.5200   53.2929   20.4295 H         1 UNK         0.0000 
     59 H59         0.4513   52.9789   21.7708 H         1 UNK         0.0000 
@<TRIPOS>BOND
     1    1    5 2    
     2    1    2 1    
     3    1   32 1    
     4    2    3 2    
     5    2   33 1    
     6    3    4 1    
     7    3    6 1    
     8    4    5 1    
     9    5   34 1    
    10    6    7 2    
    11    6    8 2    
    12    6    9 1    
    13    9   15 1    
    14    9   10 1    
    15   10   11 1    
    16   10   35 1    
    17   10   36 1    
    18   11   12 1    
    19   11   37 1    
    20   11   38 1    
    21   12   13 1    
    22   12   39 1    
    23   12   40 1    
    24   13   14 1    
    25   13   15 1    
    26   13   16 1    
    27   15   41 1    
    28   15   42 1    
    29   16   17 2    
    30   16   18 am   BACKBONE|DICT|INTERRES
    31   18   19 1    
    32   18   43 1    
    33   19   20 am   BACKBONE|DICT|INTERRES
    34   19   44 1    
    35   20   21 2    
    36   20   22 1    
    37   22   27 1    
    38   22   31 1    
    39   22   23 1    
    40   23   24 1    
    41   23   45 1    
    42   23   46 1    
    43   24   30 1    
    44   24   25 1    
    45   24   47 1    
    46   25   26 1    
    47   25   48 1    
    48   25   49 1    
    49   26   27 1    
    50   26   28 1    
    51   26   50 1    
    52   27   51 1    
    53   27   52 1    
    54   28   29 1    
    55   28   53 1    
    56   28   54 1    
    57   29   30 1    
    58   29   31 1    
    59   29   55 1    
    60   30   56 1    
    61   30   57 1    
    62   31   58 1    
    63   31   59 1    
@<TRIPOS>SUBSTRUCTURE
     1 UNK         1 GROUP             0       ****    0 ROOT    
