@<TRIPOS>MOLECULE
ZINC58903563_2533
58   62    1
SMALL
USER_CHARGES


@<TRIPOS>ATOM
      1 C1          0.9740   53.5026   23.7873 C.3       1 UNK         0.0000 
      2 C2          1.7153   52.7424   22.7131 C.ar      1 UNK         0.0000 
      3 C3          2.9141   53.0507   22.0417 C.ar      1 UNK         0.0000 
      4 C4          3.0018   52.0537   21.0910 C.ar      1 UNK         0.0000 
      5 N5          1.9540   51.1722   21.2615 N.pl3     1 UNK         0.0000 
      6 N6          1.1948   51.6121   22.2834 N.2       1 UNK         0.0000 
      7 C7          1.5747   49.9974   20.5399 C.ar      1 UNK         0.0000 
      8 C8          0.3520   49.3539   20.8114 C.ar      1 UNK         0.0000 
      9 C9         -0.0238   48.2123   20.1078 C.ar      1 UNK         0.0000 
     10 C10         0.8196   47.6960   19.1299 C.ar      1 UNK         0.0000 
     11 C11         2.0305   48.3182   18.8476 C.ar      1 UNK         0.0000 
     12 C12         2.4036   49.4635   19.5438 C.ar      1 UNK         0.0000 
     13 O13         3.9255   51.9631   20.0817 O.3       1 UNK         0.0000 
     14 C14         4.6995   53.0737   19.9188 C.2       1 UNK         0.0000 
     15 C15         4.7838   54.1350   20.7700 C.2       1 UNK         0.0000 
     16 C16         3.9683   54.1652   22.0989 C.3       1 UNK         0.0000 
     17 H17         3.4121   55.1036   22.1297 H         1 UNK         0.0000 
     18 C18         4.7548   54.1753   23.4224 C.ar      1 UNK         0.0000 
     19 C19         6.1331   53.9461   23.4719 C.ar      1 UNK         0.0000 
     20 C20         6.8349   54.0967   24.6620 C.ar      1 UNK         0.0000 
     21 C21         6.1659   54.3920   25.8489 C.ar      1 UNK         0.0000 
     22 C22         4.7791   54.5776   25.8286 C.ar      1 UNK         0.0000 
     23 C23         4.1010   54.4967   24.6158 C.ar      1 UNK         0.0000 
     24 O24         4.0239   54.8832   26.9357 O.3       1 UNK         0.0000 
     25 C25         4.4147   54.3488   28.1961 C.3       1 UNK         0.0000 
     26 C26         3.1553   54.1869   29.0332 C.ar      1 UNK         0.0000 
     27 C27         2.7376   52.9166   29.4417 C.ar      1 UNK         0.0000 
     28 C28         1.5553   52.7740   30.1647 C.ar      1 UNK         0.0000 
     29 C29         0.7987   53.9003   30.4816 C.ar      1 UNK         0.0000 
     30 C30         1.2130   55.1694   30.0817 C.ar      1 UNK         0.0000 
     31 C31         2.3898   55.3120   29.3527 C.ar      1 UNK         0.0000 
     32 C32         5.6018   55.3011   20.4575 C.2       1 UNK         0.0000 
     33 O33         6.3107   55.8893   21.2679 O.2       1 UNK         0.0000 
     34 N34         5.5044   55.7692   19.2125 N.am      1 UNK         0.0000 
     35 N35         5.3898   52.8967   18.7510 N.pl3     1 UNK         0.0000 
     36 H36         1.1042   54.5787   23.6805 H         1 UNK         0.0000 
     37 H37        -0.1017   53.3264   23.7503 H         1 UNK         0.0000 
     38 H38         1.3047   53.2172   24.7862 H         1 UNK         0.0000 
     39 H39        -0.3233   49.7287   21.5669 H         1 UNK         0.0000 
     40 H40        -0.9653   47.7287   20.3227 H         1 UNK         0.0000 
     41 H41         0.5321   46.8114   18.5813 H         1 UNK         0.0000 
     42 H42         2.6858   47.9259   18.0820 H         1 UNK         0.0000 
     43 H43         3.3525   49.9041   19.2818 H         1 UNK         0.0000 
     44 H44         6.6865   53.6979   22.5805 H         1 UNK         0.0000 
     45 H45         7.9043   53.9819   24.6344 H         1 UNK         0.0000 
     46 H46         6.7227   54.4894   26.7687 H         1 UNK         0.0000 
     47 H47         3.0524   54.7256   24.6161 H         1 UNK         0.0000 
     48 H48         4.9177   53.3840   28.0926 H         1 UNK         0.0000 
     49 H49         5.1095   55.0242   28.6976 H         1 UNK         0.0000 
     50 H50         3.3144   52.0403   29.1830 H         1 UNK         0.0000 
     51 H51         1.2185   51.7955   30.4740 H         1 UNK         0.0000 
     52 H52        -0.1125   53.7852   31.0504 H         1 UNK         0.0000 
     53 H53         0.6296   56.0407   30.3397 H         1 UNK         0.0000 
     54 H54         2.7043   56.2954   29.0334 H         1 UNK         0.0000 
     55 H55         4.8854   55.3223   18.5534 H         1 UNK         0.0000 
     56 H56         6.0255   56.5905   18.9479 H         1 UNK         0.0000 
     57 H57         6.0968   53.5515   18.4541 H         1 UNK         0.0000 
     58 H58         5.4205   51.9495   18.3582 H         1 UNK         0.0000 
@<TRIPOS>BOND
     1    1    2 1    
     2    1   36 1    
     3    1   37 1    
     4    1   38 1    
     5    2    6 ar   
     6    2    3 ar   
     7    3   16 1    
     8    3    4 ar   
     9    4    5 ar   
    10    4   13 1    
    11    5    6 ar   
    12    5    7 1    
    13    7   12 ar   
    14    7    8 ar   
    15    8    9 ar   
    16    8   39 1    
    17    9   10 ar   
    18    9   40 1    
    19   10   11 ar   
    20   10   41 1    
    21   11   12 ar   
    22   11   42 1    
    23   12   43 1    
    24   13   14 1    
    25   14   15 2    
    26   14   35 1    
    27   15   16 1    
    28   15   32 1    
    29   16   17 1    
    30   16   18 1    
    31   18   23 ar   
    32   18   19 ar   
    33   19   20 ar   
    34   19   44 1    
    35   20   21 ar   
    36   20   45 1    
    37   21   22 ar   
    38   21   46 1    
    39   22   23 ar   
    40   22   24 1    
    41   23   47 1    
    42   24   25 1    
    43   25   26 1    
    44   25   48 1    
    45   25   49 1    
    46   26   31 ar   
    47   26   27 ar   
    48   27   28 ar   
    49   27   50 1    
    50   28   29 ar   
    51   28   51 1    
    52   29   30 ar   
    53   29   52 1    
    54   30   31 ar   
    55   30   53 1    
    56   31   54 1    
    57   32   33 2    
    58   32   34 am   BACKBONE|DICT|INTERRES
    59   34   55 1    
    60   34   56 1    
    61   35   57 1    
    62   35   58 1    
@<TRIPOS>SUBSTRUCTURE
     1 UNK         1 GROUP             0       ****    0 ROOT    
