ZINC01112723_1497
                    3D
 Schrodinger Suite 2024-2.
 43 46  0  0  1  0            999 V2000
   -0.4964   52.0938   30.8818 C   0  0  0  0  0  0
   -0.0071   52.2581   29.5716 O   0  0  0  0  0  0
    1.0611   53.0402   29.3175 C   0  0  0  0  0  0
    1.6668   53.6912   30.1752 O   0  0  0  0  0  0
    1.4139   53.0480   27.8664 C   0  0  0  0  0  0
    0.7645   52.2050   26.9543 C   0  0  0  0  0  0
    1.1043   52.2314   25.6105 C   0  0  0  0  0  0
    2.0939   53.0964   25.1350 C   0  0  0  0  0  0
    2.7562   53.9201   26.0578 C   0  0  0  0  0  0
    2.4210   53.9006   27.4064 C   0  0  0  0  0  0
    2.4849   53.1335   23.6797 C   0  0  0  0  0  0
    2.1624   52.2373   22.6153 C   0  0  0  0  0  0
    2.8940   52.7497   21.5624 C   0  0  0  0  0  0
    3.5289   53.8704   21.9747 N   0  0  0  0  0  0
    4.1133   54.4589   21.4001 H   0  0  0  0  0  0
    3.2786   54.1117   23.2574 N   0  0  0  0  0  0
    3.0387   52.2597   20.2961 O   0  0  0  0  0  0
    2.3774   51.0915   20.0911 C   0  0  0  0  0  0
    1.5784   50.4398   20.9746 C   0  0  0  0  0  0
    1.2868   50.9790   22.3980 C   0  0  2  0  0  0
    1.6095   50.2165   23.1102 H   0  0  0  0  0  0
   -0.2149   51.1445   22.6896 C   0  0  0  0  0  0
   -0.8012   52.3980   22.9212 C   0  0  0  0  0  0
   -2.1521   52.4924   23.2589 C   0  0  0  0  0  0
   -2.8971   51.3165   23.3431 C   0  0  0  0  0  0
   -2.3625   50.0892   23.1231 N   0  0  0  0  0  0
   -1.0433   50.0192   22.8114 C   0  0  0  0  0  0
    0.9925   49.2013   20.5679 C   0  0  0  0  0  0
    0.5170   48.2149   20.1922 N   0  0  0  0  0  0
    2.7042   50.6719   18.8355 N   0  0  0  0  0  0
   -1.2978   51.3547   30.8817 H   0  0  0  0  0  0
    0.2842   51.7333   31.5547 H   0  0  0  0  0  0
   -0.8875   53.0286   31.2815 H   0  0  0  0  0  0
   -0.0021   51.5079   27.2659 H   0  0  0  0  0  0
    0.6036   51.5334   24.9704 H   0  0  0  0  0  0
    3.5407   54.5903   25.7402 H   0  0  0  0  0  0
    2.9523   54.5562   28.0833 H   0  0  0  0  0  0
   -0.2047   53.2966   22.8831 H   0  0  0  0  0  0
   -2.6072   53.4516   23.4571 H   0  0  0  0  0  0
   -3.9454   51.3422   23.6031 H   0  0  0  0  0  0
   -0.6507   49.0218   22.6781 H   0  0  0  0  0  0
    2.2519   49.8669   18.4271 H   0  0  0  0  0  0
    3.6377   50.8674   18.4767 H   0  0  0  0  0  0
  1  2  1  0  0  0
  1 31  1  0  0  0
  1 32  1  0  0  0
  1 33  1  0  0  0
  2  3  1  0  0  0
  3  4  2  0  0  0
  3  5  1  0  0  0
  5 10  2  0  0  0
  5  6  1  0  0  0
  6  7  2  0  0  0
  6 34  1  0  0  0
  7  8  1  0  0  0
  7 35  1  0  0  0
  8  9  2  0  0  0
  8 11  1  0  0  0
  9 10  1  0  0  0
  9 36  1  0  0  0
 10 37  1  0  0  0
 11 16  2  0  0  0
 11 12  1  0  0  0
 12 20  1  0  0  0
 12 13  2  0  0  0
 13 14  1  0  0  0
 13 17  1  0  0  0
 14 15  1  0  0  0
 14 16  1  0  0  0
 17 18  1  0  0  0
 18 19  2  0  0  0
 18 30  1  0  0  0
 19 20  1  0  0  0
 19 28  1  0  0  0
 20 21  1  0  0  0
 20 22  1  0  0  0
 22 27  2  0  0  0
 22 23  1  0  0  0
 23 24  2  0  0  0
 23 38  1  0  0  0
 24 25  1  0  0  0
 24 39  1  0  0  0
 25 26  2  0  0  0
 25 40  1  0  0  0
 26 27  1  0  0  0
 27 41  1  0  0  0
 28 29  3  0  0  0
 30 42  1  0  0  0
 30 43  1  0  0  0
M  END
> <i_i_glide_confnum>
14

> <i_i_glide_lignum>
1498

> <i_i_glide_posenum>
388

> <i_i_glide_rotatable_bonds>
5

> <i_m_Source_File_Index>
679

> <b_m_subgroup_collapsed>
0

> <r_i_docking_score>
-4.78899

> <r_i_glide_ecoul>
-5.51715

> <r_i_glide_eff_state_penalty>
0

> <r_i_glide_einternal>
2.9758

> <r_i_glide_emodel>
-47.2404

> <r_i_glide_energy>
-35.806

> <r_i_glide_erotb>
0.41587

> <r_i_glide_esite>
-0.1

> <r_i_glide_evdw>
-30.2889

> <r_i_glide_gscore>
-4.78899

> <r_i_glide_hbond>
-0.271106

> <r_i_glide_ligand_efficiency>
-0.171035

> <r_i_glide_ligand_efficiency_ln>
-1.10544

> <r_i_glide_ligand_efficiency_sa>
-0.519364

> <r_i_glide_lipo>
-1.41164

> <r_i_glide_metal>
0

> <r_i_glide_rewards>
-1.0801

> <s_i_glide_gridfile>
wee1_glide-grid

> <s_m_Source_File>
wee1_decoys_glide_SP.sdf

> <s_m_Source_Path>
/Users/zhangxujun/Desktop

> <s_m_entry_id>
954

> <s_m_entry_name>
wee1_decoys_glide_SP.679

> <s_m_subgroup_title>
wee1_decoys_glide_SP

> <s_m_subgroupid>
wee1_decoys_glide_SP


$$$$
