@<TRIPOS>MOLECULE
ZINC40381431_4686
36   38    1
SMALL
USER_CHARGES


@<TRIPOS>ATOM
      1 C1          5.4867   54.0960   23.0807 C.ar      1 UNK         0.0000 
      2 C2          5.1129   54.1258   24.4261 C.ar      1 UNK         0.0000 
      3 C3          3.7608   54.1325   24.7870 C.ar      1 UNK         0.0000 
      4 C4          2.7813   54.1564   23.7770 C.ar      1 UNK         0.0000 
      5 C5          3.1602   54.0983   22.4382 C.ar      1 UNK         0.0000 
      6 C6          4.5095   54.0713   22.0803 C.ar      1 UNK         0.0000 
      7 S7          4.9810   53.9449   20.3529 S.o2      1 UNK         0.0000 
      8 O8          3.9045   54.4705   19.5176 O.2       1 UNK         0.0000 
      9 O9          6.3290   54.4971   20.2177 O.2       1 UNK         0.0000 
     10 N10         5.0434   52.2222   20.0818 N.pl3     1 UNK         0.0000 
     11 F11         1.4628   54.2503   24.0678 F         1 UNK         0.0000 
     12 N12         3.4510   54.1829   26.1594 N.am      1 UNK         0.0000 
     13 C13         2.5412   53.4066   26.7858 C.2       1 UNK         0.0000 
     14 O14         1.8925   52.5325   26.2081 O.2       1 UNK         0.0000 
     15 C15         2.4176   53.5803   28.3213 C.3       1 UNK         0.0000 
     16 H16         3.3917   53.8924   28.7022 H         1 UNK         0.0000 
     17 C17         1.2581   54.5472   28.7151 C.3       1 UNK         0.0000 
     18 C18         0.3350   53.6556   29.5961 C.3       1 UNK         0.0000 
     19 H19        -0.6860   54.0139   29.7236 H         1 UNK         0.0000 
     20 C20         0.4474   52.2899   28.9429 C.3       1 UNK         0.0000 
     21 C21         1.9740   52.2628   29.0351 C.3       1 UNK         0.0000 
     22 H22         2.4239   51.3387   28.6678 H         1 UNK         0.0000 
     23 C23         2.0915   52.4965   30.5399 C.2       1 UNK         0.0000 
     24 C24         1.0771   53.3189   30.8813 C.2       1 UNK         0.0000 
     25 H25         6.5354   54.0713   22.8188 H         1 UNK         0.0000 
     26 H26         5.8823   54.1277   25.1853 H         1 UNK         0.0000 
     27 H27         2.3896   54.0927   21.6824 H         1 UNK         0.0000 
     28 H28         4.1001   51.8336   20.0156 H         1 UNK         0.0000 
     29 H29         5.5052   51.9581   19.1986 H         1 UNK         0.0000 
     30 H30         4.0109   54.8000   26.7247 H         1 UNK         0.0000 
     31 H31         0.7042   54.9145   27.8502 H         1 UNK         0.0000 
     32 H32         1.6188   55.4176   29.2667 H         1 UNK         0.0000 
     33 H33         0.0584   52.2742   27.9235 H         1 UNK         0.0000 
     34 H34        -0.0511   51.4832   29.4906 H         1 UNK         0.0000 
     35 H35         2.8571   52.0767   31.1756 H         1 UNK         0.0000 
     36 H36         0.8159   53.7108   31.8541 H         1 UNK         0.0000 
@<TRIPOS>BOND
     1    1    6 ar   
     2    1    2 ar   
     3    1   25 1    
     4    2    3 ar   
     5    2   26 1    
     6    3    4 ar   
     7    3   12 1    
     8    4    5 ar   
     9    4   11 1    
    10    5    6 ar   
    11    5   27 1    
    12    6    7 1    
    13    7    8 2    
    14    7    9 2    
    15    7   10 1    
    16   10   28 1    
    17   10   29 1    
    18   12   13 am   BACKBONE|DICT|INTERRES
    19   12   30 1    
    20   13   14 2    
    21   13   15 1    
    22   15   16 1    
    23   15   21 1    
    24   15   17 1    
    25   17   18 1    
    26   17   31 1    
    27   17   32 1    
    28   18   19 1    
    29   18   24 1    
    30   18   20 1    
    31   20   21 1    
    32   20   33 1    
    33   20   34 1    
    34   21   22 1    
    35   21   23 1    
    36   23   24 2    
    37   23   35 1    
    38   24   36 1    
@<TRIPOS>SUBSTRUCTURE
     1 UNK         1 GROUP             0       ****    0 ROOT    
