@<TRIPOS>MOLECULE
ZINC38546994_2147
50   53    1
SMALL
USER_CHARGES


@<TRIPOS>ATOM
      1 C1          0.7601   50.1417   23.2058 C.3       1 UNK         0.0000 
      2 C2          1.5735   50.2752   21.9331 C.ar      1 UNK         0.0000 
      3 C3          1.4522   49.3194   20.9191 C.ar      1 UNK         0.0000 
      4 C4          2.2427   49.4329   19.7746 C.ar      1 UNK         0.0000 
      5 N5          3.1044   50.4617   19.6776 N.pl3     1 UNK         0.0000 
      6 C6          3.2602   51.4188   20.6134 C.ar      1 UNK         0.0000 
      7 C7          2.4728   51.3367   21.7696 C.ar      1 UNK         0.0000 
      8 N8          4.2211   52.4374   20.3356 N.pl3     1 UNK         0.0000 
      9 C9          4.2140   53.8262   20.8379 C.3       1 UNK         0.0000 
     10 H10         3.1797   54.0966   20.6206 H         1 UNK         0.0000 
     11 C11         4.3306   54.0039   22.3612 C.ar      1 UNK         0.0000 
     12 C12         5.5327   53.8376   23.0635 C.ar      1 UNK         0.0000 
     13 C13         5.5842   54.0967   24.4348 C.ar      1 UNK         0.0000 
     14 C14         4.3979   54.4079   25.0973 C.ar      1 UNK         0.0000 
     15 N15         3.2062   54.5057   24.4580 N.ar      1 UNK         0.0000 
     16 C16         3.1977   54.3542   23.1101 C.ar      1 UNK         0.0000 
     17 C17         5.1029   54.7436   19.9768 C.2       1 UNK         0.0000 
     18 C18         6.4193   55.1699   20.2548 C.2       1 UNK         0.0000 
     19 C19         7.0371   55.9575   19.2879 C.2       1 UNK         0.0000 
     20 S20         5.9263   56.2690   17.9955 S.3       1 UNK         0.0000 
     21 C21         4.7151   55.2888   18.7460 C.2       1 UNK         0.0000 
     22 N22         3.5127   55.1696   18.0814 N.am      1 UNK         0.0000 
     23 C23         3.1027   54.0376   17.4765 C.2       1 UNK         0.0000 
     24 O24         3.7472   52.9887   17.4264 O.2       1 UNK         0.0000 
     25 C25         1.8003   54.1357   16.8708 C.2       1 UNK         0.0000 
     26 C26         1.0355   53.1773   16.2160 C.2       1 UNK         0.0000 
     27 C27        -0.1517   53.8000   15.8234 C.2       1 UNK         0.0000 
     28 C28        -0.0602   55.1142   16.2489 C.2       1 UNK         0.0000 
     29 O29         1.1225   55.3200   16.8819 O.3       1 UNK         0.0000 
     30 C30         8.4452   56.5016   19.2589 C.3       1 UNK         0.0000 
     31 H31         0.8640   49.1347   23.6122 H         1 UNK         0.0000 
     32 H32         1.0886   50.8360   23.9811 H         1 UNK         0.0000 
     33 H33        -0.2984   50.3067   22.9998 H         1 UNK         0.0000 
     34 H34         0.7619   48.4960   21.0223 H         1 UNK         0.0000 
     35 H35         2.2387   48.7421   18.9417 H         1 UNK         0.0000 
     36 H36         2.5741   52.0476   22.5649 H         1 UNK         0.0000 
     37 H37         4.8175   52.2799   19.5315 H         1 UNK         0.0000 
     38 H38         6.4290   53.5076   22.5652 H         1 UNK         0.0000 
     39 H39         6.5110   53.9938   24.9797 H         1 UNK         0.0000 
     40 H40         4.3863   54.5651   26.1657 H         1 UNK         0.0000 
     41 H41         2.2401   54.4970   22.6296 H         1 UNK         0.0000 
     42 H42         6.9657   54.8964   21.1396 H         1 UNK         0.0000 
     43 H43         2.9159   55.9799   18.0182 H         1 UNK         0.0000 
     44 H44         1.3146   52.1472   16.0447 H         1 UNK         0.0000 
     45 H45        -0.9732   53.3484   15.2865 H         1 UNK         0.0000 
     46 H46        -0.7134   55.9713   16.1698 H         1 UNK         0.0000 
     47 H47         8.9944   56.2815   20.1753 H         1 UNK         0.0000 
     48 H48         9.0201   56.0703   18.4387 H         1 UNK         0.0000 
     49 H49         8.4588   57.5825   19.1220 H         1 UNK         0.0000 
     50 H50         3.7202   50.4966   18.8637 H         1 UNK         0.0000 
@<TRIPOS>BOND
     1    1    2 1    
     2    1   31 1    
     3    1   32 1    
     4    1   33 1    
     5    2    7 ar   
     6    2    3 ar   
     7    3    4 ar   
     8    3   34 1    
     9    4    5 ar   
    10    4   35 1    
    11    5    6 ar   
    12    5   50 1    
    13    6    7 ar   
    14    6    8 1    
    15    7   36 1    
    16    8    9 1    
    17    8   37 1    
    18    9   10 1    
    19    9   11 1    
    20    9   17 1    
    21   11   16 ar   
    22   11   12 ar   
    23   12   13 ar   
    24   12   38 1    
    25   13   14 ar   
    26   13   39 1    
    27   14   15 ar   
    28   14   40 1    
    29   15   16 ar   
    30   16   41 1    
    31   17   21 2    
    32   17   18 1    
    33   18   19 2    
    34   18   42 1    
    35   19   20 1    
    36   19   30 1    
    37   20   21 1    
    38   21   22 am   BACKBONE|DICT|INTERRES
    39   22   23 am   BACKBONE|DICT|INTERRES
    40   22   43 1    
    41   23   24 2    
    42   23   25 1    
    43   25   29 1    
    44   25   26 2    
    45   26   27 1    
    46   26   44 1    
    47   27   28 2    
    48   27   45 1    
    49   28   29 1    
    50   28   46 1    
    51   30   47 1    
    52   30   48 1    
    53   30   49 1    
@<TRIPOS>SUBSTRUCTURE
     1 UNK         1 GROUP             0       ****    0 ROOT    
