@<TRIPOS>MOLECULE
ZINC08920348_358
67   70    1
SMALL
USER_CHARGES


@<TRIPOS>ATOM
      1 C1          6.6986   53.6970   28.3532 C.3       1 UNK         0.0000 
      2 C2          5.7922   54.8954   27.9964 C.3       1 UNK         0.0000 
      3 C3          4.3598   53.5858   26.3508 C.3       1 UNK         0.0000 
      4 C4          3.6136   53.6982   24.9989 C.3       1 UNK         0.0000 
      5 C5          4.5508   54.1182   23.8531 C.2       1 UNK         0.0000 
      6 C6          5.7933   54.6984   24.1453 C.2       1 UNK         0.0000 
      7 S7          6.7044   55.0889   22.7434 S.3       1 UNK         0.0000 
      8 C8          5.4417   54.4894   21.7097 C.2       1 UNK         0.0000 
      9 C9          4.3601   53.9487   22.4428 C.2       1 UNK         0.0000 
     10 C10         3.2569   53.2461   21.7951 C.2       1 UNK         0.0000 
     11 O11         3.3885   52.7574   20.6711 O.2       1 UNK         0.0000 
     12 N12         2.1071   53.1721   22.4844 N.am      1 UNK         0.0000 
     13 C13         0.9186   52.4878   21.9912 C.3       1 UNK         0.0000 
     14 N14         5.5940   54.4961   20.3223 N.am      1 UNK         0.0000 
     15 C15         6.3620   55.3302   19.5863 C.2       1 UNK         0.0000 
     16 O16         6.9170   56.3383   20.0337 O.2       1 UNK         0.0000 
     17 C17         6.4613   54.9993   18.1145 C.ar      1 UNK         0.0000 
     18 C18         6.3976   53.6714   17.6580 C.ar      1 UNK         0.0000 
     19 C19         6.5837   53.3769   16.3095 C.ar      1 UNK         0.0000 
     20 C20         6.8304   54.4097   15.4021 C.ar      1 UNK         0.0000 
     21 C21         6.8671   55.7331   15.8398 C.ar      1 UNK         0.0000 
     22 C22         6.6841   56.0261   17.1876 C.ar      1 UNK         0.0000 
     23 S23         7.1792   54.0882   13.6724 S.o2      1 UNK         0.0000 
     24 O24         6.2093   54.8800   12.9081 O.2       1 UNK         0.0000 
     25 O25         8.6126   54.3646   13.5323 O.2       1 UNK         0.0000 
     26 N26         6.8168   52.3554   13.3761 N.pl3     1 UNK         0.0000 
     27 C27         5.3682   52.0225   13.3326 C.3       1 UNK         0.0000 
     28 C28         5.1205   50.5775   13.8082 C.3       1 UNK         0.0000 
     29 C29         6.0246   49.5517   13.0898 C.3       1 UNK         0.0000 
     30 C30         7.5063   49.9885   13.0597 C.3       1 UNK         0.0000 
     31 C31         7.6520   51.4310   12.5283 C.3       1 UNK         0.0000 
     32 H32         7.2523   51.4709   11.5129 H         1 UNK         0.0000 
     33 C33         9.1334   51.8436   12.4370 C.3       1 UNK         0.0000 
     34 C34         6.3928   54.8940   25.5177 C.3       1 UNK         0.0000 
     35 H35         7.2155   53.8956   29.2818 H         1 UNK         0.0000 
     36 H36         7.4975   53.4992   27.6440 H         1 UNK         0.0000 
     37 H37         6.1231   52.7810   28.4799 H         1 UNK         0.0000 
     38 H38         4.9190   54.9477   28.6491 H         1 UNK         0.0000 
     39 H39         6.3048   55.8505   28.0790 H         1 UNK         0.0000 
     40 H40         5.0296   52.7309   26.4269 H         1 UNK         0.0000 
     41 H41         3.6427   53.5544   27.1743 H         1 UNK         0.0000 
     42 H42         3.1059   52.7528   24.8071 H         1 UNK         0.0000 
     43 H43         2.8270   54.4486   25.0878 H         1 UNK         0.0000 
     44 H44         2.0158   53.6918   23.3425 H         1 UNK         0.0000 
     45 H45         0.0947   52.6014   22.6954 H         1 UNK         0.0000 
     46 H46         0.6080   52.8964   21.0285 H         1 UNK         0.0000 
     47 H47         1.1159   51.4216   21.8668 H         1 UNK         0.0000 
     48 H48         4.9217   53.9310   19.8184 H         1 UNK         0.0000 
     49 H49         6.2359   52.8443   18.3379 H         1 UNK         0.0000 
     50 H50         6.5633   52.3439   15.9950 H         1 UNK         0.0000 
     51 H51         7.0617   56.5341   15.1398 H         1 UNK         0.0000 
     52 H52         6.7413   57.0589   17.5056 H         1 UNK         0.0000 
     53 H53         4.7989   52.7406   13.9248 H         1 UNK         0.0000 
     54 H54         5.0403   52.0859   12.2939 H         1 UNK         0.0000 
     55 H55         5.2921   50.5278   14.8817 H         1 UNK         0.0000 
     56 H56         4.0713   50.3145   13.6699 H         1 UNK         0.0000 
     57 H57         5.9335   48.5752   13.5688 H         1 UNK         0.0000 
     58 H58         5.6693   49.4209   12.0668 H         1 UNK         0.0000 
     59 H59         7.9055   49.9313   14.0737 H         1 UNK         0.0000 
     60 H60         8.0721   49.2937   12.4389 H         1 UNK         0.0000 
     61 H61         9.7205   51.0696   11.9386 H         1 UNK         0.0000 
     62 H62         9.2677   52.7452   11.8393 H         1 UNK         0.0000 
     63 H63         9.5777   51.9932   13.4222 H         1 UNK         0.0000 
     64 H64         6.8605   55.8715   25.6452 H         1 UNK         0.0000 
     65 H65         7.1038   54.0934   25.7063 H         1 UNK         0.0000 
     66 N66         5.2399   54.8351   26.5482 N.4       1 UNK         0.0000 
     67 H67         4.6477   55.6457   26.4200 H         1 UNK         0.0000 
@<TRIPOS>BOND
     1    1    2 1    
     2    1   35 1    
     3    1   36 1    
     4    1   37 1    
     5    2   38 1    
     6    2   39 1    
     7    2   66 1    
     8    3    4 1    
     9    3   40 1    
    10    3   41 1    
    11    3   66 1    
    12    4    5 1    
    13    4   42 1    
    14    4   43 1    
    15    5    9 1    
    16    5    6 2    
    17    6    7 1    
    18    6   34 1    
    19    7    8 1    
    20    8    9 2    
    21    8   14 am   BACKBONE|DICT|INTERRES
    22    9   10 1    
    23   10   11 2    
    24   10   12 am   BACKBONE|DICT|INTERRES
    25   12   13 1    
    26   12   44 1    
    27   13   45 1    
    28   13   46 1    
    29   13   47 1    
    30   14   15 am   BACKBONE|DICT|INTERRES
    31   14   48 1    
    32   15   16 2    
    33   15   17 1    
    34   17   22 ar   
    35   17   18 ar   
    36   18   19 ar   
    37   18   49 1    
    38   19   20 ar   
    39   19   50 1    
    40   20   21 ar   
    41   20   23 1    
    42   21   22 ar   
    43   21   51 1    
    44   22   52 1    
    45   23   24 2    
    46   23   25 2    
    47   23   26 1    
    48   26   31 1    
    49   26   27 1    
    50   27   28 1    
    51   27   53 1    
    52   27   54 1    
    53   28   29 1    
    54   28   55 1    
    55   28   56 1    
    56   29   30 1    
    57   29   57 1    
    58   29   58 1    
    59   30   31 1    
    60   30   59 1    
    61   30   60 1    
    62   31   32 1    
    63   31   33 1    
    64   33   61 1    
    65   33   62 1    
    66   33   63 1    
    67   34   64 1    
    68   34   65 1    
    69   34   66 1    
    70   66   67 1    
@<TRIPOS>SUBSTRUCTURE
     1 UNK         1 GROUP             0       ****    0 ROOT    
