@<TRIPOS>MOLECULE
ZINC65074689_2180
58   61    1
SMALL
USER_CHARGES


@<TRIPOS>ATOM
      1 C1          2.0260   55.7227   28.7555 C.3       1 UNK         0.0000 
      2 C2          1.3142   54.4394   29.1396 C.ar      1 UNK         0.0000 
      3 C3          0.6718   54.3455   30.3759 C.ar      1 UNK         0.0000 
      4 C4         -0.0029   53.1762   30.7240 C.ar      1 UNK         0.0000 
      5 C5         -0.0452   52.1001   29.8393 C.ar      1 UNK         0.0000 
      6 C6          0.6136   52.1727   28.6097 C.ar      1 UNK         0.0000 
      7 C7          1.2897   53.3487   28.2637 C.ar      1 UNK         0.0000 
      8 C8          0.6438   50.9465   27.7106 C.3       1 UNK         0.0000 
      9 N9          0.4445   51.2044   26.2806 N.pl3     1 UNK         0.0000 
     10 C10        -0.6679   51.0023   25.5680 C.2       1 UNK         0.0000 
     11 N11        -1.7788   50.5547   26.1791 N.pl3     1 UNK         0.0000 
     12 C12        -3.0589   50.3413   25.5215 C.3       1 UNK         0.0000 
     13 C13        -3.0354   51.0916   24.1916 C.3       1 UNK         0.0000 
     14 N14        -1.8088   50.7648   23.4773 N.3       1 UNK         0.0000 
     15 C15        -0.5917   51.3566   24.0605 C.3       1 UNK         0.0000 
     16 C16        -0.5253   52.8961   23.8416 C.3       1 UNK         0.0000 
     17 C17         0.8824   53.5426   23.9392 C.3       1 UNK         0.0000 
     18 N18         1.9019   52.7910   23.1582 N.pl3     1 UNK         0.0000 
     19 C19         1.9783   51.3507   23.4573 C.3       1 UNK         0.0000 
     20 C20         0.6029   50.6643   23.3332 C.3       1 UNK         0.0000 
     21 S21         3.4313   53.5845   22.6466 S.o2      1 UNK         0.0000 
     22 O22         4.1910   52.6257   21.8352 O.2       1 UNK         0.0000 
     23 O23         3.1044   54.8966   22.1028 O.2       1 UNK         0.0000 
     24 C24         4.4746   53.9661   24.0666 C.ar      1 UNK         0.0000 
     25 C25         3.9599   54.1995   25.3442 C.ar      1 UNK         0.0000 
     26 C26         4.8179   54.4965   26.4007 C.ar      1 UNK         0.0000 
     27 C27         6.1874   54.5962   26.1742 C.ar      1 UNK         0.0000 
     28 C28         6.7043   54.4101   24.8949 C.ar      1 UNK         0.0000 
     29 C29         5.8490   54.0965   23.8426 C.ar      1 UNK         0.0000 
     30 H30         2.3041   55.7274   27.7027 H         1 UNK         0.0000 
     31 H31         1.3760   56.5818   28.9259 H         1 UNK         0.0000 
     32 H32         2.9217   55.8622   29.3605 H         1 UNK         0.0000 
     33 H33         0.6903   55.1768   31.0666 H         1 UNK         0.0000 
     34 H34        -0.4956   53.0955   31.6820 H         1 UNK         0.0000 
     35 H35        -0.5795   51.2055   30.1269 H         1 UNK         0.0000 
     36 H36         1.8096   53.4088   27.3218 H         1 UNK         0.0000 
     37 H37         1.6317   50.4961   27.7958 H         1 UNK         0.0000 
     38 H38        -0.0956   50.2073   28.0190 H         1 UNK         0.0000 
     39 H39         1.2383   51.5590   25.7698 H         1 UNK         0.0000 
     40 H40        -3.1738   49.2664   25.3749 H         1 UNK         0.0000 
     41 H41        -3.8584   50.6915   26.1747 H         1 UNK         0.0000 
     42 H42        -3.8955   50.8080   23.5826 H         1 UNK         0.0000 
     43 H43        -3.1282   52.1690   24.3387 H         1 UNK         0.0000 
     44 H44        -1.8699   51.0366   22.5057 H         1 UNK         0.0000 
     45 H45        -0.9507   53.1277   22.8739 H         1 UNK         0.0000 
     46 H46        -1.1896   53.3799   24.5554 H         1 UNK         0.0000 
     47 H47         0.8750   54.5868   23.6258 H         1 UNK         0.0000 
     48 H48         1.1237   53.4665   24.9945 H         1 UNK         0.0000 
     49 H49         2.7042   50.8676   22.8011 H         1 UNK         0.0000 
     50 H50         2.3040   51.2674   24.4817 H         1 UNK         0.0000 
     51 H51         0.6819   49.6310   23.6753 H         1 UNK         0.0000 
     52 H52         0.3935   50.5933   22.2636 H         1 UNK         0.0000 
     53 H53         2.9079   54.1657   25.5385 H         1 UNK         0.0000 
     54 H54         4.4271   54.6563   27.3943 H         1 UNK         0.0000 
     55 H55         6.8473   54.8270   26.9984 H         1 UNK         0.0000 
     56 H56         7.7647   54.4965   24.7170 H         1 UNK         0.0000 
     57 H57         6.2573   53.9487   22.8526 H         1 UNK         0.0000 
     58 H58        -1.6918   50.2661   27.1467 H         1 UNK         0.0000 
@<TRIPOS>BOND
     1    1    2 1    
     2    1   30 1    
     3    1   31 1    
     4    1   32 1    
     5    2    7 ar   
     6    2    3 ar   
     7    3    4 ar   
     8    3   33 1    
     9    4    5 ar   
    10    4   34 1    
    11    5    6 ar   
    12    5   35 1    
    13    6    7 ar   
    14    6    8 1    
    15    7   36 1    
    16    8    9 1    
    17    8   37 1    
    18    8   38 1    
    19    9   10 1    
    20    9   39 1    
    21   10   15 1    
    22   10   11 2    
    23   11   12 1    
    24   11   58 1    
    25   12   13 1    
    26   12   40 1    
    27   12   41 1    
    28   13   14 1    
    29   13   42 1    
    30   13   43 1    
    31   14   15 1    
    32   14   44 1    
    33   15   20 1    
    34   15   16 1    
    35   16   17 1    
    36   16   45 1    
    37   16   46 1    
    38   17   18 1    
    39   17   47 1    
    40   17   48 1    
    41   18   19 1    
    42   18   21 1    
    43   19   20 1    
    44   19   49 1    
    45   19   50 1    
    46   20   51 1    
    47   20   52 1    
    48   21   22 2    
    49   21   23 2    
    50   21   24 1    
    51   24   29 ar   
    52   24   25 ar   
    53   25   26 ar   
    54   25   53 1    
    55   26   27 ar   
    56   26   54 1    
    57   27   28 ar   
    58   27   55 1    
    59   28   29 ar   
    60   28   56 1    
    61   29   57 1    
@<TRIPOS>SUBSTRUCTURE
     1 UNK         1 GROUP             0       ****    0 ROOT    
