@<TRIPOS>MOLECULE
ZINC39923351_222
41   44    1
SMALL
USER_CHARGES


@<TRIPOS>ATOM
      1 C1          0.5491   53.9718   30.2541 C.2       1 UNK         0.0000 
      2 C2         -0.2438   52.8967   30.8298 C.2       1 UNK         0.0000 
      3 C3         -0.7144   51.8650   30.0817 C.2       1 UNK         0.0000 
      4 C4         -0.4280   51.7992   28.7119 C.2       1 UNK         0.0000 
      5 N5         -0.7748   50.8967   27.8336 N.pl3     1 UNK         0.0000 
      6 C6         -0.1874   51.2167   26.5304 C.3       1 UNK         0.0000 
      7 C7          0.5887   52.4923   26.8115 C.2       1 UNK         0.0000 
      8 C8          0.3634   52.7832   28.1113 C.2       1 UNK         0.0000 
      9 C9          0.8433   53.9042   28.9407 C.2       1 UNK         0.0000 
     10 C10         1.4320   53.2542   25.9039 C.2       1 UNK         0.0000 
     11 C11         1.6863   52.9871   24.6019 C.2       1 UNK         0.0000 
     12 C12         2.5646   53.8495   23.8437 C.2       1 UNK         0.0000 
     13 O13         3.1044   54.8720   24.2770 O.2       1 UNK         0.0000 
     14 N14         2.7179   53.3534   22.5884 N.am      1 UNK         0.0000 
     15 C15         2.0377   52.2302   22.2110 C.2       1 UNK         0.0000 
     16 S16         1.9873   51.4187   20.7542 S.2       1 UNK         0.0000 
     17 S17         1.1125   51.6655   23.5750 S.3       1 UNK         0.0000 
     18 N18         3.5044   54.0967   21.6817 N.am      1 UNK         0.0000 
     19 C19         4.8375   53.8803   21.6052 C.2       1 UNK         0.0000 
     20 O20         5.4579   53.1329   22.3665 O.2       1 UNK         0.0000 
     21 C21         5.5586   54.6799   20.5476 C.ar      1 UNK         0.0000 
     22 C22         5.0335   54.7522   19.2473 C.ar      1 UNK         0.0000 
     23 C23         5.7073   55.4510   18.2468 C.ar      1 UNK         0.0000 
     24 C24         6.9198   56.0769   18.5262 C.ar      1 UNK         0.0000 
     25 C25         7.4546   56.0152   19.8112 C.ar      1 UNK         0.0000 
     26 C26         6.7763   55.3354   20.8238 C.ar      1 UNK         0.0000 
     27 O27         7.3234   55.3457   22.0817 O.3       1 UNK         0.0000 
     28 H28         0.8836   54.7999   30.8629 H         1 UNK         0.0000 
     29 H29        -0.4618   52.9194   31.8867 H         1 UNK         0.0000 
     30 H30        -1.2956   51.0931   30.5733 H         1 UNK         0.0000 
     31 H31         0.4377   50.3714   26.2371 H         1 UNK         0.0000 
     32 H32        -1.0043   51.3412   25.8185 H         1 UNK         0.0000 
     33 H33         1.4291   54.7096   28.5215 H         1 UNK         0.0000 
     34 H34         1.9063   54.1224   26.3381 H         1 UNK         0.0000 
     35 H35         2.9520   54.5692   20.9769 H         1 UNK         0.0000 
     36 H36         4.1083   54.2529   18.9921 H         1 UNK         0.0000 
     37 H37         5.2955   55.4945   17.2488 H         1 UNK         0.0000 
     38 H38         7.4459   56.6070   17.7454 H         1 UNK         0.0000 
     39 H39         8.4004   56.4967   20.0131 H         1 UNK         0.0000 
     40 H40         8.2203   55.6857   22.1436 H         1 UNK         0.0000 
     41 H41        -1.2951   50.0272   28.0364 H         1 UNK         0.0000 
@<TRIPOS>BOND
     1    1    9 2    
     2    1    2 1    
     3    1   28 1    
     4    2    3 2    
     5    2   29 1    
     6    3    4 1    
     7    3   30 1    
     8    4    8 1    
     9    4    5 2    
    10    5    6 1    
    11    5   41 1    
    12    6    7 1    
    13    6   31 1    
    14    6   32 1    
    15    7    8 2    
    16    7   10 1    
    17    8    9 1    
    18    9   33 1    
    19   10   11 2    
    20   10   34 1    
    21   11   17 1    
    22   11   12 1    
    23   12   13 2    
    24   12   14 am   BACKBONE|DICT|INTERRES
    25   14   15 am   BACKBONE|DICT|INTERRES
    26   14   18 1    
    27   15   16 2    
    28   15   17 1    
    29   18   19 am   BACKBONE|DICT|INTERRES
    30   18   35 1    
    31   19   20 2    
    32   19   21 1    
    33   21   26 ar   
    34   21   22 ar   
    35   22   23 ar   
    36   22   36 1    
    37   23   24 ar   
    38   23   37 1    
    39   24   25 ar   
    40   24   38 1    
    41   25   26 ar   
    42   25   39 1    
    43   26   27 1    
    44   27   40 1    
@<TRIPOS>SUBSTRUCTURE
     1 UNK         1 GROUP             0       ****    0 ROOT    
