@<TRIPOS>MOLECULE
ZINC25152205_5337
59   62    1
SMALL
USER_CHARGES


@<TRIPOS>ATOM
      1 C1          5.4129   53.2825   20.1565 C.3       1 UNK         0.0000 
      2 C2          6.1106   54.5113   20.7808 C.3       1 UNK         0.0000 
      3 H3          7.1937   54.4967   20.6585 H         1 UNK         0.0000 
      4 C4          5.9118   55.8411   20.0089 C.2       1 UNK         0.0000 
      5 O5          6.3044   56.8966   20.5147 O.2       1 UNK         0.0000 
      6 N6          5.3872   55.7249   18.7678 N.am      1 UNK         0.0000 
      7 C7          5.2188   56.6579   17.7263 C.ar      1 UNK         0.0000 
      8 C8          5.9058   57.8819   17.6817 C.ar      1 UNK         0.0000 
      9 C9          5.7563   58.7347   16.5891 C.ar      1 UNK         0.0000 
     10 C10         4.9067   58.3942   15.5432 C.ar      1 UNK         0.0000 
     11 C11         4.2151   57.1878   15.5786 C.ar      1 UNK         0.0000 
     12 C12         4.3672   56.3013   16.6546 C.ar      1 UNK         0.0000 
     13 C13         3.6162   54.9602   16.6276 C.3       1 UNK         0.0000 
     14 F14         4.4909   53.9553   16.6853 F         1 UNK         0.0000 
     15 F15         2.8073   54.8755   17.6817 F         1 UNK         0.0000 
     16 F16         2.8763   54.7997   15.5286 F         1 UNK         0.0000 
     17 Cl17        4.7168   59.4597   14.1988 Cl        1 UNK         0.0000 
     18 N18         6.0098   54.6899   22.3267 N.4       1 UNK         0.0000 
     19 C19         4.5660   54.5030   22.8583 C.3       1 UNK         0.0000 
     20 C20         4.6072   54.8967   24.3522 C.3       1 UNK         0.0000 
     21 C21         5.4510   53.8977   25.1434 C.3       1 UNK         0.0000 
     22 C22         6.8953   53.9799   24.5842 C.3       1 UNK         0.0000 
     23 C23         6.9422   53.6967   23.0770 C.3       1 UNK         0.0000 
     24 C24         5.4334   54.2561   26.6513 C.2       1 UNK         0.0000 
     25 O25         6.3752   54.8967   27.1272 O.2       1 UNK         0.0000 
     26 C26         4.3495   53.6787   27.5084 C.ar      1 UNK         0.0000 
     27 C27         4.5918   53.5459   28.8817 C.ar      1 UNK         0.0000 
     28 C28         3.6259   53.0201   29.7406 C.ar      1 UNK         0.0000 
     29 C29         2.3836   52.6508   29.2340 C.ar      1 UNK         0.0000 
     30 C30         2.1175   52.7841   27.8630 C.ar      1 UNK         0.0000 
     31 C31         3.0929   53.2967   27.0061 C.ar      1 UNK         0.0000 
     32 O32         0.8827   52.4819   27.3233 O.3       1 UNK         0.0000 
     33 C33         0.0731   51.6339   28.1487 C.3       1 UNK         0.0000 
     34 C34         0.1231   52.0967   29.6259 C.3       1 UNK         0.0000 
     35 O35         1.4728   52.0967   30.1104 O.3       1 UNK         0.0000 
     36 H36         5.8437   53.0363   19.1836 H         1 UNK         0.0000 
     37 H37         5.5044   52.4035   20.7931 H         1 UNK         0.0000 
     38 H38         4.3448   53.4709   20.0314 H         1 UNK         0.0000 
     39 H39         5.0401   54.8070   18.5304 H         1 UNK         0.0000 
     40 H40         6.5766   58.1854   18.4699 H         1 UNK         0.0000 
     41 H41         6.2850   59.6781   16.5570 H         1 UNK         0.0000 
     42 H42         3.5666   56.9442   14.7496 H         1 UNK         0.0000 
     43 H43         3.9218   55.1757   22.2870 H         1 UNK         0.0000 
     44 H44         4.2487   53.4723   22.6890 H         1 UNK         0.0000 
     45 H45         5.1044   55.8592   24.4817 H         1 UNK         0.0000 
     46 H46         3.5833   54.9798   24.7169 H         1 UNK         0.0000 
     47 H47         5.0414   52.8971   25.0429 H         1 UNK         0.0000 
     48 H48         7.5044   53.2326   25.0852 H         1 UNK         0.0000 
     49 H49         7.3554   54.9550   24.7603 H         1 UNK         0.0000 
     50 H50         6.6211   52.6804   22.8527 H         1 UNK         0.0000 
     51 H51         7.9538   53.8764   22.7202 H         1 UNK         0.0000 
     52 H52         5.5514   53.8385   29.2817 H         1 UNK         0.0000 
     53 H53         3.8430   52.8967   30.7911 H         1 UNK         0.0000 
     54 H54         2.8485   53.3779   25.9591 H         1 UNK         0.0000 
     55 H55         0.4372   50.6085   28.0774 H         1 UNK         0.0000 
     56 H56        -0.9529   51.6381   27.7800 H         1 UNK         0.0000 
     57 H57        -0.4956   51.4516   30.2520 H         1 UNK         0.0000 
     58 H58        -0.2826   53.1073   29.6969 H         1 UNK         0.0000 
     59 H59         6.3178   55.6358   22.5182 H         1 UNK         0.0000 
@<TRIPOS>BOND
     1    1    2 1    
     2    1   36 1    
     3    1   37 1    
     4    1   38 1    
     5    2    3 1    
     6    2    4 1    
     7    2   18 1    
     8    4    5 2    
     9    4    6 am   BACKBONE|DICT|INTERRES
    10    6    7 1    
    11    6   39 1    
    12    7   12 ar   
    13    7    8 ar   
    14    8    9 ar   
    15    8   40 1    
    16    9   10 ar   
    17    9   41 1    
    18   10   11 ar   
    19   10   17 1    
    20   11   12 ar   
    21   11   42 1    
    22   12   13 1    
    23   13   14 1    
    24   13   15 1    
    25   13   16 1    
    26   18   23 1    
    27   18   19 1    
    28   18   59 1    
    29   19   20 1    
    30   19   43 1    
    31   19   44 1    
    32   20   21 1    
    33   20   45 1    
    34   20   46 1    
    35   21   22 1    
    36   21   24 1    
    37   21   47 1    
    38   22   23 1    
    39   22   48 1    
    40   22   49 1    
    41   23   50 1    
    42   23   51 1    
    43   24   25 2    
    44   24   26 1    
    45   26   31 ar   
    46   26   27 ar   
    47   27   28 ar   
    48   27   52 1    
    49   28   29 ar   
    50   28   53 1    
    51   29   35 1    
    52   29   30 ar   
    53   30   31 ar   
    54   30   32 1    
    55   31   54 1    
    56   32   33 1    
    57   33   34 1    
    58   33   55 1    
    59   33   56 1    
    60   34   35 1    
    61   34   57 1    
    62   34   58 1    
@<TRIPOS>SUBSTRUCTURE
     1 UNK         1 GROUP             0       ****    0 ROOT    
