@<TRIPOS>MOLECULE
ZINC13309697_5792
52   55    1
SMALL
USER_CHARGES


@<TRIPOS>ATOM
      1 C1         -0.9018   48.0239   21.3158 C.3       1 UNK         0.0000 
      2 O2         -0.8952   48.2128   22.7269 O.3       1 UNK         0.0000 
      3 C3         -1.8947   47.6527   23.5009 C.ar      1 UNK         0.0000 
      4 C4         -2.8245   46.7244   22.9941 C.ar      1 UNK         0.0000 
      5 C5         -3.7810   46.1413   23.8238 C.ar      1 UNK         0.0000 
      6 C6         -3.8076   46.4493   25.1810 C.ar      1 UNK         0.0000 
      7 C7         -2.8957   47.3653   25.7010 C.ar      1 UNK         0.0000 
      8 C8         -1.9638   47.9902   24.8702 C.ar      1 UNK         0.0000 
      9 N9         -1.1337   48.9379   25.4953 N.am      1 UNK         0.0000 
     10 C10        -0.9056   50.2019   25.0797 C.2       1 UNK         0.0000 
     11 O11        -1.2632   50.6685   23.9952 O.2       1 UNK         0.0000 
     12 C12        -0.2057   51.0803   26.0814 C.ar      1 UNK         0.0000 
     13 C13        -0.7076   51.1665   27.3886 C.ar      1 UNK         0.0000 
     14 C14        -0.0964   51.9999   28.3543 C.ar      1 UNK         0.0000 
     15 C15        -0.5719   52.0883   29.6832 C.ar      1 UNK         0.0000 
     16 C16         0.0142   52.9689   30.5857 C.ar      1 UNK         0.0000 
     17 C17         1.0855   53.7645   30.1990 C.ar      1 UNK         0.0000 
     18 C18         1.6221   53.6567   28.9200 C.ar      1 UNK         0.0000 
     19 C19         1.0368   52.7722   27.9816 C.ar      1 UNK         0.0000 
     20 C20         1.5503   52.6298   26.6803 C.ar      1 UNK         0.0000 
     21 C21         0.9289   51.8245   25.7268 C.ar      1 UNK         0.0000 
     22 O22         1.5061   51.7128   24.4804 O.3       1 UNK         0.0000 
     23 S23         1.3824   52.9940   23.4093 S.3       1 UNK         0.0000 
     24 O24         0.9198   52.4778   22.1169 O.2       1 UNK         0.0000 
     25 O25         0.6988   54.0971   24.0795 O.2       1 UNK         0.0000 
     26 C26         3.1162   53.4642   23.2478 C.ar      1 UNK         0.0000 
     27 C27         3.7974   53.2115   22.0568 C.ar      1 UNK         0.0000 
     28 C28         5.1424   53.5478   21.9353 C.ar      1 UNK         0.0000 
     29 C29         5.8369   54.0986   23.0157 C.ar      1 UNK         0.0000 
     30 C30         5.1764   54.3673   24.2233 C.ar      1 UNK         0.0000 
     31 C31         3.7977   54.0973   24.2948 C.ar      1 UNK         0.0000 
     32 C32         5.9187   54.8967   25.4201 C.2       1 UNK         0.0000 
     33 O33         5.3098   54.8984   26.5141 O.co2     1 UNK         0.0000 
     34 H34        -0.0732   48.5826   20.8780 H         1 UNK         0.0000 
     35 H35        -0.7748   46.9743   21.0442 H         1 UNK         0.0000 
     36 H36        -1.8261   48.3975   20.8719 H         1 UNK         0.0000 
     37 H37        -2.8201   46.4465   21.9524 H         1 UNK         0.0000 
     38 H38        -4.5000   45.4489   23.4116 H         1 UNK         0.0000 
     39 H39        -4.5394   45.9939   25.8317 H         1 UNK         0.0000 
     40 H40        -2.9289   47.6064   26.7566 H         1 UNK         0.0000 
     41 H41        -0.8901   48.7283   26.4576 H         1 UNK         0.0000 
     42 H42        -1.5739   50.5887   27.6867 H         1 UNK         0.0000 
     43 H43        -1.4053   51.4702   29.9946 H         1 UNK         0.0000 
     44 H44        -0.3719   53.0373   31.5934 H         1 UNK         0.0000 
     45 H45         1.5046   54.4714   30.8957 H         1 UNK         0.0000 
     46 H46         2.4702   54.2613   28.6290 H         1 UNK         0.0000 
     47 H47         2.4608   53.1395   26.4486 H         1 UNK         0.0000 
     48 H48         3.2869   52.7576   21.2192 H         1 UNK         0.0000 
     49 H49         5.6507   53.3634   21.0005 H         1 UNK         0.0000 
     50 H50         6.8914   54.3163   22.9099 H         1 UNK         0.0000 
     51 H51         3.2565   54.3921   25.1740 H         1 UNK         0.0000 
     52 O52         7.1026   55.2894   25.2771 O.co2     1 UNK         0.0000 
@<TRIPOS>BOND
     1    1    2 1    
     2    1   34 1    
     3    1   35 1    
     4    1   36 1    
     5    2    3 1    
     6    3    8 ar   
     7    3    4 ar   
     8    4    5 ar   
     9    4   37 1    
    10    5    6 ar   
    11    5   38 1    
    12    6    7 ar   
    13    6   39 1    
    14    7    8 ar   
    15    7   40 1    
    16    8    9 1    
    17    9   10 am   BACKBONE|DICT|INTERRES
    18    9   41 1    
    19   10   11 2    
    20   10   12 1    
    21   12   21 ar   
    22   12   13 ar   
    23   13   14 ar   
    24   13   42 1    
    25   14   19 ar   
    26   14   15 ar   
    27   15   16 ar   
    28   15   43 1    
    29   16   17 ar   
    30   16   44 1    
    31   17   18 ar   
    32   17   45 1    
    33   18   19 ar   
    34   18   46 1    
    35   19   20 ar   
    36   20   21 ar   
    37   20   47 1    
    38   21   22 1    
    39   22   23 1    
    40   23   24 2    
    41   23   25 2    
    42   23   26 1    
    43   26   31 ar   
    44   26   27 ar   
    45   27   28 ar   
    46   27   48 1    
    47   28   29 ar   
    48   28   49 1    
    49   29   30 ar   
    50   29   50 1    
    51   30   31 ar   
    52   30   32 1    
    53   31   51 1    
    54   32   33 2    
    55   32   52 1    
@<TRIPOS>SUBSTRUCTURE
     1 UNK         1 GROUP             0       ****    0 ROOT    
