@<TRIPOS>MOLECULE
ZINC38903906_1099
74   77    1
SMALL
USER_CHARGES


@<TRIPOS>ATOM
      1 C1         -1.7607   50.1156   25.5524 C.3       1 UNK         0.0000 
      2 C2         -0.2725   50.2786   25.1679 C.3       1 UNK         0.0000 
      3 H3          0.2423   49.4498   25.6717 H         1 UNK         0.0000 
      4 C4          0.0568   50.0737   23.6828 C.ar      1 UNK         0.0000 
      5 C5          1.3724   49.7520   23.3283 C.ar      1 UNK         0.0000 
      6 C6          1.7032   49.4648   22.0106 C.ar      1 UNK         0.0000 
      7 C7          0.7169   49.5122   21.0267 C.ar      1 UNK         0.0000 
      8 C8         -0.5937   49.8669   21.3571 C.ar      1 UNK         0.0000 
      9 C9         -0.9233   50.1413   22.6821 C.ar      1 UNK         0.0000 
     10 S10         1.1469   49.0657   19.3491 S.o2      1 UNK         0.0000 
     11 O11         1.9047   47.8131   19.4336 O.2       1 UNK         0.0000 
     12 O12        -0.0774   49.1454   18.5452 O.2       1 UNK         0.0000 
     13 C13         2.3046   50.4417   18.8057 C.3       1 UNK         0.0000 
     14 N14         0.2744   51.5504   25.6557 N.am      1 UNK         0.0000 
     15 C15         0.7036   51.7693   26.9121 C.2       1 UNK         0.0000 
     16 O16         0.6889   50.9021   27.7790 O.2       1 UNK         0.0000 
     17 C17         1.2754   53.1598   27.2407 C.3       1 UNK         0.0000 
     18 H18         1.1053   53.7718   26.3550 H         1 UNK         0.0000 
     19 C19         0.5530   53.7546   28.4781 C.3       1 UNK         0.0000 
     20 C20         1.2063   55.0932   28.8756 C.3       1 UNK         0.0000 
     21 C21         2.7257   54.9614   29.1017 C.3       1 UNK         0.0000 
     22 N22         3.3665   54.4015   27.8078 N.4       1 UNK         0.0000 
     23 C23         2.7938   53.0011   27.4702 C.3       1 UNK         0.0000 
     24 C24         4.9138   54.3474   27.9254 C.3       1 UNK         0.0000 
     25 C25         5.5505   54.3883   26.5485 C.2       1 UNK         0.0000 
     26 N26         5.0189   54.1621   25.3743 N.2       1 UNK         0.0000 
     27 C27         5.9912   54.4983   24.5460 C.2       1 UNK         0.0000 
     28 N28         7.1044   54.8985   25.1187 N.2       1 UNK         0.0000 
     29 O29         6.8293   54.8249   26.4807 O.3       1 UNK         0.0000 
     30 C30         5.8300   54.4972   23.0519 C.ar      1 UNK         0.0000 
     31 C31         4.7759   53.8029   22.4491 C.ar      1 UNK         0.0000 
     32 C32         4.6052   53.8335   21.0685 C.ar      1 UNK         0.0000 
     33 C33         5.4754   54.5719   20.2518 C.ar      1 UNK         0.0000 
     34 C34         6.5221   55.2800   20.8611 C.ar      1 UNK         0.0000 
     35 C35         6.7048   55.2315   22.2411 C.ar      1 UNK         0.0000 
     36 C36         5.3282   54.6050   18.7065 C.3       1 UNK         0.0000 
     37 C37         5.1757   56.0687   18.2195 C.3       1 UNK         0.0000 
     38 C38         4.0980   53.8146   18.1899 C.3       1 UNK         0.0000 
     39 C39         6.5838   53.9758   18.0557 C.3       1 UNK         0.0000 
     40 H40        -2.1660   49.1715   25.1867 H         1 UNK         0.0000 
     41 H41        -1.8850   50.1098   26.6384 H         1 UNK         0.0000 
     42 H42        -2.3750   50.9278   25.1618 H         1 UNK         0.0000 
     43 H43         2.1448   49.6971   24.0822 H         1 UNK         0.0000 
     44 H44         2.7147   49.1755   21.7579 H         1 UNK         0.0000 
     45 H45        -1.3611   49.9059   20.5976 H         1 UNK         0.0000 
     46 H46        -1.9475   50.3921   22.9196 H         1 UNK         0.0000 
     47 H47         2.5975   50.2600   17.7722 H         1 UNK         0.0000 
     48 H48         1.7886   51.3954   18.8859 H         1 UNK         0.0000 
     49 H49         3.1928   50.4308   19.4316 H         1 UNK         0.0000 
     50 H50         0.3006   52.3038   24.9849 H         1 UNK         0.0000 
     51 H51         0.6530   53.1032   29.3531 H         1 UNK         0.0000 
     52 H52        -0.4965   53.9638   28.2633 H         1 UNK         0.0000 
     53 H53         0.7398   55.4767   29.7864 H         1 UNK         0.0000 
     54 H54         1.0191   55.8388   28.1008 H         1 UNK         0.0000 
     55 H55         2.9809   54.2864   29.9210 H         1 UNK         0.0000 
     56 H56         3.1578   55.9473   29.2800 H         1 UNK         0.0000 
     57 H57         3.2859   52.6625   26.5594 H         1 UNK         0.0000 
     58 H58         3.0452   52.3468   28.3130 H         1 UNK         0.0000 
     59 H59         5.1757   53.4607   28.5068 H         1 UNK         0.0000 
     60 H60         5.2053   55.2287   28.5004 H         1 UNK         0.0000 
     61 H61         4.0740   53.2413   23.0489 H         1 UNK         0.0000 
     62 H62         3.7755   53.2808   20.6524 H         1 UNK         0.0000 
     63 H63         7.2160   55.8546   20.2673 H         1 UNK         0.0000 
     64 H64         7.5237   55.7833   22.6790 H         1 UNK         0.0000 
     65 H65         5.0568   56.1167   17.1369 H         1 UNK         0.0000 
     66 H66         6.0422   56.6832   18.4660 H         1 UNK         0.0000 
     67 H67         4.3006   56.5459   18.6591 H         1 UNK         0.0000 
     68 H68         4.1668   52.7542   18.4405 H         1 UNK         0.0000 
     69 H69         3.1633   54.1997   18.6001 H         1 UNK         0.0000 
     70 H70         4.0147   53.8731   17.1040 H         1 UNK         0.0000 
     71 H71         6.7107   52.9378   18.3679 H         1 UNK         0.0000 
     72 H72         6.5124   53.9776   16.9683 H         1 UNK         0.0000 
     73 H73         7.5000   54.5118   18.3157 H         1 UNK         0.0000 
     74 H74         3.1491   55.0352   27.0485 H         1 UNK         0.0000 
@<TRIPOS>BOND
     1    1    2 1    
     2    1   40 1    
     3    1   41 1    
     4    1   42 1    
     5    2    3 1    
     6    2    4 1    
     7    2   14 1    
     8    4    9 ar   
     9    4    5 ar   
    10    5    6 ar   
    11    5   43 1    
    12    6    7 ar   
    13    6   44 1    
    14    7    8 ar   
    15    7   10 1    
    16    8    9 ar   
    17    8   45 1    
    18    9   46 1    
    19   10   11 2    
    20   10   12 2    
    21   10   13 1    
    22   13   47 1    
    23   13   48 1    
    24   13   49 1    
    25   14   15 am   BACKBONE|DICT|INTERRES
    26   14   50 1    
    27   15   16 2    
    28   15   17 1    
    29   17   18 1    
    30   17   23 1    
    31   17   19 1    
    32   19   20 1    
    33   19   51 1    
    34   19   52 1    
    35   20   21 1    
    36   20   53 1    
    37   20   54 1    
    38   21   22 1    
    39   21   55 1    
    40   21   56 1    
    41   22   23 1    
    42   22   24 1    
    43   22   74 1    
    44   23   57 1    
    45   23   58 1    
    46   24   25 1    
    47   24   59 1    
    48   24   60 1    
    49   25   29 1    
    50   25   26 2    
    51   26   27 1    
    52   27   28 2    
    53   27   30 1    
    54   28   29 1    
    55   30   35 ar   
    56   30   31 ar   
    57   31   32 ar   
    58   31   61 1    
    59   32   33 ar   
    60   32   62 1    
    61   33   34 ar   
    62   33   36 1    
    63   34   35 ar   
    64   34   63 1    
    65   35   64 1    
    66   36   37 1    
    67   36   38 1    
    68   36   39 1    
    69   37   65 1    
    70   37   66 1    
    71   37   67 1    
    72   38   68 1    
    73   38   69 1    
    74   38   70 1    
    75   39   71 1    
    76   39   72 1    
    77   39   73 1    
@<TRIPOS>SUBSTRUCTURE
     1 UNK         1 GROUP             0       ****    0 ROOT    
