@<TRIPOS>MOLECULE
ZINC02188801_5375
70   74    1
SMALL
USER_CHARGES


@<TRIPOS>ATOM
      1 C1         -4.5800   52.7533   26.4484 C.3       1 UNK         0.0000 
      2 C2         -3.9272   52.2552   25.1433 C.3       1 UNK         0.0000 
      3 C3         -2.5340   51.6668   25.4890 C.3       1 UNK         0.0000 
      4 C4         -1.8855   50.9185   24.2958 C.2       1 UNK         0.0000 
      5 C5         -2.6596   50.3875   23.2977 C.2       1 UNK         0.0000 
      6 C6         -2.0416   49.7640   22.0164 C.3       1 UNK         0.0000 
      7 H7         -2.4513   48.7589   21.9023 H         1 UNK         0.0000 
      8 C8         -0.5246   49.6054   22.1750 C.2       1 UNK         0.0000 
      9 C9          0.1670   50.1642   23.1919 C.2       1 UNK         0.0000 
     10 N10        -0.4772   50.8705   24.2235 N.pl3     1 UNK         0.0000 
     11 C11         0.2686   51.3984   25.2817 C.2       1 UNK         0.0000 
     12 C12         1.0706   52.5375   25.3303 C.2       1 UNK         0.0000 
     13 C13         1.6148   52.7833   26.6174 C.2       1 UNK         0.0000 
     14 C14         1.2288   51.8131   27.5498 C.2       1 UNK         0.0000 
     15 S15         0.2611   50.5873   26.8035 S.3       1 UNK         0.0000 
     16 C16         1.5907   51.7733   29.0172 C.3       1 UNK         0.0000 
     17 C17         1.1300   53.0201   29.7954 C.3       1 UNK         0.0000 
     18 C18         1.9698   54.2887   29.5471 C.3       1 UNK         0.0000 
     19 C19         1.9376   54.8573   28.1129 C.3       1 UNK         0.0000 
     20 C20         2.5219   53.9410   27.0150 C.3       1 UNK         0.0000 
     21 C21         1.3125   53.4076   24.1848 C.1       1 UNK         0.0000 
     22 N22         1.5062   54.1008   23.2814 N.1       1 UNK         0.0000 
     23 N23         1.5376   50.0422   23.2794 N.pl3     1 UNK         0.0000 
     24 C24         0.1522   48.9016   21.1321 C.1       1 UNK         0.0000 
     25 N25         0.6887   48.3567   20.2616 N.1       1 UNK         0.0000 
     26 C26        -2.4506   50.4605   20.6976 C.ar      1 UNK         0.0000 
     27 C27        -3.6411   50.1222   20.0460 C.ar      1 UNK         0.0000 
     28 C28        -4.0206   50.7557   18.8666 C.ar      1 UNK         0.0000 
     29 C29        -3.1874   51.7150   18.2710 C.ar      1 UNK         0.0000 
     30 C30        -1.9561   52.0149   18.8719 C.ar      1 UNK         0.0000 
     31 C31        -1.6177   51.4137   20.0959 C.ar      1 UNK         0.0000 
     32 O32        -1.1277   52.8968   18.2066 O.3       1 UNK         0.0000 
     33 C33         0.2626   52.9072   18.5205 C.3       1 UNK         0.0000 
     34 O34        -3.4956   52.3727   17.0945 O.3       1 UNK         0.0000 
     35 C35        -4.7177   52.0797   16.4275 C.3       1 UNK         0.0000 
     36 C36        -4.1421   50.3322   23.4343 C.2       1 UNK         0.0000 
     37 O37        -4.8350   49.5541   22.7814 O.2       1 UNK         0.0000 
     38 C38        -4.7799   51.0845   24.6092 C.3       1 UNK         0.0000 
     39 C39        -3.8223   53.3767   24.0818 C.3       1 UNK         0.0000 
     40 H40        -5.6010   53.0955   26.2764 H         1 UNK         0.0000 
     41 H41        -4.6190   51.9763   27.2126 H         1 UNK         0.0000 
     42 H42        -4.0229   53.5933   26.8619 H         1 UNK         0.0000 
     43 H43        -2.5606   50.9813   26.3372 H         1 UNK         0.0000 
     44 H44        -1.9459   52.5441   25.7709 H         1 UNK         0.0000 
     45 H45         2.6691   51.6678   29.1350 H         1 UNK         0.0000 
     46 H46         1.1412   50.8976   29.4743 H         1 UNK         0.0000 
     47 H47         1.1706   52.7898   30.8615 H         1 UNK         0.0000 
     48 H48         0.0782   53.2203   29.5845 H         1 UNK         0.0000 
     49 H49         3.0056   54.0948   29.8318 H         1 UNK         0.0000 
     50 H50         1.6221   55.0663   30.2281 H         1 UNK         0.0000 
     51 H51         2.5064   55.7861   28.1158 H         1 UNK         0.0000 
     52 H52         0.9169   55.1447   27.8531 H         1 UNK         0.0000 
     53 H53         2.7842   54.5469   26.1500 H         1 UNK         0.0000 
     54 H54         3.4816   53.5505   27.3552 H         1 UNK         0.0000 
     55 H55         2.0542   49.4804   22.6167 H         1 UNK         0.0000 
     56 H56         2.0400   50.3772   24.0887 H         1 UNK         0.0000 
     57 H57        -4.2899   49.3572   20.4418 H         1 UNK         0.0000 
     58 H58        -4.9622   50.4724   18.4202 H         1 UNK         0.0000 
     59 H59        -0.6870   51.6737   20.5788 H         1 UNK         0.0000 
     60 H60         0.7844   53.5637   17.8231 H         1 UNK         0.0000 
     61 H61         0.4437   53.2948   19.5232 H         1 UNK         0.0000 
     62 H62         0.7071   51.9153   18.4346 H         1 UNK         0.0000 
     63 H63        -4.7823   52.6820   15.5223 H         1 UNK         0.0000 
     64 H64        -4.7708   51.0316   16.1308 H         1 UNK         0.0000 
     65 H65        -5.5802   52.3218   17.0494 H         1 UNK         0.0000 
     66 H66        -4.8793   50.3392   25.3992 H         1 UNK         0.0000 
     67 H67        -5.7886   51.3899   24.3265 H         1 UNK         0.0000 
     68 H68        -4.8146   53.7272   23.7961 H         1 UNK         0.0000 
     69 H69        -3.2958   54.2378   24.4787 H         1 UNK         0.0000 
     70 H70        -3.2953   53.0758   23.1739 H         1 UNK         0.0000 
@<TRIPOS>BOND
     1    1    2 1    
     2    1   40 1    
     3    1   41 1    
     4    1   42 1    
     5    2   38 1    
     6    2    3 1    
     7    2   39 1    
     8    3    4 1    
     9    3   43 1    
    10    3   44 1    
    11    4   10 1    
    12    4    5 2    
    13    5    6 1    
    14    5   36 1    
    15    6    7 1    
    16    6    8 1    
    17    6   26 1    
    18    8    9 2    
    19    8   24 1    
    20    9   10 1    
    21    9   23 1    
    22   10   11 1    
    23   11   15 1    
    24   11   12 2    
    25   12   13 1    
    26   12   21 1    
    27   13   20 1    
    28   13   14 2    
    29   14   15 1    
    30   14   16 1    
    31   16   17 1    
    32   16   45 1    
    33   16   46 1    
    34   17   18 1    
    35   17   47 1    
    36   17   48 1    
    37   18   19 1    
    38   18   49 1    
    39   18   50 1    
    40   19   20 1    
    41   19   51 1    
    42   19   52 1    
    43   20   53 1    
    44   20   54 1    
    45   21   22 3    
    46   23   55 1    
    47   23   56 1    
    48   24   25 3    
    49   26   31 ar   
    50   26   27 ar   
    51   27   28 ar   
    52   27   57 1    
    53   28   29 ar   
    54   28   58 1    
    55   29   30 ar   
    56   29   34 1    
    57   30   31 ar   
    58   30   32 1    
    59   31   59 1    
    60   32   33 1    
    61   33   60 1    
    62   33   61 1    
    63   33   62 1    
    64   34   35 1    
    65   35   63 1    
    66   35   64 1    
    67   35   65 1    
    68   36   37 2    
    69   36   38 1    
    70   38   66 1    
    71   38   67 1    
    72   39   68 1    
    73   39   69 1    
    74   39   70 1    
@<TRIPOS>SUBSTRUCTURE
     1 UNK         1 GROUP             0       ****    0 ROOT    
