@<TRIPOS>MOLECULE
ZINC33253006_5977
59   62    1
SMALL
USER_CHARGES


@<TRIPOS>ATOM
      1 C1          6.1346   54.5205   27.0518 C.3       1 UNK         0.0000 
      2 C2          4.7026   54.1966   27.4391 C.ar      1 UNK         0.0000 
      3 C3          4.2513   54.4182   28.7374 C.ar      1 UNK         0.0000 
      4 C4          2.9307   54.1304   29.0712 C.ar      1 UNK         0.0000 
      5 C5          2.0420   53.6122   28.1208 C.ar      1 UNK         0.0000 
      6 C6          2.4876   53.3838   26.7951 C.ar      1 UNK         0.0000 
      7 C7          3.8191   53.6981   26.4819 C.ar      1 UNK         0.0000 
      8 N8          1.6877   52.8935   25.7618 N.pl3     1 UNK         0.0000 
      9 C9          0.6989   51.8161   25.9236 C.3       1 UNK         0.0000 
     10 C10         0.4014   50.9535   24.6686 C.3       1 UNK         0.0000 
     11 N11         0.8329   51.5058   23.3786 N.pl3     1 UNK         0.0000 
     12 C12         0.7809   52.9671   23.3532 C.3       1 UNK         0.0000 
     13 C13         1.4914   53.6695   24.5299 C.3       1 UNK         0.0000 
     14 C14         0.7333   50.7524   22.2131 C.ar      1 UNK         0.0000 
     15 C15         1.7497   49.8028   22.0417 C.ar      1 UNK         0.0000 
     16 C16         1.8991   49.1146   20.8431 C.ar      1 UNK         0.0000 
     17 C17         1.0299   49.3604   19.7900 C.ar      1 UNK         0.0000 
     18 C18        -0.0487   50.2181   19.9746 C.ar      1 UNK         0.0000 
     19 C19        -0.2405   50.9138   21.1838 C.ar      1 UNK         0.0000 
     20 C20        -1.5182   51.6977   21.3402 C.2       1 UNK         0.0000 
     21 O21        -1.9893   51.8782   22.4836 O.co2     1 UNK         0.0000 
     22 O22        -2.0962   52.0974   20.2990 O.co2     1 UNK         0.0000 
     23 N23         1.2715   48.7856   18.5425 N.pl3     1 UNK         0.0000 
     24 S24         0.4741   47.2781   18.1016 S.o2      1 UNK         0.0000 
     25 O25         1.1043   46.2120   18.8876 O.2       1 UNK         0.0000 
     26 O26        -0.9746   47.5071   18.1541 O.2       1 UNK         0.0000 
     27 C27         0.9479   47.0152   16.4034 C.ar      1 UNK         0.0000 
     28 C28         2.3050   46.8950   16.1025 C.ar      1 UNK         0.0000 
     29 C29         2.7043   46.7276   14.7821 C.ar      1 UNK         0.0000 
     30 C30         1.7457   46.6666   13.7732 C.ar      1 UNK         0.0000 
     31 C31         0.3896   46.7795   14.0745 C.ar      1 UNK         0.0000 
     32 C32        -0.0153   46.9578   15.3949 C.ar      1 UNK         0.0000 
     33 F33         2.1370   46.4968   12.4898 F         1 UNK         0.0000 
     34 C34         0.6064   53.3653   28.5773 C.3       1 UNK         0.0000 
     35 H35         6.1792   54.8872   26.0229 H         1 UNK         0.0000 
     36 H36         6.5519   55.3067   27.6832 H         1 UNK         0.0000 
     37 H37         6.7623   53.6293   27.1263 H         1 UNK         0.0000 
     38 H38         4.9192   54.8200   29.4862 H         1 UNK         0.0000 
     39 H39         2.5925   54.3183   30.0796 H         1 UNK         0.0000 
     40 H40         4.1888   53.5207   25.4835 H         1 UNK         0.0000 
     41 H41         0.8627   51.1941   26.8047 H         1 UNK         0.0000 
     42 H42        -0.2231   52.3666   26.1086 H         1 UNK         0.0000 
     43 H43        -0.6433   50.6369   24.6649 H         1 UNK         0.0000 
     44 H44         1.0387   50.0725   24.7836 H         1 UNK         0.0000 
     45 H45        -0.2737   53.2041   23.4808 H         1 UNK         0.0000 
     46 H46         1.0666   53.3760   22.3842 H         1 UNK         0.0000 
     47 H47         1.0151   54.6272   24.7188 H         1 UNK         0.0000 
     48 H48         2.4981   53.8469   24.1546 H         1 UNK         0.0000 
     49 H49         2.4760   49.6332   22.8244 H         1 UNK         0.0000 
     50 H50         2.7054   48.4126   20.7205 H         1 UNK         0.0000 
     51 H51        -0.7468   50.3418   19.1552 H         1 UNK         0.0000 
     52 H52         2.2559   48.7670   18.3185 H         1 UNK         0.0000 
     53 H53         3.0525   46.9624   16.8832 H         1 UNK         0.0000 
     54 H54         3.7557   46.6612   14.5474 H         1 UNK         0.0000 
     55 H55        -0.3448   46.7348   13.2836 H         1 UNK         0.0000 
     56 H56        -1.0660   47.0596   15.6285 H         1 UNK         0.0000 
     57 H57        -0.1102   53.6988   27.8279 H         1 UNK         0.0000 
     58 H58         0.4355   52.3040   28.7662 H         1 UNK         0.0000 
     59 H59         0.3676   53.9148   29.4896 H         1 UNK         0.0000 
@<TRIPOS>BOND
     1    1    2 1    
     2    1   35 1    
     3    1   36 1    
     4    1   37 1    
     5    2    7 ar   
     6    2    3 ar   
     7    3    4 ar   
     8    3   38 1    
     9    4    5 ar   
    10    4   39 1    
    11    5    6 ar   
    12    5   34 1    
    13    6    7 ar   
    14    6    8 1    
    15    7   40 1    
    16    8   13 1    
    17    8    9 1    
    18    9   10 1    
    19    9   41 1    
    20    9   42 1    
    21   10   11 1    
    22   10   43 1    
    23   10   44 1    
    24   11   12 1    
    25   11   14 1    
    26   12   13 1    
    27   12   45 1    
    28   12   46 1    
    29   13   47 1    
    30   13   48 1    
    31   14   19 ar   
    32   14   15 ar   
    33   15   16 ar   
    34   15   49 1    
    35   16   17 ar   
    36   16   50 1    
    37   17   18 ar   
    38   17   23 1    
    39   18   19 ar   
    40   18   51 1    
    41   19   20 1    
    42   20   21 2    
    43   20   22 1    
    44   23   24 1    
    45   23   52 1    
    46   24   25 2    
    47   24   26 2    
    48   24   27 1    
    49   27   32 ar   
    50   27   28 ar   
    51   28   29 ar   
    52   28   53 1    
    53   29   30 ar   
    54   29   54 1    
    55   30   31 ar   
    56   30   33 1    
    57   31   32 ar   
    58   31   55 1    
    59   32   56 1    
    60   34   57 1    
    61   34   58 1    
    62   34   59 1    
@<TRIPOS>SUBSTRUCTURE
     1 UNK         1 GROUP             0       ****    0 ROOT    
