@<TRIPOS>MOLECULE
ZINC00041317_1825
35   37    1
SMALL
USER_CHARGES


@<TRIPOS>ATOM
      1 C1          6.6811   55.3958   25.8277 C.3       1 UNK         0.0000 
      2 C2          5.7990   54.1652   25.5723 C.3       1 UNK         0.0000 
      3 H3          6.3997   53.2770   25.7502 H         1 UNK         0.0000 
      4 C4          5.2422   54.1543   24.1664 C.ar      1 UNK         0.0000 
      5 C5          3.8592   54.0966   24.1878 C.ar      1 UNK         0.0000 
      6 C6          3.2057   54.0967   22.9589 C.ar      1 UNK         0.0000 
      7 N7          3.8794   54.1900   21.7867 N.ar      1 UNK         0.0000 
      8 C8          5.2279   54.2923   21.8723 C.ar      1 UNK         0.0000 
      9 N9          5.9591   54.2614   23.0155 N.ar      1 UNK         0.0000 
     10 N10         5.9037   54.4970   20.6808 N.pl3     1 UNK         0.0000 
     11 N11         1.8232   54.0357   22.8816 N.pl3     1 UNK         0.0000 
     12 C12         3.3502   54.0509   25.5985 C.3       1 UNK         0.0000 
     13 N13         4.5758   54.0975   26.4025 N.am      1 UNK         0.0000 
     14 C14         4.5752   54.0208   27.7604 C.2       1 UNK         0.0000 
     15 O15         5.6048   54.0137   28.4354 O.2       1 UNK         0.0000 
     16 C16         3.2428   53.9909   28.4704 C.ar      1 UNK         0.0000 
     17 C17         2.8223   55.1011   29.2096 C.ar      1 UNK         0.0000 
     18 C18         1.5867   55.1062   29.8534 C.ar      1 UNK         0.0000 
     19 C19         0.7607   53.9854   29.7787 C.ar      1 UNK         0.0000 
     20 C20         1.1692   52.8695   29.0493 C.ar      1 UNK         0.0000 
     21 C21         2.4061   52.8690   28.4021 C.ar      1 UNK         0.0000 
     22 Cl22        0.1413   51.4901   28.9402 Cl        1 UNK         0.0000 
     23 Cl23        1.1047   56.4965   30.7546 Cl        1 UNK         0.0000 
     24 H24         7.5047   55.4180   25.1162 H         1 UNK         0.0000 
     25 H25         6.1181   56.3154   25.6811 H         1 UNK         0.0000 
     26 H26         7.1015   55.4010   26.8335 H         1 UNK         0.0000 
     27 H27         5.3742   54.4795   19.8216 H         1 UNK         0.0000 
     28 H28         6.9062   54.5919   20.6914 H         1 UNK         0.0000 
     29 H29         1.2662   53.9669   23.7174 H         1 UNK         0.0000 
     30 H30         1.4175   54.1188   21.9577 H         1 UNK         0.0000 
     31 H31         2.7800   53.1416   25.7902 H         1 UNK         0.0000 
     32 H32         2.7055   54.8961   25.8366 H         1 UNK         0.0000 
     33 H33         3.4462   55.9736   29.2816 H         1 UNK         0.0000 
     34 H34        -0.1918   53.9785   30.2869 H         1 UNK         0.0000 
     35 H35         2.7036   51.9944   27.8451 H         1 UNK         0.0000 
@<TRIPOS>BOND
     1    1    2 1    
     2    1   24 1    
     3    1   25 1    
     4    1   26 1    
     5    2    3 1    
     6    2   13 1    
     7    2    4 1    
     8    4    9 ar   
     9    4    5 ar   
    10    5    6 ar   
    11    5   12 1    
    12    6    7 ar   
    13    6   11 1    
    14    7    8 ar   
    15    8    9 ar   
    16    8   10 1    
    17   10   27 1    
    18   10   28 1    
    19   11   29 1    
    20   11   30 1    
    21   12   13 1    
    22   12   31 1    
    23   12   32 1    
    24   13   14 am   BACKBONE|DICT|INTERRES
    25   14   15 2    
    26   14   16 1    
    27   16   21 ar   
    28   16   17 ar   
    29   17   18 ar   
    30   17   33 1    
    31   18   19 ar   
    32   18   23 1    
    33   19   20 ar   
    34   19   34 1    
    35   20   21 ar   
    36   20   22 1    
    37   21   35 1    
@<TRIPOS>SUBSTRUCTURE
     1 UNK         1 GROUP             0       ****    0 ROOT    
