ZINC13319895_3225
                    3D
 Schrodinger Suite 2024-2.
 69 72  0  0  1  0            999 V2000
   -5.8686   44.1596   25.4152 C   0  0  0  0  0  0
   -4.8601   45.2932   25.4272 C   0  0  0  0  0  0
   -4.7953   46.2158   24.3798 C   0  0  0  0  0  0
   -3.8445   47.2393   24.4200 C   0  0  0  0  0  0
   -2.9669   47.3149   25.5163 C   0  0  0  0  0  0
   -3.0208   46.4150   26.5305 N   0  0  0  0  0  0
   -3.9522   45.4313   26.4814 C   0  0  0  0  0  0
   -2.0104   48.3327   25.6811 N   0  0  0  0  0  0
   -1.4050   49.0709   24.7206 C   0  0  0  0  0  0
   -1.5502   48.8295   23.5211 O   0  0  0  0  0  0
   -0.5944   50.2015   25.1928 C   0  0  0  0  0  0
    0.3877   50.7509   24.4225 C   0  0  0  0  0  0
    1.1111   51.8275   24.8777 N   0  0  0  0  0  0
    0.9717   52.4223   26.1079 C   0  0  0  0  0  0
    0.0416   51.9600   26.9832 C   0  0  0  0  0  0
   -0.9590   50.8449   26.5720 C   0  0  1  0  0  0
   -0.8487   50.0969   27.3514 H   0  0  0  0  0  0
   -2.4153   51.3229   26.6590 C   0  0  0  0  0  0
   -3.2845   50.8380   27.6355 C   0  0  0  0  0  0
   -4.6086   51.2948   27.7156 C   0  0  0  0  0  0
   -5.0515   52.2539   26.7901 C   0  0  0  0  0  0
   -4.1835   52.7623   25.8104 C   0  0  0  0  0  0
   -2.8675   52.2830   25.7586 C   0  0  0  0  0  0
   -4.6659   53.7305   24.9490 O   0  0  0  0  0  0
   -3.8751   54.1070   23.8260 C   0  0  0  0  0  0
   -6.3647   52.6714   26.8118 O   0  0  0  0  0  0
   -6.6081   53.8408   27.5776 C   0  0  0  0  0  0
   -5.5096   50.8570   28.6705 O   0  0  0  0  0  0
   -5.0819   49.9042   29.6423 C   0  0  0  0  0  0
   -0.0502   52.5136   28.3539 C   0  0  0  0  0  0
   -0.8372   52.0965   29.2002 O   0  0  0  0  0  0
    0.8962   53.6745   28.6931 C   0  0  0  0  0  0
    2.2749   53.5755   27.9895 C   0  0  0  0  0  0
    2.0232   53.4810   26.4526 C   0  0  0  0  0  0
    3.0352   54.8850   28.2774 C   0  0  0  0  0  0
    3.0436   52.3311   28.5052 C   0  0  0  0  0  0
    0.9123   50.2490   23.0779 C   0  0  0  0  0  0
   -6.7828   44.4604   25.9280 H   0  0  0  0  0  0
   -6.1198   43.8639   24.3947 H   0  0  0  0  0  0
   -5.4719   43.2711   25.9103 H   0  0  0  0  0  0
   -5.4788   46.1530   23.5455 H   0  0  0  0  0  0
   -3.8242   47.9673   23.6242 H   0  0  0  0  0  0
   -3.9533   44.7350   27.3056 H   0  0  0  0  0  0
   -1.6958   48.4509   26.6452 H   0  0  0  0  0  0
    1.7502   52.2599   24.2284 H   0  0  0  0  0  0
   -2.9039   50.0994   28.3299 H   0  0  0  0  0  0
   -2.1682   52.6463   25.0232 H   0  0  0  0  0  0
   -4.3956   54.8930   23.2818 H   0  0  0  0  0  0
   -2.8987   54.4964   24.0811 H   0  0  0  0  0  0
   -3.6953   53.2540   23.1742 H   0  0  0  0  0  0
   -7.6340   54.1681   27.4143 H   0  0  0  0  0  0
   -6.4955   53.6435   28.6441 H   0  0  0  0  0  0
   -5.9502   54.6647   27.2938 H   0  0  0  0  0  0
   -5.9078   49.6780   30.3166 H   0  0  0  0  0  0
   -4.7727   48.9666   29.1770 H   0  0  0  0  0  0
   -4.2591   50.2877   30.2496 H   0  0  0  0  0  0
    0.3840   54.5737   28.3470 H   0  0  0  0  0  0
    0.9816   53.7661   29.7765 H   0  0  0  0  0  0
    1.6764   54.4133   26.0091 H   0  0  0  0  0  0
    2.9856   53.2325   26.0003 H   0  0  0  0  0  0
    3.9944   54.9098   27.7579 H   0  0  0  0  0  0
    2.4634   55.7596   27.9661 H   0  0  0  0  0  0
    3.2425   54.9967   29.3417 H   0  0  0  0  0  0
    4.0474   52.2931   28.0801 H   0  0  0  0  0  0
    3.1547   52.3651   29.5909 H   0  0  0  0  0  0
    2.5457   51.3912   28.2582 H   0  0  0  0  0  0
    0.3380   50.6937   22.2617 H   0  0  0  0  0  0
    1.9665   50.4902   22.9280 H   0  0  0  0  0  0
    0.8435   49.1618   22.9983 H   0  0  0  0  0  0
  1  2  1  0  0  0
  1 38  1  0  0  0
  1 39  1  0  0  0
  1 40  1  0  0  0
  2  7  2  0  0  0
  2  3  1  0  0  0
  3  4  2  0  0  0
  3 41  1  0  0  0
  4  5  1  0  0  0
  4 42  1  0  0  0
  5  6  2  0  0  0
  5  8  1  0  0  0
  6  7  1  0  0  0
  7 43  1  0  0  0
  8  9  1  0  0  0
  8 44  1  0  0  0
  9 10  2  0  0  0
  9 11  1  0  0  0
 11 16  1  0  0  0
 11 12  2  0  0  0
 12 13  1  0  0  0
 12 37  1  0  0  0
 13 14  1  0  0  0
 13 45  1  0  0  0
 14 34  1  0  0  0
 14 15  2  0  0  0
 15 16  1  0  0  0
 15 30  1  0  0  0
 16 17  1  0  0  0
 16 18  1  0  0  0
 18 23  2  0  0  0
 18 19  1  0  0  0
 19 20  2  0  0  0
 19 46  1  0  0  0
 20 21  1  0  0  0
 20 28  1  0  0  0
 21 22  2  0  0  0
 21 26  1  0  0  0
 22 23  1  0  0  0
 22 24  1  0  0  0
 23 47  1  0  0  0
 24 25  1  0  0  0
 25 48  1  0  0  0
 25 49  1  0  0  0
 25 50  1  0  0  0
 26 27  1  0  0  0
 27 51  1  0  0  0
 27 52  1  0  0  0
 27 53  1  0  0  0
 28 29  1  0  0  0
 29 54  1  0  0  0
 29 55  1  0  0  0
 29 56  1  0  0  0
 30 31  2  0  0  0
 30 32  1  0  0  0
 32 33  1  0  0  0
 32 57  1  0  0  0
 32 58  1  0  0  0
 33 34  1  0  0  0
 33 35  1  0  0  0
 33 36  1  0  0  0
 34 59  1  0  0  0
 34 60  1  0  0  0
 35 61  1  0  0  0
 35 62  1  0  0  0
 35 63  1  0  0  0
 36 64  1  0  0  0
 36 65  1  0  0  0
 36 66  1  0  0  0
 37 67  1  0  0  0
 37 68  1  0  0  0
 37 69  1  0  0  0
M  END
> <i_i_glide_confnum>
19

> <i_i_glide_lignum>
3226

> <i_i_glide_posenum>
214

> <i_i_glide_rotatable_bonds>
7

> <i_m_Source_File_Index>
1256

> <b_m_subgroup_collapsed>
0

> <r_i_docking_score>
-4.01367

> <r_i_glide_ecoul>
-5.24145

> <r_i_glide_eff_state_penalty>
0

> <r_i_glide_einternal>
5.76736

> <r_i_glide_emodel>
-47.2108

> <r_i_glide_energy>
-39.2736

> <r_i_glide_erotb>
0.336993

> <r_i_glide_esite>
-0.142199

> <r_i_glide_evdw>
-34.0321

> <r_i_glide_gscore>
-4.01367

> <r_i_glide_hbond>
-0.16

> <r_i_glide_ligand_efficiency>
-0.111491

> <r_i_glide_ligand_efficiency_ln>
-0.875673

> <r_i_glide_ligand_efficiency_sa>
-0.368134

> <r_i_glide_lipo>
-1.44293

> <r_i_glide_metal>
0

> <r_i_glide_rewards>
-0.11771

> <s_i_glide_gridfile>
wee1_glide-grid

> <s_m_Source_File>
wee1_decoys_glide_SP.sdf

> <s_m_Source_Path>
/Users/zhangxujun/Desktop

> <s_m_entry_id>
1531

> <s_m_entry_name>
wee1_decoys_glide_SP.1256

> <s_m_subgroup_title>
wee1_decoys_glide_SP

> <s_m_subgroupid>
wee1_decoys_glide_SP


$$$$
