@<TRIPOS>MOLECULE
ZINC06148075_4513
55   58    1
SMALL
USER_CHARGES


@<TRIPOS>ATOM
      1 C1          6.2303   54.1053   25.7180 C.ar      1 UNK         0.0000 
      2 C2          6.8790   53.7036   26.8822 C.ar      1 UNK         0.0000 
      3 C3          6.2068   53.6992   28.0894 C.ar      1 UNK         0.0000 
      4 C4          4.8764   54.0961   28.1496 C.ar      1 UNK         0.0000 
      5 C5          4.2172   54.4965   26.9799 C.ar      1 UNK         0.0000 
      6 C6          4.8953   54.4975   25.7617 C.ar      1 UNK         0.0000 
      7 C7          4.2091   54.1042   29.5212 C.3       1 UNK         0.0000 
      8 O8          2.8100   54.3685   29.4906 O.3       1 UNK         0.0000 
      9 C9          1.9595   53.4385   28.9283 C.ar      1 UNK         0.0000 
     10 C10         0.6784   53.8860   28.6313 C.ar      1 UNK         0.0000 
     11 C11        -0.2143   53.0564   27.9676 C.ar      1 UNK         0.0000 
     12 C12         0.1498   51.7643   27.6099 C.ar      1 UNK         0.0000 
     13 C13         1.4198   51.2965   27.9435 C.ar      1 UNK         0.0000 
     14 C14         2.3234   52.1260   28.5979 C.ar      1 UNK         0.0000 
     15 C15        -0.8538   50.8605   26.8939 C.3       1 UNK         0.0000 
     16 H16        -0.4965   49.8410   27.0588 H         1 UNK         0.0000 
     17 C17        -0.9652   51.0969   25.3475 C.3       1 UNK         0.0000 
     18 H18        -1.1145   52.1651   25.2027 H         1 UNK         0.0000 
     19 C19        -2.2239   50.3965   24.6917 C.3       1 UNK         0.0000 
     20 N20        -3.3731   50.8082   25.5075 N.pl3     1 UNK         0.0000 
     21 C21        -3.3970   50.8972   26.8627 C.2       1 UNK         0.0000 
     22 S22        -4.8263   50.9333   27.6950 S.2       1 UNK         0.0000 
     23 N23        -2.1991   50.8976   27.4991 N.pl3     1 UNK         0.0000 
     24 C24        -2.4362   50.7906   23.1915 C.3       1 UNK         0.0000 
     25 F25        -2.4955   52.1172   23.0429 F         1 UNK         0.0000 
     26 F26        -1.4724   50.3478   22.3793 F         1 UNK         0.0000 
     27 F27        -3.5880   50.3073   22.7167 F         1 UNK         0.0000 
     28 O28        -2.1262   48.9797   24.7691 O.3       1 UNK         0.0000 
     29 C29         0.3695   50.7009   24.6552 C.2       1 UNK         0.0000 
     30 O30         0.7045   49.5169   24.6303 O.2       1 UNK         0.0000 
     31 C31         1.1107   51.7609   23.9047 C.ar      1 UNK         0.0000 
     32 C32         1.1817   53.0737   24.3875 C.ar      1 UNK         0.0000 
     33 C33         1.8972   54.0414   23.6871 C.ar      1 UNK         0.0000 
     34 C34         2.5578   53.6943   22.5122 C.ar      1 UNK         0.0000 
     35 C35         2.5177   52.3863   22.0360 C.ar      1 UNK         0.0000 
     36 C36         1.8043   51.4169   22.7362 C.ar      1 UNK         0.0000 
     37 H37         6.7607   54.1026   24.7753 H         1 UNK         0.0000 
     38 H38         7.9043   53.3844   26.8820 H         1 UNK         0.0000 
     39 H39         6.7388   53.3966   28.9771 H         1 UNK         0.0000 
     40 H40         3.1884   54.8221   27.0018 H         1 UNK         0.0000 
     41 H41         4.3926   54.8082   24.8582 H         1 UNK         0.0000 
     42 H42         4.6832   54.9011   30.0848 H         1 UNK         0.0000 
     43 H43         4.4066   53.1805   30.0642 H         1 UNK         0.0000 
     44 H44         0.3921   54.8959   28.8771 H         1 UNK         0.0000 
     45 H45        -1.1846   53.4262   27.6809 H         1 UNK         0.0000 
     46 H46         1.7183   50.2923   27.6814 H         1 UNK         0.0000 
     47 H47         3.3084   51.7402   28.8088 H         1 UNK         0.0000 
     48 H48        -4.2926   50.6842   25.1089 H         1 UNK         0.0000 
     49 H49        -2.2762   50.6105   28.4671 H         1 UNK         0.0000 
     50 H50        -1.9531   48.7396   25.6881 H         1 UNK         0.0000 
     51 H51         0.7038   53.3552   25.3124 H         1 UNK         0.0000 
     52 H52         1.9461   55.0545   24.0613 H         1 UNK         0.0000 
     53 H53         3.1053   54.4450   21.9619 H         1 UNK         0.0000 
     54 H54         3.0341   52.1253   21.1242 H         1 UNK         0.0000 
     55 H55         1.7872   50.4024   22.3590 H         1 UNK         0.0000 
@<TRIPOS>BOND
     1    1    6 ar   
     2    1    2 ar   
     3    1   37 1    
     4    2    3 ar   
     5    2   38 1    
     6    3    4 ar   
     7    3   39 1    
     8    4    5 ar   
     9    4    7 1    
    10    5    6 ar   
    11    5   40 1    
    12    6   41 1    
    13    7    8 1    
    14    7   42 1    
    15    7   43 1    
    16    8    9 1    
    17    9   14 ar   
    18    9   10 ar   
    19   10   11 ar   
    20   10   44 1    
    21   11   12 ar   
    22   11   45 1    
    23   12   13 ar   
    24   12   15 1    
    25   13   14 ar   
    26   13   46 1    
    27   14   47 1    
    28   15   16 1    
    29   15   23 1    
    30   15   17 1    
    31   17   18 1    
    32   17   19 1    
    33   17   29 1    
    34   19   20 1    
    35   19   24 1    
    36   19   28 1    
    37   20   21 1    
    38   20   48 1    
    39   21   22 2    
    40   21   23 1    
    41   23   49 1    
    42   24   25 1    
    43   24   26 1    
    44   24   27 1    
    45   28   50 1    
    46   29   30 2    
    47   29   31 1    
    48   31   36 ar   
    49   31   32 ar   
    50   32   33 ar   
    51   32   51 1    
    52   33   34 ar   
    53   33   52 1    
    54   34   35 ar   
    55   34   53 1    
    56   35   36 ar   
    57   35   54 1    
    58   36   55 1    
@<TRIPOS>SUBSTRUCTURE
     1 UNK         1 GROUP             0       ****    0 ROOT    
