@<TRIPOS>MOLECULE
ZINC09064673_1980
52   54    1
SMALL
USER_CHARGES


@<TRIPOS>ATOM
      1 C1          0.6304   49.7995   26.8815 C.3       1 UNK         0.0000 
      2 C2         -0.1273   50.6633   25.9287 C.ar      1 UNK         0.0000 
      3 C3         -0.0402   50.3931   24.5690 C.ar      1 UNK         0.0000 
      4 C4         -0.8264   51.1115   23.6845 C.ar      1 UNK         0.0000 
      5 C5         -1.7152   52.0899   24.1560 C.ar      1 UNK         0.0000 
      6 C6         -1.7883   52.3615   25.5276 C.ar      1 UNK         0.0000 
      7 C7         -0.9841   51.6653   26.4150 C.ar      1 UNK         0.0000 
      8 N8         -1.0150   52.0144   27.7815 N.pl3     1 UNK         0.0000 
      9 C9         -0.0035   52.6213   28.4690 C.2       1 UNK         0.0000 
     10 S10        -0.0954   52.7183   30.1274 S.2       1 UNK         0.0000 
     11 N11         1.0006   53.0821   27.6660 N.am      1 UNK         0.0000 
     12 C12         2.1772   53.7003   27.8760 C.2       1 UNK         0.0000 
     13 O13         2.6057   54.0853   28.9685 O.2       1 UNK         0.0000 
     14 C14         2.9809   53.8884   26.6092 C.ar      1 UNK         0.0000 
     15 C15         2.4333   53.6965   25.3292 C.ar      1 UNK         0.0000 
     16 C16         3.1992   53.9067   24.1892 C.ar      1 UNK         0.0000 
     17 C17         4.5365   54.3182   24.2705 C.ar      1 UNK         0.0000 
     18 C18         5.0822   54.5354   25.5621 C.ar      1 UNK         0.0000 
     19 C19         4.3083   54.2938   26.7002 C.ar      1 UNK         0.0000 
     20 N20         6.3989   55.1539   25.7908 N.pl3     1 UNK         0.0000 
     21 O21         7.0466   54.7871   26.7656 O.co2     1 UNK         0.0000 
     22 O22         6.7502   56.0688   25.0602 O.co2     1 UNK         0.0000 
     23 N23         5.2687   54.4967   23.0925 N.pl3     1 UNK         0.0000 
     24 C24         6.6213   53.9461   22.9422 C.3       1 UNK         0.0000 
     25 C25         7.5045   54.8966   22.1060 C.3       1 UNK         0.0000 
     26 C26         6.9535   55.1373   20.6958 C.3       1 UNK         0.0000 
     27 C27         5.5059   55.5850   20.8238 C.3       1 UNK         0.0000 
     28 C28         4.6621   54.6661   21.7523 C.3       1 UNK         0.0000 
     29 C29        -2.5765   52.8315   23.2077 C.2       1 UNK         0.0000 
     30 O30        -2.4955   52.4966   22.0035 O.co2     1 UNK         0.0000 
     31 H31         0.8663   48.8114   26.4829 H         1 UNK         0.0000 
     32 H32         1.5114   50.2926   27.2821 H         1 UNK         0.0000 
     33 H33        -0.0958   49.6967   27.6818 H         1 UNK         0.0000 
     34 H34         0.6150   49.6164   24.2008 H         1 UNK         0.0000 
     35 H35        -0.7539   50.8847   22.6295 H         1 UNK         0.0000 
     36 H36        -2.4573   53.1235   25.9051 H         1 UNK         0.0000 
     37 H37        -1.8000   51.6694   28.3161 H         1 UNK         0.0000 
     38 H38         0.8519   52.8475   26.6973 H         1 UNK         0.0000 
     39 H39         1.4081   53.3875   25.1814 H         1 UNK         0.0000 
     40 H40         2.7327   53.7234   23.2330 H         1 UNK         0.0000 
     41 H41         4.7399   54.4780   27.6763 H         1 UNK         0.0000 
     42 H42         7.1128   53.7560   23.8943 H         1 UNK         0.0000 
     43 H43         6.5116   52.9658   22.4819 H         1 UNK         0.0000 
     44 H44         7.6040   55.8513   22.6236 H         1 UNK         0.0000 
     45 H45         8.5101   54.4969   22.0718 H         1 UNK         0.0000 
     46 H46         6.9886   54.2472   20.0709 H         1 UNK         0.0000 
     47 H47         7.5468   55.8934   20.1797 H         1 UNK         0.0000 
     48 H48         5.0578   55.6135   19.8299 H         1 UNK         0.0000 
     49 H49         5.5042   56.6151   21.1785 H         1 UNK         0.0000 
     50 H50         4.4975   53.6877   21.2976 H         1 UNK         0.0000 
     51 H51         3.6842   55.1360   21.8602 H         1 UNK         0.0000 
     52 O52        -3.3073   53.7330   23.6815 O.co2     1 UNK         0.0000 
@<TRIPOS>BOND
     1    1    2 1    
     2    1   31 1    
     3    1   32 1    
     4    1   33 1    
     5    2    7 ar   
     6    2    3 ar   
     7    3    4 ar   
     8    3   34 1    
     9    4    5 ar   
    10    4   35 1    
    11    5    6 ar   
    12    5   29 1    
    13    6    7 ar   
    14    6   36 1    
    15    7    8 1    
    16    8    9 1    
    17    8   37 1    
    18    9   10 2    
    19    9   11 am   BACKBONE|DICT|INTERRES
    20   11   12 am   BACKBONE|DICT|INTERRES
    21   11   38 1    
    22   12   13 2    
    23   12   14 1    
    24   14   19 ar   
    25   14   15 ar   
    26   15   16 ar   
    27   15   39 1    
    28   16   17 ar   
    29   16   40 1    
    30   17   18 ar   
    31   17   23 1    
    32   18   19 ar   
    33   18   20 1    
    34   19   41 1    
    35   20   21 2    
    36   20   22 1    
    37   23   28 1    
    38   23   24 1    
    39   24   25 1    
    40   24   42 1    
    41   24   43 1    
    42   25   26 1    
    43   25   44 1    
    44   25   45 1    
    45   26   27 1    
    46   26   46 1    
    47   26   47 1    
    48   27   28 1    
    49   27   48 1    
    50   27   49 1    
    51   28   50 1    
    52   28   51 1    
    53   29   30 2    
    54   29   52 1    
@<TRIPOS>SUBSTRUCTURE
     1 UNK         1 GROUP             0       ****    0 ROOT    
