@<TRIPOS>MOLECULE
ZINC39667032_3684
65   68    1
SMALL
USER_CHARGES


@<TRIPOS>ATOM
      1 C1          4.1533   54.5238   29.6779 C.3       1 UNK         0.0000 
      2 C2          3.9457   54.2498   28.2043 C.ar      1 UNK         0.0000 
      3 C3          2.6627   53.9935   27.7321 C.ar      1 UNK         0.0000 
      4 C4          2.4501   53.7887   26.3757 C.ar      1 UNK         0.0000 
      5 C5          3.5025   53.8432   25.4541 C.ar      1 UNK         0.0000 
      6 C6          4.8052   54.0939   25.9357 C.ar      1 UNK         0.0000 
      7 C7          5.0137   54.2958   27.3062 C.ar      1 UNK         0.0000 
      8 C8          6.0134   54.1550   25.0083 C.3       1 UNK         0.0000 
      9 C9          3.2124   53.5990   23.9634 C.3       1 UNK         0.0000 
     10 C10         1.9705   54.3028   23.3806 C.3       1 UNK         0.0000 
     11 N11         0.7108   53.6096   23.6381 N.am      1 UNK         0.0000 
     12 C12         0.2643   52.5520   22.9281 C.2       1 UNK         0.0000 
     13 O13         0.8941   52.0733   21.9883 O.2       1 UNK         0.0000 
     14 C14        -1.0477   51.8582   23.3666 C.3       1 UNK         0.0000 
     15 H15        -1.4973   51.4446   22.4615 H         1 UNK         0.0000 
     16 C16        -2.0807   52.8582   23.9333 C.3       1 UNK         0.0000 
     17 N17        -2.7860   52.0789   24.9574 N.am      1 UNK         0.0000 
     18 C18        -2.2746   50.7050   25.0464 C.3       1 UNK         0.0000 
     19 C19        -0.8492   50.7931   24.4661 C.3       1 UNK         0.0000 
     20 C20        -0.3029   49.4679   23.8895 C.3       1 UNK         0.0000 
     21 C21        -0.2388   48.3851   24.9728 C.3       1 UNK         0.0000 
     22 N22         0.7006   48.8967   26.0817 N.4       1 UNK         0.0000 
     23 C23         0.3018   50.2425   26.7138 C.3       1 UNK         0.0000 
     24 C24         0.1644   51.2411   25.5701 C.3       1 UNK         0.0000 
     25 C25        -3.7928   52.6205   25.6929 C.2       1 UNK         0.0000 
     26 O26        -4.2411   53.7466   25.4612 O.2       1 UNK         0.0000 
     27 C27        -4.3773   51.8330   26.8438 C.ar      1 UNK         0.0000 
     28 C28        -5.7660   51.6966   26.9568 C.ar      1 UNK         0.0000 
     29 C29        -6.3182   50.9961   28.0282 C.ar      1 UNK         0.0000 
     30 C30        -5.4843   50.4370   28.9942 C.ar      1 UNK         0.0000 
     31 C31        -4.1038   50.5840   28.9049 C.ar      1 UNK         0.0000 
     32 C32        -3.5534   51.2973   27.8435 C.ar      1 UNK         0.0000 
     33 Br33       -6.2363   49.4754   30.4540 Br        1 UNK         0.0000 
     34 H34         5.0142   55.1789   29.8456 H         1 UNK         0.0000 
     35 H35         3.2701   55.0285   30.0804 H         1 UNK         0.0000 
     36 H36         4.2981   53.5887   30.2226 H         1 UNK         0.0000 
     37 H37         1.8232   53.9643   28.4122 H         1 UNK         0.0000 
     38 H38         1.4415   53.6221   26.0519 H         1 UNK         0.0000 
     39 H39         6.0073   54.4996   27.6774 H         1 UNK         0.0000 
     40 H40         6.0203   53.3003   24.3311 H         1 UNK         0.0000 
     41 H41         5.9851   55.0640   24.4012 H         1 UNK         0.0000 
     42 H42         6.9587   54.1243   25.5577 H         1 UNK         0.0000 
     43 H43         4.0594   53.9213   23.3601 H         1 UNK         0.0000 
     44 H44         3.1071   52.5299   23.7778 H         1 UNK         0.0000 
     45 H45         1.9033   55.2960   23.8175 H         1 UNK         0.0000 
     46 H46         2.1111   54.4911   22.3139 H         1 UNK         0.0000 
     47 H47         0.1517   53.9580   24.3987 H         1 UNK         0.0000 
     48 H48        -1.6057   53.6734   24.4727 H         1 UNK         0.0000 
     49 H49        -2.7574   53.2182   23.1577 H         1 UNK         0.0000 
     50 H50        -2.8790   50.0968   24.3715 H         1 UNK         0.0000 
     51 H51        -2.3121   50.2026   26.0084 H         1 UNK         0.0000 
     52 H52        -0.9643   49.1146   23.0970 H         1 UNK         0.0000 
     53 H53         0.6692   49.6112   23.4126 H         1 UNK         0.0000 
     54 H54        -1.1957   48.1695   25.4526 H         1 UNK         0.0000 
     55 H55         0.2011   47.4546   24.6131 H         1 UNK         0.0000 
     56 H56         0.7110   48.1833   26.8060 H         1 UNK         0.0000 
     57 H57        -0.6156   50.0968   27.2807 H         1 UNK         0.0000 
     58 H58         1.1004   50.5129   27.4063 H         1 UNK         0.0000 
     59 H59         1.1572   51.4265   25.1591 H         1 UNK         0.0000 
     60 H60        -0.1702   52.1825   26.0024 H         1 UNK         0.0000 
     61 H61        -6.4224   52.1255   26.2127 H         1 UNK         0.0000 
     62 H62        -7.3903   50.8841   28.1060 H         1 UNK         0.0000 
     63 H63        -3.4575   50.1490   29.6564 H         1 UNK         0.0000 
     64 H64        -2.4817   51.4276   27.8134 H         1 UNK         0.0000 
     65 H65         1.6409   48.9411   25.7123 H         1 UNK         0.0000 
@<TRIPOS>BOND
     1    1    2 1    
     2    1   34 1    
     3    1   35 1    
     4    1   36 1    
     5    2    7 ar   
     6    2    3 ar   
     7    3    4 ar   
     8    3   37 1    
     9    4    5 ar   
    10    4   38 1    
    11    5    6 ar   
    12    5    9 1    
    13    6    7 ar   
    14    6    8 1    
    15    7   39 1    
    16    8   40 1    
    17    8   41 1    
    18    8   42 1    
    19    9   10 1    
    20    9   43 1    
    21    9   44 1    
    22   10   11 1    
    23   10   45 1    
    24   10   46 1    
    25   11   12 am   BACKBONE|DICT|INTERRES
    26   11   47 1    
    27   12   13 2    
    28   12   14 1    
    29   14   15 1    
    30   14   19 1    
    31   14   16 1    
    32   16   17 1    
    33   16   48 1    
    34   16   49 1    
    35   17   18 1    
    36   17   25 am   BACKBONE|DICT|INTERRES
    37   18   19 1    
    38   18   50 1    
    39   18   51 1    
    40   19   24 1    
    41   19   20 1    
    42   20   21 1    
    43   20   52 1    
    44   20   53 1    
    45   21   22 1    
    46   21   54 1    
    47   21   55 1    
    48   22   23 1    
    49   22   56 1    
    50   22   65 1    
    51   23   24 1    
    52   23   57 1    
    53   23   58 1    
    54   24   59 1    
    55   24   60 1    
    56   25   26 2    
    57   25   27 1    
    58   27   32 ar   
    59   27   28 ar   
    60   28   29 ar   
    61   28   61 1    
    62   29   30 ar   
    63   29   62 1    
    64   30   31 ar   
    65   30   33 1    
    66   31   32 ar   
    67   31   63 1    
    68   32   64 1    
@<TRIPOS>SUBSTRUCTURE
     1 UNK         1 GROUP             0       ****    0 ROOT    
