@<TRIPOS>MOLECULE
ZINC38935271_2263
50   53    1
SMALL
USER_CHARGES


@<TRIPOS>ATOM
      1 C1          3.9966   54.5436   25.2498 C.3       1 UNK         0.0000 
      2 C2          2.7107   53.8548   24.8332 C.ar      1 UNK         0.0000 
      3 C3          1.9499   53.1728   25.7848 C.ar      1 UNK         0.0000 
      4 C4          0.7957   52.4966   25.3992 C.ar      1 UNK         0.0000 
      5 C5          0.4006   52.5121   24.0605 C.ar      1 UNK         0.0000 
      6 C6          1.1521   53.2076   23.1109 C.ar      1 UNK         0.0000 
      7 C7          2.3086   53.8767   23.4968 C.ar      1 UNK         0.0000 
      8 S8         -1.0559   51.6026   23.5476 S.o2      1 UNK         0.0000 
      9 O9         -1.8584   51.3468   24.7494 O.2       1 UNK         0.0000 
     10 O10        -1.6470   52.3337   22.4192 O.2       1 UNK         0.0000 
     11 C11        -0.3513   49.9570   22.8972 C.3       1 UNK         0.0000 
     12 H12        -1.2262   49.4093   22.5470 H         1 UNK         0.0000 
     13 C13         0.3040   49.1451   24.0538 C.3       1 UNK         0.0000 
     14 N14        -0.6420   48.5732   25.0155 N.am      1 UNK         0.0000 
     15 C15        -1.4941   47.5748   24.7364 C.2       1 UNK         0.0000 
     16 O16        -1.4894   46.9581   23.6699 O.2       1 UNK         0.0000 
     17 N17        -2.3565   47.3563   25.7447 N.am      1 UNK         0.0000 
     18 C18        -3.4796   46.5098   25.7419 C.ar      1 UNK         0.0000 
     19 C19        -4.1764   46.1412   24.5649 C.ar      1 UNK         0.0000 
     20 C20        -5.2968   45.3012   24.6199 C.ar      1 UNK         0.0000 
     21 C21        -5.6972   44.8501   25.8706 C.ar      1 UNK         0.0000 
     22 C22        -5.0486   45.2244   27.0127 C.ar      1 UNK         0.0000 
     23 C23        -3.9366   46.0607   26.9916 C.ar      1 UNK         0.0000 
     24 O24        -5.6955   44.6927   28.0817 O.3       1 UNK         0.0000 
     25 C25        -6.6014   43.7634   27.5503 C.3       1 UNK         0.0000 
     26 O26        -6.7539   44.0576   26.1882 O.3       1 UNK         0.0000 
     27 C27         0.5586   50.1505   21.6889 C.2       1 UNK         0.0000 
     28 C28         0.1834   50.3901   20.3656 C.2       1 UNK         0.0000 
     29 C29         1.2468   50.5270   19.4686 C.2       1 UNK         0.0000 
     30 C30         2.4753   50.3942   20.0838 C.2       1 UNK         0.0000 
     31 S31         2.3049   50.0933   21.7805 S.3       1 UNK         0.0000 
     32 H32         4.6725   54.6767   24.4038 H         1 UNK         0.0000 
     33 H33         4.5304   53.9412   25.9864 H         1 UNK         0.0000 
     34 H34         3.7860   55.5161   25.6920 H         1 UNK         0.0000 
     35 H35         2.2624   53.1508   26.8191 H         1 UNK         0.0000 
     36 H36         0.2197   51.9552   26.1363 H         1 UNK         0.0000 
     37 H37         0.8561   53.2143   22.0707 H         1 UNK         0.0000 
     38 H38         2.8926   54.3995   22.7525 H         1 UNK         0.0000 
     39 H39         0.8991   48.3244   23.6524 H         1 UNK         0.0000 
     40 H40         1.0153   49.7642   24.6008 H         1 UNK         0.0000 
     41 H41        -0.6344   48.9483   25.9535 H         1 UNK         0.0000 
     42 H42        -2.1141   47.7565   26.6479 H         1 UNK         0.0000 
     43 H43        -3.8725   46.5174   23.5995 H         1 UNK         0.0000 
     44 H44        -5.8314   45.0305   23.7223 H         1 UNK         0.0000 
     45 H45        -3.4356   46.3506   27.9061 H         1 UNK         0.0000 
     46 H46        -7.5610   43.8140   28.0665 H         1 UNK         0.0000 
     47 H47        -6.1914   42.7563   27.6605 H         1 UNK         0.0000 
     48 H48        -0.8491   50.4660   20.0599 H         1 UNK         0.0000 
     49 H49         1.1276   50.7130   18.4105 H         1 UNK         0.0000 
     50 H50         3.4517   50.4498   19.6188 H         1 UNK         0.0000 
@<TRIPOS>BOND
     1    1    2 1    
     2    1   32 1    
     3    1   33 1    
     4    1   34 1    
     5    2    7 ar   
     6    2    3 ar   
     7    3    4 ar   
     8    3   35 1    
     9    4    5 ar   
    10    4   36 1    
    11    5    6 ar   
    12    5    8 1    
    13    6    7 ar   
    14    6   37 1    
    15    7   38 1    
    16    8    9 2    
    17    8   10 2    
    18    8   11 1    
    19   11   12 1    
    20   11   13 1    
    21   11   27 1    
    22   13   14 1    
    23   13   39 1    
    24   13   40 1    
    25   14   15 am   BACKBONE|DICT|INTERRES
    26   14   41 1    
    27   15   16 2    
    28   15   17 am   BACKBONE|DICT|INTERRES
    29   17   18 1    
    30   17   42 1    
    31   18   23 ar   
    32   18   19 ar   
    33   19   20 ar   
    34   19   43 1    
    35   20   21 ar   
    36   20   44 1    
    37   21   26 1    
    38   21   22 ar   
    39   22   23 ar   
    40   22   24 1    
    41   23   45 1    
    42   24   25 1    
    43   25   26 1    
    44   25   46 1    
    45   25   47 1    
    46   27   31 1    
    47   27   28 2    
    48   28   29 1    
    49   28   48 1    
    50   29   30 2    
    51   29   49 1    
    52   30   31 1    
    53   30   50 1    
@<TRIPOS>SUBSTRUCTURE
     1 UNK         1 GROUP             0       ****    0 ROOT    
