ZINC64672744_302
                    3D
 Schrodinger Suite 2024-2.
 53 57  0  0  1  0            999 V2000
    2.3466   53.2961   18.1685 C   0  0  0  0  0  0
    3.7623   52.7275   18.3317 C   0  0  0  0  0  0
    4.5944   53.4608   19.3130 N   0  0  0  0  0  0
    4.1234   53.3642   20.7135 C   0  0  0  0  0  0
    4.9508   54.1787   21.7259 C   0  0  0  0  0  0
    6.0362   54.8975   21.3070 C   0  0  0  0  0  0
    6.7471   55.6315   22.0977 O   0  5  0  0  0  0
    6.5150   54.8971   19.8946 C   0  0  0  0  0  0
    5.7847   54.1697   18.9360 C   0  0  0  0  0  0
    6.2486   54.1290   17.6663 N   0  3  0  0  0  0
    7.3766   54.7319   17.2472 C   0  0  0  0  0  0
    8.1348   55.4577   18.1652 C   0  0  0  0  0  0
    7.7042   55.5384   19.4888 C   0  0  0  0  0  0
    7.7738   54.5775   15.7924 C   0  0  0  0  0  0
    4.4163   54.0967   23.0920 C   0  0  0  0  0  0
    3.2668   53.7005   23.3086 O   0  0  0  0  0  0
    5.2654   54.4501   24.0814 N   0  0  0  0  0  0
    5.0254   54.4138   25.4480 C   0  0  0  0  0  0
    3.9285   54.0212   26.0528 N   0  0  0  0  0  0
    4.0227   54.0289   27.3698 C   0  0  0  0  0  0
    5.2542   54.4954   27.8433 C   0  0  0  0  0  0
    6.3043   54.8803   26.5093 S   0  0  0  0  0  0
    2.9259   53.5555   28.2186 C   0  0  0  0  0  0
    1.7907   52.9104   27.8708 C   0  0  0  0  0  0
    1.2430   52.4962   26.5669 C   0  0  0  0  0  0
    0.0833   51.8127   26.4901 C   0  0  0  0  0  0
   -0.6120   51.4989   27.7301 C   0  0  0  0  0  0
   -0.1305   51.8867   28.9410 C   0  0  0  0  0  0
    1.0754   52.5933   29.0325 C   0  0  0  0  0  0
    1.6987   53.0285   30.1019 N   0  3  0  0  0  0
    2.9584   53.7019   29.7232 C   0  0  0  0  0  0
    1.8485   52.8587   17.3034 H   0  0  0  0  0  0
    1.7288   53.0746   19.0393 H   0  0  0  0  0  0
    2.3631   54.3789   18.0469 H   0  0  0  0  0  0
    4.2600   52.7002   17.3623 H   0  0  0  0  0  0
    3.7163   51.6965   18.6773 H   0  0  0  0  0  0
    3.0887   53.7035   20.7338 H   0  0  0  0  0  0
    4.1290   52.3057   20.9800 H   0  0  0  0  0  0
    9.0527   55.9441   17.8644 H   0  0  0  0  0  0
    8.3136   56.0828   20.1960 H   0  0  0  0  0  0
    8.7177   55.0811   15.5797 H   0  0  0  0  0  0
    7.8923   53.5234   15.5382 H   0  0  0  0  0  0
    7.0106   55.0042   15.1418 H   0  0  0  0  0  0
    6.1551   54.8131   23.7518 H   0  0  0  0  0  0
    5.6052   54.6119   28.8597 H   0  0  0  0  0  0
    1.7458   52.7162   25.6343 H   0  0  0  0  0  0
   -0.3194   51.5019   25.5371 H   0  0  0  0  0  0
   -1.5259   50.9184   27.6893 H   0  0  0  0  0  0
   -0.6875   51.6115   29.8267 H   0  0  0  0  0  0
    3.7881   53.1717   30.1946 H   0  0  0  0  0  0
    2.9169   54.7413   30.0552 H   0  0  0  0  0  0
    1.3675   52.9067   31.0568 H   0  0  0  0  0  0
    5.7270   53.5835   16.9960 H   0  0  0  0  0  0
  1  2  1  0  0  0
  1 32  1  0  0  0
  1 33  1  0  0  0
  1 34  1  0  0  0
  2  3  1  0  0  0
  2 35  1  0  0  0
  2 36  1  0  0  0
  3  9  1  0  0  0
  3  4  1  0  0  0
  4  5  1  0  0  0
  4 37  1  0  0  0
  4 38  1  0  0  0
  5  6  2  0  0  0
  5 15  1  0  0  0
  6  7  1  0  0  0
  6  8  1  0  0  0
  8 13  2  0  0  0
  8  9  1  0  0  0
  9 10  2  0  0  0
 10 11  1  0  0  0
 10 53  1  0  0  0
 11 12  2  0  0  0
 11 14  1  0  0  0
 12 13  1  0  0  0
 12 39  1  0  0  0
 13 40  1  0  0  0
 14 41  1  0  0  0
 14 42  1  0  0  0
 14 43  1  0  0  0
 15 16  2  0  0  0
 15 17  1  0  0  0
 17 18  1  0  0  0
 17 44  1  0  0  0
 18 22  1  0  0  0
 18 19  2  0  0  0
 19 20  1  0  0  0
 20 21  2  0  0  0
 20 23  1  0  0  0
 21 22  1  0  0  0
 21 45  1  0  0  0
 23 31  1  0  0  0
 23 24  2  0  0  0
 24 29  1  0  0  0
 24 25  1  0  0  0
 25 26  2  0  0  0
 25 46  1  0  0  0
 26 27  1  0  0  0
 26 47  1  0  0  0
 27 28  2  0  0  0
 27 48  1  0  0  0
 28 29  1  0  0  0
 28 49  1  0  0  0
 29 30  2  0  0  0
 30 31  1  0  0  0
 30 52  1  0  0  0
 31 50  1  0  0  0
 31 51  1  0  0  0
M  CHG  3   7  -1  10   1  30   1
M  END
> <i_i_glide_confnum>
13

> <i_i_glide_lignum>
303

> <i_i_glide_posenum>
64

> <i_i_glide_rotatable_bonds>
5

> <i_m_Source_File_Index>
4284

> <b_m_subgroup_collapsed>
0

> <r_i_docking_score>
-5.23267

> <r_i_glide_ecoul>
-1.14

> <r_i_glide_eff_state_penalty>
0

> <r_i_glide_einternal>
5.45842

> <r_i_glide_emodel>
-62.1412

> <r_i_glide_energy>
-46.2068

> <r_i_glide_erotb>
0.425486

> <r_i_glide_esite>
-0.0506805

> <r_i_glide_evdw>
-45.0668

> <r_i_glide_gscore>
-5.23267

> <r_i_glide_hbond>
0

> <r_i_glide_ligand_efficiency>
-0.168796

> <r_i_glide_ligand_efficiency_ln>
-1.18013

> <r_i_glide_ligand_efficiency_sa>
-0.530251

> <r_i_glide_lipo>
-2.44293

> <r_i_glide_metal>
0

> <r_i_glide_rewards>
-0.740205

> <s_i_glide_gridfile>
wee1_glide-grid

> <s_m_Source_File>
wee1_decoys_glide_SP.sdf

> <s_m_Source_Path>
/Users/zhangxujun/Desktop

> <s_m_entry_id>
4559

> <s_m_entry_name>
wee1_decoys_glide_SP.4284

> <s_m_subgroup_title>
wee1_decoys_glide_SP

> <s_m_subgroupid>
wee1_decoys_glide_SP


$$$$
