@<TRIPOS>MOLECULE
ZINC60334523_4356
57   60    1
SMALL
USER_CHARGES


@<TRIPOS>ATOM
      1 C1          6.3121   55.0705   19.6420 C.ar      1 UNK         0.0000 
      2 C2          7.1106   55.6106   20.6445 C.ar      1 UNK         0.0000 
      3 C3          6.8534   55.2981   21.9777 C.ar      1 UNK         0.0000 
      4 C4          5.7900   54.4516   22.3312 C.ar      1 UNK         0.0000 
      5 C5          4.9858   53.8848   21.3072 C.ar      1 UNK         0.0000 
      6 C6          5.2651   54.2128   19.9685 C.ar      1 UNK         0.0000 
      7 C7          3.8203   52.9670   21.6139 C.2       1 UNK         0.0000 
      8 O8          3.1008   53.1997   22.5884 O.2       1 UNK         0.0000 
      9 N9          3.6692   51.9047   20.7883 N.am      1 UNK         0.0000 
     10 C10         2.6955   50.8913   20.8631 C.ar      1 UNK         0.0000 
     11 C11         2.0427   50.5240   22.0513 C.ar      1 UNK         0.0000 
     12 C12         1.0624   49.5367   22.0395 C.ar      1 UNK         0.0000 
     13 C13         0.7349   48.8968   20.8469 C.ar      1 UNK         0.0000 
     14 C14         1.4011   49.2161   19.6586 C.ar      1 UNK         0.0000 
     15 C15         2.3863   50.2127   19.6788 C.ar      1 UNK         0.0000 
     16 C16         1.0493   48.4983   18.3542 C.3       1 UNK         0.0000 
     17 F17         1.1005   49.3352   17.3178 F         1 UNK         0.0000 
     18 F18         1.9094   47.5019   18.1538 F         1 UNK         0.0000 
     19 F19        -0.1793   47.9782   18.3992 F         1 UNK         0.0000 
     20 N20         5.5484   54.1004   23.6793 N.am      1 UNK         0.0000 
     21 C21         5.8477   54.7750   24.8082 C.2       1 UNK         0.0000 
     22 O22         6.3547   55.8968   24.8400 O.2       1 UNK         0.0000 
     23 C23         5.4874   54.0632   26.1253 C.3       1 UNK         0.0000 
     24 H24         5.4959   52.9879   25.9411 H         1 UNK         0.0000 
     25 C25         6.5926   54.3416   27.1661 C.3       1 UNK         0.0000 
     26 C26         6.1848   53.6968   28.4816 C.3       1 UNK         0.0000 
     27 C27         4.8352   54.2419   28.9652 C.3       1 UNK         0.0000 
     28 N28         3.8151   53.9491   27.9396 N.am      1 UNK         0.0000 
     29 C29         4.0635   54.4962   26.5797 C.3       1 UNK         0.0000 
     30 C30         2.7956   53.0986   28.2482 C.2       1 UNK         0.0000 
     31 O31         2.7834   52.4571   29.3072 O.2       1 UNK         0.0000 
     32 C32         1.5441   53.0438   27.3342 C.3       1 UNK         0.0000 
     33 C33         0.8546   51.6916   27.2281 C.3       1 UNK         0.0000 
     34 C34         0.2242   52.7806   28.0533 C.3       1 UNK         0.0000 
     35 H35         6.5088   55.3091   18.6073 H         1 UNK         0.0000 
     36 H36         7.9396   56.2543   20.3878 H         1 UNK         0.0000 
     37 H37         7.5081   55.7098   22.7295 H         1 UNK         0.0000 
     38 H38         4.6620   53.8159   19.1631 H         1 UNK         0.0000 
     39 H39         4.2822   51.8519   19.9858 H         1 UNK         0.0000 
     40 H40         2.2777   50.9853   22.9967 H         1 UNK         0.0000 
     41 H41         0.5625   49.2661   22.9582 H         1 UNK         0.0000 
     42 H42        -0.0291   48.1329   20.8590 H         1 UNK         0.0000 
     43 H43         2.9097   50.4627   18.7639 H         1 UNK         0.0000 
     44 H44         4.9494   53.2966   23.7933 H         1 UNK         0.0000 
     45 H45         6.7041   55.4073   27.3774 H         1 UNK         0.0000 
     46 H46         7.5385   53.8852   26.8797 H         1 UNK         0.0000 
     47 H47         6.9504   53.9044   29.2302 H         1 UNK         0.0000 
     48 H48         6.1348   52.6102   28.3875 H         1 UNK         0.0000 
     49 H49         4.9020   55.3224   29.0576 H         1 UNK         0.0000 
     50 H50         4.5747   53.8900   29.9641 H         1 UNK         0.0000 
     51 H51         3.3550   54.1286   25.8382 H         1 UNK         0.0000 
     52 H52         4.0016   55.5815   26.6348 H         1 UNK         0.0000 
     53 H53         1.5045   53.7329   26.4928 H         1 UNK         0.0000 
     54 H54         1.2798   50.8230   27.7353 H         1 UNK         0.0000 
     55 H55         0.3963   51.4158   26.2772 H         1 UNK         0.0000 
     56 H56        -0.6717   53.2744   27.6795 H         1 UNK         0.0000 
     57 H57         0.1950   52.6675   29.1393 H         1 UNK         0.0000 
@<TRIPOS>BOND
     1    1    6 ar   
     2    1    2 ar   
     3    1   35 1    
     4    2    3 ar   
     5    2   36 1    
     6    3    4 ar   
     7    3   37 1    
     8    4    5 ar   
     9    4   20 1    
    10    5    6 ar   
    11    5    7 1    
    12    6   38 1    
    13    7    8 2    
    14    7    9 am   BACKBONE|DICT|INTERRES
    15    9   10 1    
    16    9   39 1    
    17   10   15 ar   
    18   10   11 ar   
    19   11   12 ar   
    20   11   40 1    
    21   12   13 ar   
    22   12   41 1    
    23   13   14 ar   
    24   13   42 1    
    25   14   15 ar   
    26   14   16 1    
    27   15   43 1    
    28   16   17 1    
    29   16   18 1    
    30   16   19 1    
    31   20   21 am   BACKBONE|DICT|INTERRES
    32   20   44 1    
    33   21   22 2    
    34   21   23 1    
    35   23   24 1    
    36   23   29 1    
    37   23   25 1    
    38   25   26 1    
    39   25   45 1    
    40   25   46 1    
    41   26   27 1    
    42   26   47 1    
    43   26   48 1    
    44   27   28 1    
    45   27   49 1    
    46   27   50 1    
    47   28   29 1    
    48   28   30 am   BACKBONE|DICT|INTERRES
    49   29   51 1    
    50   29   52 1    
    51   30   31 2    
    52   30   32 1    
    53   32   34 1    
    54   32   33 1    
    55   32   53 1    
    56   33   34 1    
    57   33   54 1    
    58   33   55 1    
    59   34   56 1    
    60   34   57 1    
@<TRIPOS>SUBSTRUCTURE
     1 UNK         1 GROUP             0       ****    0 ROOT    
