ZINC01499308_621
                    3D
 Schrodinger Suite 2024-2.
 38 40  0  0  1  0            999 V2000
    5.0588   54.3565   28.4039 C   0  0  0  0  0  0
    4.9332   54.3210   26.8914 C   0  0  0  0  0  0
    3.6807   54.4210   26.2787 C   0  0  0  0  0  0
    3.5677   54.3673   24.8875 C   0  0  0  0  0  0
    4.7123   54.2083   24.0979 C   0  0  0  0  0  0
    5.9624   54.0935   24.7131 C   0  0  0  0  0  0
    6.0729   54.1513   26.1027 C   0  0  0  0  0  0
    7.5039   53.6966   23.6711 Br  0  0  0  0  0  0
    4.6224   54.2024   22.7273 O   0  0  0  0  0  0
    4.3495   52.9382   22.1254 C   0  0  0  0  0  0
    4.2102   53.1342   20.6035 C   0  0  0  0  0  0
    4.7166   54.1163   20.0611 O   0  0  0  0  0  0
    3.5276   52.2418   19.8643 N   0  0  0  0  0  0
    2.9983   51.0982   20.3402 N   0  0  0  0  0  0
    2.2912   50.4449   19.4956 C   0  0  0  0  0  0
    1.8185   50.7186   18.1305 C   0  0  0  0  0  0
    1.9442   51.7947   17.2401 C   0  0  0  0  0  0
    1.3619   51.7215   15.9721 C   0  0  0  0  0  0
    0.6517   50.5818   15.5892 C   0  0  0  0  0  0
    0.5153   49.5111   16.4743 C   0  0  0  0  0  0
    1.1037   49.6039   17.7349 C   0  0  0  0  0  0
    1.0985   48.6887   18.7556 N   0  0  0  0  0  0
    1.7695   49.1207   19.8304 C   0  0  0  0  0  0
    1.9071   48.4990   20.8825 O   0  0  0  0  0  0
    1.4838   52.7580   15.1123 F   0  0  0  0  0  0
    1.8464   54.4967   24.0794 Br  0  0  0  0  0  0
    4.0947   54.2296   28.8981 H   0  0  0  0  0  0
    5.5054   55.2961   28.7300 H   0  0  0  0  0  0
    5.7064   53.5481   28.7460 H   0  0  0  0  0  0
    2.7899   54.5347   26.8789 H   0  0  0  0  0  0
    7.0404   54.0331   26.5688 H   0  0  0  0  0  0
    5.1804   52.2539   22.3010 H   0  0  0  0  0  0
    3.4387   52.5011   22.5378 H   0  0  0  0  0  0
    3.4246   52.3757   18.8700 H   0  0  0  0  0  0
    2.4847   52.6925   17.4954 H   0  0  0  0  0  0
    0.2103   50.5320   14.6054 H   0  0  0  0  0  0
   -0.0335   48.6319   16.1719 H   0  0  0  0  0  0
    0.6506   47.7872   18.7158 H   0  0  0  0  0  0
  1  2  1  0  0  0
  1 27  1  0  0  0
  1 28  1  0  0  0
  1 29  1  0  0  0
  2  7  2  0  0  0
  2  3  1  0  0  0
  3  4  2  0  0  0
  3 30  1  0  0  0
  4  5  1  0  0  0
  4 26  1  0  0  0
  5  6  2  0  0  0
  5  9  1  0  0  0
  6  7  1  0  0  0
  6  8  1  0  0  0
  7 31  1  0  0  0
  9 10  1  0  0  0
 10 11  1  0  0  0
 10 32  1  0  0  0
 10 33  1  0  0  0
 11 12  2  0  0  0
 11 13  1  0  0  0
 13 14  1  0  0  0
 13 34  1  0  0  0
 14 15  2  0  0  0
 15 23  1  0  0  0
 15 16  1  0  0  0
 16 21  2  0  0  0
 16 17  1  0  0  0
 17 18  2  0  0  0
 17 35  1  0  0  0
 18 19  1  0  0  0
 18 25  1  0  0  0
 19 20  2  0  0  0
 19 36  1  0  0  0
 20 21  1  0  0  0
 20 37  1  0  0  0
 21 22  1  0  0  0
 22 23  1  0  0  0
 22 38  1  0  0  0
 23 24  2  0  0  0
M  END
> <i_i_glide_confnum>
36

> <i_i_glide_lignum>
622

> <i_i_glide_posenum>
383

> <i_i_glide_rotatable_bonds>
5

> <i_m_Source_File_Index>
825

> <b_m_subgroup_collapsed>
0

> <r_i_docking_score>
-3.8856

> <r_i_glide_ecoul>
-0.141986

> <r_i_glide_eff_state_penalty>
0

> <r_i_glide_einternal>
6.44173

> <r_i_glide_emodel>
-37.4405

> <r_i_glide_energy>
-35.0219

> <r_i_glide_erotb>
0.43159

> <r_i_glide_esite>
-0.171913

> <r_i_glide_evdw>
-34.8799

> <r_i_glide_gscore>
-3.8856

> <r_i_glide_hbond>
0

> <r_i_glide_ligand_efficiency>
-0.149446

> <r_i_glide_ligand_efficiency_ln>
-0.91252

> <r_i_glide_ligand_efficiency_sa>
-0.442734

> <r_i_glide_lipo>
-2.15697

> <r_i_glide_metal>
0

> <r_i_glide_rewards>
-0.223008

> <s_i_glide_gridfile>
wee1_glide-grid

> <s_m_Source_File>
wee1_decoys_glide_SP.sdf

> <s_m_Source_Path>
/Users/zhangxujun/Desktop

> <s_m_entry_id>
1100

> <s_m_entry_name>
wee1_decoys_glide_SP.825

> <s_m_subgroup_title>
wee1_decoys_glide_SP

> <s_m_subgroupid>
wee1_decoys_glide_SP


$$$$
