ZINC28308880_4538
                    3D
 Schrodinger Suite 2024-2.
 51 54  0  0  1  0            999 V2000
   -0.1240   51.7944   23.9473 C   0  0  0  0  0  0
    0.6251   52.9625   23.9700 C   0  0  0  0  0  0
    1.6241   53.1846   23.0271 C   0  0  0  0  0  0
    1.9254   52.2075   22.0345 C   0  0  0  0  0  0
    1.1240   51.0186   22.0027 C   0  0  0  0  0  0
    0.1090   50.8298   22.9738 C   0  0  0  0  0  0
    1.3540   50.0457   21.0003 C   0  0  0  0  0  0
    2.3393   50.2421   20.0419 C   0  0  0  0  0  0
    3.1345   51.3784   20.0743 C   0  0  0  0  0  0
    2.9803   52.3473   21.0651 C   0  0  0  0  0  0
    3.8926   53.4188   21.0088 N   0  0  0  0  0  0
    4.7336   53.7911   22.0082 C   0  0  0  0  0  0
    4.6143   53.2967   23.1242 O   0  0  0  0  0  0
    5.7641   54.8054   21.7075 C   0  0  0  0  0  0
    6.5561   55.3297   22.7013 C   0  0  0  0  0  0
    6.6215   54.9928   24.1452 C   0  0  0  0  0  0
    7.1043   53.7494   24.5321 C   0  0  0  0  0  0
    7.1043   53.4116   25.8850 C   0  0  0  0  0  0
    6.7105   54.2647   26.8652 C   0  0  0  0  0  0
    6.3044   55.5044   26.4889 C   0  0  0  0  0  0
    6.2454   55.8939   25.1445 C   0  0  0  0  0  0
    6.8091   53.9182   28.1860 O   0  0  0  0  0  0
    5.8573   55.1830   20.3779 N   0  0  0  0  0  0
    6.3044   56.3349   19.8317 C   0  0  0  0  0  0
    6.7044   57.2968   20.4818 O   0  0  0  0  0  0
    6.1902   56.4383   18.3291 C   0  0  0  0  0  0
    5.9916   57.6966   17.7395 C   0  0  0  0  0  0
    5.8638   57.8187   16.3597 C   0  0  0  0  0  0
    5.9430   56.6841   15.5569 C   0  0  0  0  0  0
    6.1514   55.4292   16.1241 C   0  0  0  0  0  0
    6.2764   55.3036   17.5054 C   0  0  0  0  0  0
    5.7682   56.8485   13.6690 Br  0  0  0  0  0  0
   -0.8931   51.6348   24.6892 H   0  0  0  0  0  0
    0.4328   53.7000   24.7323 H   0  0  0  0  0  0
    2.1831   54.1072   23.0627 H   0  0  0  0  0  0
   -0.4839   49.9267   22.9579 H   0  0  0  0  0  0
    0.7489   49.1511   20.9753 H   0  0  0  0  0  0
    2.5046   49.5037   19.2693 H   0  0  0  0  0  0
    3.9040   51.4844   19.3215 H   0  0  0  0  0  0
    4.0310   53.7979   20.0879 H   0  0  0  0  0  0
    7.2919   56.0745   22.4408 H   0  0  0  0  0  0
    7.4649   53.0519   23.7903 H   0  0  0  0  0  0
    7.5045   52.4967   26.2318 H   0  0  0  0  0  0
    6.0505   56.0967   27.3356 H   0  0  0  0  0  0
    5.9044   56.8829   24.8817 H   0  0  0  0  0  0
    6.8273   54.6817   28.7751 H   0  0  0  0  0  0
    5.5439   54.4975   19.7104 H   0  0  0  0  0  0
    5.9223   58.5935   18.3419 H   0  0  0  0  0  0
    5.7011   58.7930   15.9197 H   0  0  0  0  0  0
    6.2170   54.5546   15.4931 H   0  0  0  0  0  0
    6.4487   54.3177   17.9139 H   0  0  0  0  0  0
  1  6  2  0  0  0
  1  2  1  0  0  0
  1 33  1  0  0  0
  2  3  2  0  0  0
  2 34  1  0  0  0
  3  4  1  0  0  0
  3 35  1  0  0  0
  4 10  2  0  0  0
  4  5  1  0  0  0
  5  6  1  0  0  0
  5  7  2  0  0  0
  6 36  1  0  0  0
  7  8  1  0  0  0
  7 37  1  0  0  0
  8  9  2  0  0  0
  8 38  1  0  0  0
  9 10  1  0  0  0
  9 39  1  0  0  0
 10 11  1  0  0  0
 11 12  1  0  0  0
 11 40  1  0  0  0
 12 13  2  0  0  0
 12 14  1  0  0  0
 14 15  2  0  0  0
 14 23  1  0  0  0
 15 16  1  0  0  0
 15 41  1  0  0  0
 16 21  2  0  0  0
 16 17  1  0  0  0
 17 18  2  0  0  0
 17 42  1  0  0  0
 18 19  1  0  0  0
 18 43  1  0  0  0
 19 20  2  0  0  0
 19 22  1  0  0  0
 20 21  1  0  0  0
 20 44  1  0  0  0
 21 45  1  0  0  0
 22 46  1  0  0  0
 23 24  1  0  0  0
 23 47  1  0  0  0
 24 25  2  0  0  0
 24 26  1  0  0  0
 26 31  2  0  0  0
 26 27  1  0  0  0
 27 28  2  0  0  0
 27 48  1  0  0  0
 28 29  1  0  0  0
 28 49  1  0  0  0
 29 30  2  0  0  0
 29 32  1  0  0  0
 30 31  1  0  0  0
 30 50  1  0  0  0
 31 51  1  0  0  0
M  END
> <i_i_glide_confnum>
1

> <i_i_glide_lignum>
4539

> <i_i_glide_posenum>
88

> <i_i_glide_rotatable_bonds>
8

> <i_m_Source_File_Index>
5608

> <b_m_subgroup_collapsed>
0

> <r_i_docking_score>
-4.93034

> <r_i_glide_ecoul>
-10.1871

> <r_i_glide_eff_state_penalty>
0

> <r_i_glide_einternal>
9.5254

> <r_i_glide_emodel>
-22.7514

> <r_i_glide_energy>
-21.8481

> <r_i_glide_erotb>
0.427964

> <r_i_glide_esite>
0

> <r_i_glide_evdw>
-11.661

> <r_i_glide_gscore>
-4.93034

> <r_i_glide_hbond>
-0.608

> <r_i_glide_ligand_efficiency>
-0.154073

> <r_i_glide_ligand_efficiency_ln>
-1.10404

> <r_i_glide_ligand_efficiency_sa>
-0.489152

> <r_i_glide_lipo>
-2.27711

> <r_i_glide_metal>
0

> <r_i_glide_rewards>
-0.362077

> <s_i_glide_gridfile>
wee1_glide-grid

> <s_m_Source_File>
wee1_decoys_glide_SP.sdf

> <s_m_Source_Path>
/Users/zhangxujun/Desktop

> <s_m_entry_id>
5883

> <s_m_entry_name>
wee1_decoys_glide_SP.5608

> <s_m_subgroup_title>
wee1_decoys_glide_SP

> <s_m_subgroupid>
wee1_decoys_glide_SP


$$$$
