ZINC58836599_453
                    3D
 Schrodinger Suite 2024-2.
 48 51  0  0  1  0            999 V2000
   -3.2573   46.1497   20.8871 C   0  0  0  0  0  0
   -2.2005   46.9310   20.4434 C   0  0  0  0  0  0
   -1.4374   47.6657   21.3449 C   0  0  0  0  0  0
   -1.7118   47.6434   22.7491 C   0  0  0  0  0  0
   -2.7924   46.8083   23.1882 C   0  0  0  0  0  0
   -3.5583   46.0813   22.2417 C   0  0  0  0  0  0
   -3.0849   46.7131   24.5645 C   0  0  0  0  0  0
   -2.3201   47.4010   25.4906 C   0  0  0  0  0  0
   -1.2805   48.2295   25.0900 C   0  0  0  0  0  0
   -0.9554   48.3923   23.7292 C   0  0  0  0  0  0
    0.1358   49.3255   23.3882 C   0  0  0  0  0  0
    0.1043   50.1465   22.4006 N   0  0  0  0  0  0
    1.2499   50.9067   22.1860 N   0  0  0  0  0  0
    1.1700   52.1836   22.7204 C   0  0  0  0  0  0
    0.1759   52.6617   23.2811 O   0  0  0  0  0  0
    2.4624   53.0233   22.6826 C   0  0  0  0  0  0
    3.1576   52.9695   21.3094 C   0  0  2  0  0  0
    2.4995   53.2967   20.5022 H   0  0  0  0  0  0
    3.7208   51.2972   20.9584 S   0  0  0  0  0  0
    2.2618   50.3424   21.4117 C   0  0  0  0  0  0
    2.3044   49.1517   20.9756 N   0  0  0  0  0  0
    4.4383   53.8346   21.2839 C   0  0  0  0  0  0
    5.1429   53.9185   22.2923 O   0  0  0  0  0  0
    4.7042   54.4522   20.1114 N   0  0  0  0  0  0
    5.8094   55.2389   19.7348 C   0  0  0  0  0  0
    6.9977   55.3517   20.4746 C   0  0  0  0  0  0
    8.0611   56.0965   19.9737 C   0  0  0  0  0  0
    7.9332   56.7563   18.7547 C   0  0  0  0  0  0
    6.7502   56.6711   18.0258 C   0  0  0  0  0  0
    5.6934   55.9056   18.5118 C   0  0  0  0  0  0
    9.3877   57.7828   18.0817 Br  0  0  0  0  0  0
   -0.5996   48.8951   26.0817 O   0  0  0  0  0  0
   -3.8469   45.5919   20.1741 H   0  0  0  0  0  0
   -1.9695   46.9721   19.3888 H   0  0  0  0  0  0
   -0.6181   48.2480   20.9535 H   0  0  0  0  0  0
   -4.3833   45.4691   22.5773 H   0  0  0  0  0  0
   -3.9065   46.0967   24.9000 H   0  0  0  0  0  0
   -2.5503   47.3004   26.5417 H   0  0  0  0  0  0
    0.9941   49.2717   24.0563 H   0  0  0  0  0  0
    3.1044   52.6636   23.4862 H   0  0  0  0  0  0
    2.1987   54.0545   22.9274 H   0  0  0  0  0  0
    3.1521   48.9602   20.4556 H   0  0  0  0  0  0
    4.0130   54.3348   19.3859 H   0  0  0  0  0  0
    7.1365   54.8573   21.4221 H   0  0  0  0  0  0
    8.9866   56.1590   20.5290 H   0  0  0  0  0  0
    6.6566   57.1876   17.0815 H   0  0  0  0  0  0
    4.7878   55.8336   17.9263 H   0  0  0  0  0  0
   -0.8956   48.6439   26.9854 H   0  0  0  0  0  0
  1  6  2  0  0  0
  1  2  1  0  0  0
  1 33  1  0  0  0
  2  3  2  0  0  0
  2 34  1  0  0  0
  3  4  1  0  0  0
  3 35  1  0  0  0
  4 10  2  0  0  0
  4  5  1  0  0  0
  5  6  1  0  0  0
  5  7  2  0  0  0
  6 36  1  0  0  0
  7  8  1  0  0  0
  7 37  1  0  0  0
  8  9  2  0  0  0
  8 38  1  0  0  0
  9 10  1  0  0  0
  9 32  1  0  0  0
 10 11  1  0  0  0
 11 12  2  0  0  0
 11 39  1  0  0  0
 12 13  1  0  0  0
 13 20  1  0  0  0
 13 14  1  0  0  0
 14 15  2  0  0  0
 14 16  1  0  0  0
 16 17  1  0  0  0
 16 40  1  0  0  0
 16 41  1  0  0  0
 17 18  1  0  0  0
 17 19  1  0  0  0
 17 22  1  0  0  0
 19 20  1  0  0  0
 20 21  2  0  0  0
 21 42  1  0  0  0
 22 23  2  0  0  0
 22 24  1  0  0  0
 24 25  1  0  0  0
 24 43  1  0  0  0
 25 30  2  0  0  0
 25 26  1  0  0  0
 26 27  2  0  0  0
 26 44  1  0  0  0
 27 28  1  0  0  0
 27 45  1  0  0  0
 28 29  2  0  0  0
 28 31  1  0  0  0
 29 30  1  0  0  0
 29 46  1  0  0  0
 30 47  1  0  0  0
 32 48  1  0  0  0
M  END
> <i_i_glide_confnum>
136

> <i_i_glide_lignum>
454

> <i_i_glide_posenum>
88

> <i_i_glide_rotatable_bonds>
6

> <i_m_Source_File_Index>
5805

> <b_m_subgroup_collapsed>
0

> <r_i_docking_score>
-4.71999

> <r_i_glide_ecoul>
-11.9209

> <r_i_glide_eff_state_penalty>
0

> <r_i_glide_einternal>
5.54118

> <r_i_glide_emodel>
-59.3882

> <r_i_glide_energy>
-47.3997

> <r_i_glide_erotb>
0.412307

> <r_i_glide_esite>
0

> <r_i_glide_evdw>
-35.4788

> <r_i_glide_gscore>
-4.71999

> <r_i_glide_hbond>
-0.391472

> <r_i_glide_ligand_efficiency>
-0.152258

> <r_i_glide_ligand_efficiency_ln>
-1.0645

> <r_i_glide_ligand_efficiency_sa>
-0.4783

> <r_i_glide_lipo>
-0.596977

> <r_i_glide_metal>
0

> <r_i_glide_rewards>
-0.581779

> <s_i_glide_gridfile>
wee1_glide-grid

> <s_m_Source_File>
wee1_decoys_glide_SP.sdf

> <s_m_Source_Path>
/Users/zhangxujun/Desktop

> <s_m_entry_id>
6080

> <s_m_entry_name>
wee1_decoys_glide_SP.5805

> <s_m_subgroup_title>
wee1_decoys_glide_SP

> <s_m_subgroupid>
wee1_decoys_glide_SP


$$$$
