@<TRIPOS>MOLECULE
ZINC58900026_1868
38   40    1
SMALL
USER_CHARGES


@<TRIPOS>ATOM
      1 C1          0.5939   52.3439   30.3716 C.3       1 UNK         0.0000 
      2 C2          1.0136   53.7558   29.9779 C.ar      1 UNK         0.0000 
      3 C3          0.7044   54.7791   30.8816 C.ar      1 UNK         0.0000 
      4 C4          1.1044   56.0935   30.6388 C.ar      1 UNK         0.0000 
      5 C5          1.7480   56.4109   29.4589 C.ar      1 UNK         0.0000 
      6 C6          2.0380   55.4108   28.5465 C.ar      1 UNK         0.0000 
      7 C7          1.7008   54.0706   28.7826 C.ar      1 UNK         0.0000 
      8 C8          2.1000   53.0211   27.7270 C.3       1 UNK         0.0000 
      9 H9          2.4152   52.1365   28.2787 H         1 UNK         0.0000 
     10 C10         3.2941   53.4520   26.8585 C.ar      1 UNK         0.0000 
     11 C11         4.6232   53.8416   27.1106 C.ar      1 UNK         0.0000 
     12 N12         5.2556   54.1739   25.9993 N.2       1 UNK         0.0000 
     13 N13         4.3763   54.0236   24.9817 N.pl3     1 UNK         0.0000 
     14 C14         3.1661   53.6101   25.4930 C.ar      1 UNK         0.0000 
     15 O15         2.0648   53.3312   24.7215 O.3       1 UNK         0.0000 
     16 C16         1.0182   52.8175   25.4199 C.2       1 UNK         0.0000 
     17 C17         0.9506   52.6340   26.7649 C.2       1 UNK         0.0000 
     18 C18        -0.2535   52.0968   27.3119 C.1       1 UNK         0.0000 
     19 N19        -1.2641   51.6968   27.7051 N.1       1 UNK         0.0000 
     20 N20         0.0471   52.5012   24.5087 N.pl3     1 UNK         0.0000 
     21 C21         4.7590   54.2063   23.6347 C.2       1 UNK         0.0000 
     22 S22         6.3045   54.4967   23.0884 S.2       1 UNK         0.0000 
     23 N23         3.7343   54.0978   22.7553 N.pl3     1 UNK         0.0000 
     24 C24         5.3560   53.9141   28.4306 C.3       1 UNK         0.0000 
     25 H25        -0.4943   52.2802   30.4283 H         1 UNK         0.0000 
     26 H26         0.9408   51.5620   29.7003 H         1 UNK         0.0000 
     27 H27         0.9696   52.1073   31.3685 H         1 UNK         0.0000 
     28 H28         0.1850   54.5470   31.8008 H         1 UNK         0.0000 
     29 H29         0.8926   56.8806   31.3444 H         1 UNK         0.0000 
     30 H30         2.0134   57.4319   29.2493 H         1 UNK         0.0000 
     31 H31         2.5519   55.6966   27.6465 H         1 UNK         0.0000 
     32 H32        -0.8330   52.1200   24.8259 H         1 UNK         0.0000 
     33 H33         0.3002   52.3303   23.5471 H         1 UNK         0.0000 
     34 H34         2.8043   53.8931   23.1004 H         1 UNK         0.0000 
     35 H35         3.9058   54.2032   21.7652 H         1 UNK         0.0000 
     36 H36         4.6960   53.7158   29.2755 H         1 UNK         0.0000 
     37 H37         6.1662   53.1868   28.4799 H         1 UNK         0.0000 
     38 H38         5.7981   54.8968   28.5974 H         1 UNK         0.0000 
@<TRIPOS>BOND
     1    1    2 1    
     2    1   25 1    
     3    1   26 1    
     4    1   27 1    
     5    2    7 ar   
     6    2    3 ar   
     7    3    4 ar   
     8    3   28 1    
     9    4    5 ar   
    10    4   29 1    
    11    5    6 ar   
    12    5   30 1    
    13    6    7 ar   
    14    6   31 1    
    15    7    8 1    
    16    8    9 1    
    17    8   17 1    
    18    8   10 1    
    19   10   14 ar   
    20   10   11 ar   
    21   11   12 ar   
    22   11   24 1    
    23   12   13 ar   
    24   13   14 ar   
    25   13   21 1    
    26   14   15 1    
    27   15   16 1    
    28   16   17 2    
    29   16   20 1    
    30   17   18 1    
    31   18   19 3    
    32   20   32 1    
    33   20   33 1    
    34   21   22 2    
    35   21   23 1    
    36   23   34 1    
    37   23   35 1    
    38   24   36 1    
    39   24   37 1    
    40   24   38 1    
@<TRIPOS>SUBSTRUCTURE
     1 UNK         1 GROUP             0       ****    0 ROOT    
