@<TRIPOS>MOLECULE
ZINC42755484_1685
28   29    1
SMALL
USER_CHARGES


@<TRIPOS>ATOM
      1 C1          5.2893   54.9051   18.0980 C.ar      1 UNK         0.0000 
      2 C2          4.7362   54.8679   16.8203 C.ar      1 UNK         0.0000 
      3 C3          4.6085   56.0402   16.0813 C.ar      1 UNK         0.0000 
      4 C4          5.0334   57.2542   16.6104 C.ar      1 UNK         0.0000 
      5 C5          5.5927   57.2937   17.8856 C.ar      1 UNK         0.0000 
      6 C6          5.7273   56.1222   18.6486 C.ar      1 UNK         0.0000 
      7 C7          6.3045   56.2090   20.0491 C.2       1 UNK         0.0000 
      8 O8          6.7044   57.2945   20.4820 O.2       1 UNK         0.0000 
      9 N9          6.3247   55.0578   20.7592 N.am      1 UNK         0.0000 
     10 N10         6.8482   55.0698   22.0582 N.am      1 UNK         0.0000 
     11 C11         6.0882   54.5013   23.0195 C.2       1 UNK         0.0000 
     12 O12         4.9751   54.0025   22.8262 O.2       1 UNK         0.0000 
     13 N13         6.6759   54.6181   24.2293 N.am      1 UNK         0.0000 
     14 C14         6.0515   54.5211   25.4747 C.2       1 UNK         0.0000 
     15 N15         6.7443   54.5657   26.5846 N.2       1 UNK         0.0000 
     16 C16         5.9828   54.4848   27.6576 C.2       1 UNK         0.0000 
     17 C17         4.6142   54.3751   27.4316 C.2       1 UNK         0.0000 
     18 S18         4.3219   54.3958   25.7193 S.3       1 UNK         0.0000 
     19 F19         4.0699   55.9959   14.8413 F         1 UNK         0.0000 
     20 H20         5.3587   53.9737   18.6425 H         1 UNK         0.0000 
     21 H21         4.4029   53.9282   16.4032 H         1 UNK         0.0000 
     22 H22         4.9286   58.1642   16.0367 H         1 UNK         0.0000 
     23 H23         5.9068   58.2538   18.2742 H         1 UNK         0.0000 
     24 H24         6.4765   54.1754   20.2968 H         1 UNK         0.0000 
     25 H25         7.8455   54.8984   22.0436 H         1 UNK         0.0000 
     26 H26         7.6433   54.9086   24.2436 H         1 UNK         0.0000 
     27 H27         6.4566   54.4982   28.6301 H         1 UNK         0.0000 
     28 H28         3.8082   54.2871   28.1444 H         1 UNK         0.0000 
@<TRIPOS>BOND
     1    1    6 ar   
     2    1    2 ar   
     3    1   20 1    
     4    2    3 ar   
     5    2   21 1    
     6    3    4 ar   
     7    3   19 1    
     8    4    5 ar   
     9    4   22 1    
    10    5    6 ar   
    11    5   23 1    
    12    6    7 1    
    13    7    8 2    
    14    7    9 am   BACKBONE|DICT|INTERRES
    15    9   10 1    
    16    9   24 1    
    17   10   11 am   BACKBONE|DICT|INTERRES
    18   10   25 1    
    19   11   12 2    
    20   11   13 am   BACKBONE|DICT|INTERRES
    21   13   14 am   BACKBONE|DICT|INTERRES
    22   13   26 1    
    23   14   18 1    
    24   14   15 2    
    25   15   16 1    
    26   16   17 2    
    27   16   27 1    
    28   17   18 1    
    29   17   28 1    
@<TRIPOS>SUBSTRUCTURE
     1 UNK         1 GROUP             0       ****    0 ROOT    
