@<TRIPOS>MOLECULE
ZINC66720122_1455
55   57    1
SMALL
USER_CHARGES


@<TRIPOS>ATOM
      1 C1          6.8404   54.0899   27.5674 C.3       1 UNK         0.0000 
      2 C2          5.9879   54.2606   26.3178 C.ar      1 UNK         0.0000 
      3 C3          6.6460   54.5212   25.1091 C.ar      1 UNK         0.0000 
      4 C4          5.9454   54.6611   23.9117 C.ar      1 UNK         0.0000 
      5 C5          4.5527   54.4965   23.9319 C.ar      1 UNK         0.0000 
      6 C6          3.8854   54.2453   25.1276 C.ar      1 UNK         0.0000 
      7 C7          4.5796   54.1395   26.3417 C.ar      1 UNK         0.0000 
      8 C8          3.8003   53.9423   27.6291 C.2       1 UNK         0.0000 
      9 O9          4.1375   54.4972   28.6749 O.2       1 UNK         0.0000 
     10 N10         2.7182   53.1444   27.5461 N.am      1 UNK         0.0000 
     11 C11         1.8020   52.8298   28.6421 C.3       1 UNK         0.0000 
     12 C12         0.5089   52.2052   28.0966 C.3       1 UNK         0.0000 
     13 C13         2.4506   51.9283   29.7096 C.3       1 UNK         0.0000 
     14 N14         6.7044   55.0157   22.7718 N.am      1 UNK         0.0000 
     15 C15         6.2997   55.1750   21.4856 C.2       1 UNK         0.0000 
     16 O16         5.1720   54.8959   21.0744 O.2       1 UNK         0.0000 
     17 C17         7.3868   55.6967   20.5845 C.2       1 UNK         0.0000 
     18 O18         8.5646   55.6911   20.9558 O.2       1 UNK         0.0000 
     19 N19         7.0467   56.1587   19.3404 N.am      1 UNK         0.0000 
     20 C20         5.7124   56.5950   18.8917 C.3       1 UNK         0.0000 
     21 C21         6.0403   57.6641   17.8534 C.3       1 UNK         0.0000 
     22 C22         7.3035   57.1511   17.1944 C.3       1 UNK         0.0000 
     23 C23         8.0880   56.5013   18.3439 C.3       1 UNK         0.0000 
     24 H24         8.7775   57.2351   18.7666 H         1 UNK         0.0000 
     25 C25         8.9353   55.3185   17.8750 C.2       1 UNK         0.0000 
     26 C26        10.3049   55.2843   17.6269 C.2       1 UNK         0.0000 
     27 C27        10.5877   53.9836   17.2811 C.2       1 UNK         0.0000 
     28 O28         9.4297   53.2810   17.2813 O.3       1 UNK         0.0000 
     29 N29         8.3923   54.1359   17.6544 N.2       1 UNK         0.0000 
     30 C30        11.8448   53.2282   16.9429 C.3       1 UNK         0.0000 
     31 H31         7.9043   54.0848   27.3464 H         1 UNK         0.0000 
     32 H32         6.6388   54.8961   28.2697 H         1 UNK         0.0000 
     33 H33         6.6017   53.1505   28.0656 H         1 UNK         0.0000 
     34 H34         7.7190   54.6232   25.0946 H         1 UNK         0.0000 
     35 H35         3.9504   54.5957   23.0433 H         1 UNK         0.0000 
     36 H36         2.8082   54.1658   25.0953 H         1 UNK         0.0000 
     37 H37         2.5231   52.7060   26.6605 H         1 UNK         0.0000 
     38 H38         1.5197   53.7707   29.1214 H         1 UNK         0.0000 
     39 H39        -0.1689   51.9441   28.9099 H         1 UNK         0.0000 
     40 H40         0.7023   51.2807   27.5519 H         1 UNK         0.0000 
     41 H41        -0.0276   52.8965   27.4449 H         1 UNK         0.0000 
     42 H42         1.7361   51.6968   30.4999 H         1 UNK         0.0000 
     43 H43         2.7683   50.9760   29.2810 H         1 UNK         0.0000 
     44 H44         3.3061   52.4100   30.1829 H         1 UNK         0.0000 
     45 H45         7.6846   55.2154   22.9435 H         1 UNK         0.0000 
     46 H46         5.2049   55.7716   18.3879 H         1 UNK         0.0000 
     47 H47         5.1101   57.0385   19.6819 H         1 UNK         0.0000 
     48 H48         5.2197   57.8324   17.1536 H         1 UNK         0.0000 
     49 H49         6.2346   58.6212   18.3447 H         1 UNK         0.0000 
     50 H50         7.0505   56.4216   16.4225 H         1 UNK         0.0000 
     51 H51         7.8669   57.9529   16.7133 H         1 UNK         0.0000 
     52 H52        11.0074   56.0966   17.7356 H         1 UNK         0.0000 
     53 H53        12.7180   53.8814   16.9310 H         1 UNK         0.0000 
     54 H54        12.0391   52.4431   17.6751 H         1 UNK         0.0000 
     55 H55        11.7743   52.7534   15.9640 H         1 UNK         0.0000 
@<TRIPOS>BOND
     1    1    2 1    
     2    1   31 1    
     3    1   32 1    
     4    1   33 1    
     5    2    7 ar   
     6    2    3 ar   
     7    3    4 ar   
     8    3   34 1    
     9    4    5 ar   
    10    4   14 1    
    11    5    6 ar   
    12    5   35 1    
    13    6    7 ar   
    14    6   36 1    
    15    7    8 1    
    16    8    9 2    
    17    8   10 am   BACKBONE|DICT|INTERRES
    18   10   11 1    
    19   10   37 1    
    20   11   12 1    
    21   11   13 1    
    22   11   38 1    
    23   12   39 1    
    24   12   40 1    
    25   12   41 1    
    26   13   42 1    
    27   13   43 1    
    28   13   44 1    
    29   14   15 am   BACKBONE|DICT|INTERRES
    30   14   45 1    
    31   15   16 2    
    32   15   17 1    
    33   17   18 2    
    34   17   19 am   BACKBONE|DICT|INTERRES
    35   19   23 1    
    36   19   20 1    
    37   20   21 1    
    38   20   46 1    
    39   20   47 1    
    40   21   22 1    
    41   21   48 1    
    42   21   49 1    
    43   22   23 1    
    44   22   50 1    
    45   22   51 1    
    46   23   24 1    
    47   23   25 1    
    48   25   29 2    
    49   25   26 1    
    50   26   27 2    
    51   26   52 1    
    52   27   28 1    
    53   27   30 1    
    54   28   29 1    
    55   30   53 1    
    56   30   54 1    
    57   30   55 1    
@<TRIPOS>SUBSTRUCTURE
     1 UNK         1 GROUP             0       ****    0 ROOT    
