@<TRIPOS>MOLECULE
ZINC12384474_1638
44   45    1
SMALL
USER_CHARGES


@<TRIPOS>ATOM
      1 C1          2.9942   51.6967   28.6283 C.3       1 UNK         0.0000 
      2 C2          1.9252   52.6938   29.1300 C.3       1 UNK         0.0000 
      3 C3          0.5030   52.4132   28.4783 C.3       1 UNK         0.0000 
      4 H4         -0.0585   51.7072   29.0964 H         1 UNK         0.0000 
      5 C5         -0.1864   53.7843   28.4997 C.3       1 UNK         0.0000 
      6 C6          0.9055   54.8647   28.5249 C.3       1 UNK         0.0000 
      7 C7          2.2881   54.1801   28.6649 C.3       1 UNK         0.0000 
      8 C8          3.1403   54.9879   29.6807 C.3       1 UNK         0.0000 
      9 C9          3.0999   54.2778   27.3354 C.3       1 UNK         0.0000 
     10 C10         0.4698   51.8014   27.0398 C.2       1 UNK         0.0000 
     11 O11         0.7476   52.5072   26.0671 O.2       1 UNK         0.0000 
     12 N12         0.1205   50.4977   26.9030 N.am      1 UNK         0.0000 
     13 N13         0.3048   49.8912   25.6549 N.am      1 UNK         0.0000 
     14 C14        -0.6900   49.8880   24.7405 C.2       1 UNK         0.0000 
     15 O15        -1.8570   50.2106   24.9825 O.2       1 UNK         0.0000 
     16 C16        -0.2812   49.4875   23.3401 C.ar      1 UNK         0.0000 
     17 C17        -1.2363   48.9658   22.4579 C.ar      1 UNK         0.0000 
     18 C18        -0.8919   48.6655   21.1419 C.ar      1 UNK         0.0000 
     19 C19         0.4088   48.8915   20.6985 C.ar      1 UNK         0.0000 
     20 C20         1.3735   49.3987   21.5633 C.ar      1 UNK         0.0000 
     21 C21         1.0308   49.6965   22.8794 C.ar      1 UNK         0.0000 
     22 C22         1.8982   52.5007   30.6899 C.2       1 UNK         0.0000 
     23 O23         0.8658   52.8656   31.2899 O.co2     1 UNK         0.0000 
     24 O24         2.9214   52.0807   31.2817 O.co2     1 UNK         0.0000 
     25 H25         3.0934   51.7308   27.5554 H         1 UNK         0.0000 
     26 H26         3.9907   51.8898   29.0310 H         1 UNK         0.0000 
     27 H27         2.7044   50.6760   28.8817 H         1 UNK         0.0000 
     28 H28        -0.7823   53.8569   29.4113 H         1 UNK         0.0000 
     29 H29        -0.8952   53.9188   27.6827 H         1 UNK         0.0000 
     30 H30         0.7044   55.4807   29.4025 H         1 UNK         0.0000 
     31 H31         0.8478   55.5457   27.6817 H         1 UNK         0.0000 
     32 H32         3.4943   55.9318   29.2672 H         1 UNK         0.0000 
     33 H33         2.5503   55.2597   30.5479 H         1 UNK         0.0000 
     34 H34         4.0163   54.4307   30.0166 H         1 UNK         0.0000 
     35 H35         3.1938   55.3062   27.0000 H         1 UNK         0.0000 
     36 H36         4.1169   53.9020   27.4572 H         1 UNK         0.0000 
     37 H37         2.6705   53.7430   26.4998 H         1 UNK         0.0000 
     38 H38        -0.1563   49.8580   27.6386 H         1 UNK         0.0000 
     39 H39         1.1151   49.2902   25.6151 H         1 UNK         0.0000 
     40 H40        -2.2542   48.8044   22.7839 H         1 UNK         0.0000 
     41 H41        -1.6338   48.2690   20.4648 H         1 UNK         0.0000 
     42 H42         0.6748   48.6661   19.6757 H         1 UNK         0.0000 
     43 H43         2.3812   49.5678   21.2120 H         1 UNK         0.0000 
     44 H44         1.7925   50.1123   23.5235 H         1 UNK         0.0000 
@<TRIPOS>BOND
     1    1    2 1    
     2    1   25 1    
     3    1   26 1    
     4    1   27 1    
     5    2    7 1    
     6    2    3 1    
     7    2   22 1    
     8    3    4 1    
     9    3    5 1    
    10    3   10 1    
    11    5    6 1    
    12    5   28 1    
    13    5   29 1    
    14    6    7 1    
    15    6   30 1    
    16    6   31 1    
    17    7    8 1    
    18    7    9 1    
    19    8   32 1    
    20    8   33 1    
    21    8   34 1    
    22    9   35 1    
    23    9   36 1    
    24    9   37 1    
    25   10   11 2    
    26   10   12 am   BACKBONE|DICT|INTERRES
    27   12   13 1    
    28   12   38 1    
    29   13   14 am   BACKBONE|DICT|INTERRES
    30   13   39 1    
    31   14   15 2    
    32   14   16 1    
    33   16   21 ar   
    34   16   17 ar   
    35   17   18 ar   
    36   17   40 1    
    37   18   19 ar   
    38   18   41 1    
    39   19   20 ar   
    40   19   42 1    
    41   20   21 ar   
    42   20   43 1    
    43   21   44 1    
    44   22   23 2    
    45   22   24 1    
@<TRIPOS>SUBSTRUCTURE
     1 UNK         1 GROUP             0       ****    0 ROOT    
