@<TRIPOS>MOLECULE
ZINC08680756_724
64   69    1
SMALL
USER_CHARGES


@<TRIPOS>ATOM
      1 C1         -6.8840   45.8244   24.4688 C.ar      1 UNK         0.0000 
      2 C2         -6.1533   46.3504   23.4057 C.ar      1 UNK         0.0000 
      3 C3         -4.8224   46.7097   23.5961 C.ar      1 UNK         0.0000 
      4 C4         -4.2209   46.5599   24.8566 C.ar      1 UNK         0.0000 
      5 C5         -4.9649   46.0104   25.9102 C.ar      1 UNK         0.0000 
      6 C6         -6.2945   45.6476   25.7177 C.ar      1 UNK         0.0000 
      7 C7         -2.7608   46.8956   25.0784 C.2       1 UNK         0.0000 
      8 O8         -2.0955   46.0975   25.7384 O.2       1 UNK         0.0000 
      9 N9         -2.2118   48.0039   24.5039 N.am      1 UNK         0.0000 
     10 C10        -3.0127   49.1748   24.0687 C.3       1 UNK         0.0000 
     11 C11        -2.6211   50.4190   24.9011 C.3       1 UNK         0.0000 
     12 C12        -0.4076   49.3671   25.4498 C.3       1 UNK         0.0000 
     13 C13        -0.7400   48.1776   24.5341 C.3       1 UNK         0.0000 
     14 C14        -0.6055   51.9664   25.4536 C.3       1 UNK         0.0000 
     15 H15        -1.3810   52.6773   25.1600 H         1 UNK         0.0000 
     16 C16        -0.4497   51.9538   26.9710 C.ar      1 UNK         0.0000 
     17 C17        -1.2661   51.5362   28.0268 C.ar      1 UNK         0.0000 
     18 C18        -0.8523   51.6969   29.3542 C.ar      1 UNK         0.0000 
     19 C19         0.3744   52.2940   29.6660 C.ar      1 UNK         0.0000 
     20 C20         1.2285   52.7286   28.6219 C.ar      1 UNK         0.0000 
     21 C21         0.7788   52.5324   27.2981 C.ar      1 UNK         0.0000 
     22 C22         1.5164   52.8969   26.1689 C.ar      1 UNK         0.0000 
     23 C23         2.7586   53.5047   26.3715 C.ar      1 UNK         0.0000 
     24 C24         3.2406   53.7215   27.6686 C.ar      1 UNK         0.0000 
     25 C25         2.4971   53.3383   28.7927 C.ar      1 UNK         0.0000 
     26 C26         0.7567   52.5058   24.9172 C.3       1 UNK         0.0000 
     27 H27         0.5899   53.3674   24.2678 H         1 UNK         0.0000 
     28 N28         1.5042   51.5367   24.0814 N.pl3     1 UNK         0.0000 
     29 S29         1.2263   51.4412   22.3480 S.o2      1 UNK         0.0000 
     30 O30         1.4477   50.0426   21.9675 O.2       1 UNK         0.0000 
     31 O31        -0.0545   52.0963   22.0600 O.2       1 UNK         0.0000 
     32 C32         2.5363   52.3981   21.5889 C.ar      1 UNK         0.0000 
     33 C33         3.1473   53.4437   22.2862 C.ar      1 UNK         0.0000 
     34 C34         4.2277   54.1130   21.7203 C.ar      1 UNK         0.0000 
     35 C35         4.6666   53.7700   20.4437 C.ar      1 UNK         0.0000 
     36 C36         4.0393   52.7514   19.7309 C.ar      1 UNK         0.0000 
     37 C37         2.9801   52.0548   20.3080 C.ar      1 UNK         0.0000 
     38 H38        -7.9166   45.5426   24.3240 H         1 UNK         0.0000 
     39 H39        -6.6157   46.4708   22.4366 H         1 UNK         0.0000 
     40 H40        -4.2644   47.0959   22.7530 H         1 UNK         0.0000 
     41 H41        -4.5169   45.8648   26.8853 H         1 UNK         0.0000 
     42 H42        -6.8657   45.2320   26.5366 H         1 UNK         0.0000 
     43 H43        -2.8567   49.3668   23.0059 H         1 UNK         0.0000 
     44 H44        -4.0805   49.0237   24.2271 H         1 UNK         0.0000 
     45 H45        -2.9536   50.3568   25.9375 H         1 UNK         0.0000 
     46 H46        -3.0549   51.3048   24.4355 H         1 UNK         0.0000 
     47 H47        -0.7329   49.2250   26.4819 H         1 UNK         0.0000 
     48 H48         0.6693   49.5361   25.4470 H         1 UNK         0.0000 
     49 H49        -0.2098   47.2924   24.8901 H         1 UNK         0.0000 
     50 H50        -0.3694   48.3704   23.5259 H         1 UNK         0.0000 
     51 H51        -2.2206   51.0653   27.8504 H         1 UNK         0.0000 
     52 H52        -1.4835   51.3348   30.1563 H         1 UNK         0.0000 
     53 H53         0.6759   52.4117   30.6960 H         1 UNK         0.0000 
     54 H54         3.3727   53.7976   25.5336 H         1 UNK         0.0000 
     55 H55         4.2088   54.1816   27.8030 H         1 UNK         0.0000 
     56 H56         2.8855   53.4985   29.7875 H         1 UNK         0.0000 
     57 H57         2.4864   51.4293   24.3455 H         1 UNK         0.0000 
     58 H58         2.8098   53.7267   23.2706 H         1 UNK         0.0000 
     59 H59         4.7214   54.8967   22.2696 H         1 UNK         0.0000 
     60 H60         5.4993   54.2952   19.9995 H         1 UNK         0.0000 
     61 H61         4.3885   52.4783   18.7434 H         1 UNK         0.0000 
     62 H62         2.5192   51.2453   19.7601 H         1 UNK         0.0000 
     63 N63        -1.0916   50.6164   24.8518 N.4       1 UNK         0.0000 
     64 H64        -0.8085   50.6752   23.8828 H         1 UNK         0.0000 
@<TRIPOS>BOND
     1    1    6 ar   
     2    1    2 ar   
     3    1   38 1    
     4    2    3 ar   
     5    2   39 1    
     6    3    4 ar   
     7    3   40 1    
     8    4    5 ar   
     9    4    7 1    
    10    5    6 ar   
    11    5   41 1    
    12    6   42 1    
    13    7    8 2    
    14    7    9 am   BACKBONE|DICT|INTERRES
    15    9   13 1    
    16    9   10 1    
    17   10   11 1    
    18   10   43 1    
    19   10   44 1    
    20   11   45 1    
    21   11   46 1    
    22   11   63 1    
    23   12   13 1    
    24   12   47 1    
    25   12   48 1    
    26   12   63 1    
    27   13   49 1    
    28   13   50 1    
    29   14   15 1    
    30   14   26 1    
    31   14   16 1    
    32   14   63 1    
    33   16   21 ar   
    34   16   17 ar   
    35   17   18 ar   
    36   17   51 1    
    37   18   19 ar   
    38   18   52 1    
    39   19   20 ar   
    40   19   53 1    
    41   20   25 ar   
    42   20   21 ar   
    43   21   22 ar   
    44   22   23 ar   
    45   22   26 1    
    46   23   24 ar   
    47   23   54 1    
    48   24   25 ar   
    49   24   55 1    
    50   25   56 1    
    51   26   27 1    
    52   26   28 1    
    53   28   29 1    
    54   28   57 1    
    55   29   30 2    
    56   29   31 2    
    57   29   32 1    
    58   32   37 ar   
    59   32   33 ar   
    60   33   34 ar   
    61   33   58 1    
    62   34   35 ar   
    63   34   59 1    
    64   35   36 ar   
    65   35   60 1    
    66   36   37 ar   
    67   36   61 1    
    68   37   62 1    
    69   63   64 1    
@<TRIPOS>SUBSTRUCTURE
     1 UNK         1 GROUP             0       ****    0 ROOT    
