@<TRIPOS>MOLECULE
ZINC22856382_5493
74   77    1
SMALL
USER_CHARGES


@<TRIPOS>ATOM
      1 C1         -7.5286   44.0864   26.3209 C.3       1 UNK         0.0000 
      2 C2         -6.2841   44.9508   26.2409 C.ar      1 UNK         0.0000 
      3 C3         -5.2033   44.7048   27.0882 C.ar      1 UNK         0.0000 
      4 C4         -4.0576   45.4937   27.0095 C.ar      1 UNK         0.0000 
      5 C5         -3.9577   46.5057   26.0560 C.ar      1 UNK         0.0000 
      6 C6         -5.0532   46.7768   25.2079 C.ar      1 UNK         0.0000 
      7 C7         -6.2064   45.9897   25.3114 C.ar      1 UNK         0.0000 
      8 C8         -5.0502   47.9391   24.2212 C.3       1 UNK         0.0000 
      9 N9         -2.7501   47.2169   25.9940 N.am      1 UNK         0.0000 
     10 C10        -1.9403   47.2394   24.9044 C.2       1 UNK         0.0000 
     11 O11        -2.0967   46.4838   23.9372 O.2       1 UNK         0.0000 
     12 C12        -0.8668   48.2840   24.8913 C.2       1 UNK         0.0000 
     13 O13        -0.3228   48.6225   23.8370 O.2       1 UNK         0.0000 
     14 N14        -0.5491   48.8364   26.0817 N.am      1 UNK         0.0000 
     15 C15         0.3042   49.9880   26.3119 C.3       1 UNK         0.0000 
     16 C16        -0.3808   51.0061   27.2740 C.3       1 UNK         0.0000 
     17 H17        -0.5023   50.4967   28.2276 H         1 UNK         0.0000 
     18 C18        -1.8079   51.4011   26.8639 C.ar      1 UNK         0.0000 
     19 C19        -2.1056   51.8705   25.5811 C.ar      1 UNK         0.0000 
     20 C20        -3.4164   52.1969   25.2404 C.ar      1 UNK         0.0000 
     21 C21        -4.4680   52.0345   26.1589 C.ar      1 UNK         0.0000 
     22 C22        -4.1559   51.5293   27.4303 C.ar      1 UNK         0.0000 
     23 C23        -2.8446   51.2292   27.7823 C.ar      1 UNK         0.0000 
     24 N24        -5.8086   52.3743   25.8251 N.pl3     1 UNK         0.0000 
     25 C25        -6.9152   51.7954   26.5896 C.3       1 UNK         0.0000 
     26 C26        -6.1336   52.8521   24.4819 C.3       1 UNK         0.0000 
     27 N27         0.4320   52.1846   27.6160 N.3       1 UNK         0.0000 
     28 C28         1.0500   52.8108   26.4495 C.3       1 UNK         0.0000 
     29 C29         1.7621   54.0967   26.8614 C.3       1 UNK         0.0000 
     30 N30         2.8310   53.8882   27.8427 N.pl3     1 UNK         0.0000 
     31 C31         2.2546   53.1595   28.9935 C.3       1 UNK         0.0000 
     32 C32         1.4960   51.8720   28.5832 C.3       1 UNK         0.0000 
     33 C33         4.1836   54.0387   27.5392 C.ar      1 UNK         0.0000 
     34 C34         5.1768   53.5198   28.3833 C.ar      1 UNK         0.0000 
     35 C35         6.5200   53.6912   28.0817 C.ar      1 UNK         0.0000 
     36 C36         6.8759   54.3686   26.9278 C.ar      1 UNK         0.0000 
     37 C37         5.9273   54.8968   26.0738 C.ar      1 UNK         0.0000 
     38 C38         4.5892   54.7431   26.3895 C.ar      1 UNK         0.0000 
     39 H39        -7.2954   43.0893   26.6959 H         1 UNK         0.0000 
     40 H40        -7.9702   43.9523   25.3330 H         1 UNK         0.0000 
     41 H41        -8.2734   44.5446   26.9719 H         1 UNK         0.0000 
     42 H42        -5.2366   43.8974   27.8051 H         1 UNK         0.0000 
     43 H43        -3.2329   45.2972   27.6813 H         1 UNK         0.0000 
     44 H44        -7.0505   46.1892   24.6668 H         1 UNK         0.0000 
     45 H45        -4.5083   47.6743   23.3126 H         1 UNK         0.0000 
     46 H46        -6.0625   48.2430   23.9512 H         1 UNK         0.0000 
     47 H47        -4.5725   48.8159   24.6611 H         1 UNK         0.0000 
     48 H48        -2.4987   47.7568   26.8158 H         1 UNK         0.0000 
     49 H49        -0.9614   48.4963   26.9657 H         1 UNK         0.0000 
     50 H50         1.2410   49.6353   26.7380 H         1 UNK         0.0000 
     51 H51         0.5600   50.4594   25.3625 H         1 UNK         0.0000 
     52 H52        -1.3283   51.9743   24.8397 H         1 UNK         0.0000 
     53 H53        -3.5961   52.5611   24.2409 H         1 UNK         0.0000 
     54 H54        -4.9182   51.3710   28.1763 H         1 UNK         0.0000 
     55 H55        -2.6406   50.8361   28.7694 H         1 UNK         0.0000 
     56 H56        -6.8765   50.7062   26.5372 H         1 UNK         0.0000 
     57 H57        -6.8649   52.0788   27.6414 H         1 UNK         0.0000 
     58 H58        -7.8868   52.1100   26.2063 H         1 UNK         0.0000 
     59 H59        -5.4791   53.6724   24.1843 H         1 UNK         0.0000 
     60 H60        -6.0082   52.0482   23.7547 H         1 UNK         0.0000 
     61 H61        -7.1612   53.2117   24.4156 H         1 UNK         0.0000 
     62 H62         1.7781   52.1534   25.9706 H         1 UNK         0.0000 
     63 H63         0.2949   53.0721   25.7125 H         1 UNK         0.0000 
     64 H64         1.0960   54.8450   27.2818 H         1 UNK         0.0000 
     65 H65         2.1123   54.4966   25.9209 H         1 UNK         0.0000 
     66 H66         1.5724   53.8409   29.5043 H         1 UNK         0.0000 
     67 H67         2.9949   52.8976   29.7434 H         1 UNK         0.0000 
     68 H68         1.0530   51.4408   29.4817 H         1 UNK         0.0000 
     69 H69         2.2082   51.1548   28.1729 H         1 UNK         0.0000 
     70 H70         4.9428   52.9749   29.2809 H         1 UNK         0.0000 
     71 H71         7.2832   53.2967   28.7360 H         1 UNK         0.0000 
     72 H72         7.9048   54.4967   26.6906 H         1 UNK         0.0000 
     73 H73         6.2239   55.4354   25.1853 H         1 UNK         0.0000 
     74 H74         3.8995   55.2164   25.7131 H         1 UNK         0.0000 
@<TRIPOS>BOND
     1    1    2 1    
     2    1   39 1    
     3    1   40 1    
     4    1   41 1    
     5    2    7 ar   
     6    2    3 ar   
     7    3    4 ar   
     8    3   42 1    
     9    4    5 ar   
    10    4   43 1    
    11    5    6 ar   
    12    5    9 1    
    13    6    7 ar   
    14    6    8 1    
    15    7   44 1    
    16    8   45 1    
    17    8   46 1    
    18    8   47 1    
    19    9   10 am   BACKBONE|DICT|INTERRES
    20    9   48 1    
    21   10   11 2    
    22   10   12 1    
    23   12   13 2    
    24   12   14 am   BACKBONE|DICT|INTERRES
    25   14   15 1    
    26   14   49 1    
    27   15   16 1    
    28   15   50 1    
    29   15   51 1    
    30   16   17 1    
    31   16   18 1    
    32   16   27 1    
    33   18   23 ar   
    34   18   19 ar   
    35   19   20 ar   
    36   19   52 1    
    37   20   21 ar   
    38   20   53 1    
    39   21   22 ar   
    40   21   24 1    
    41   22   23 ar   
    42   22   54 1    
    43   23   55 1    
    44   24   25 1    
    45   24   26 1    
    46   25   56 1    
    47   25   57 1    
    48   25   58 1    
    49   26   59 1    
    50   26   60 1    
    51   26   61 1    
    52   27   32 1    
    53   27   28 1    
    54   28   29 1    
    55   28   62 1    
    56   28   63 1    
    57   29   30 1    
    58   29   64 1    
    59   29   65 1    
    60   30   31 1    
    61   30   33 1    
    62   31   32 1    
    63   31   66 1    
    64   31   67 1    
    65   32   68 1    
    66   32   69 1    
    67   33   38 ar   
    68   33   34 ar   
    69   34   35 ar   
    70   34   70 1    
    71   35   36 ar   
    72   35   71 1    
    73   36   37 ar   
    74   36   72 1    
    75   37   38 ar   
    76   37   73 1    
    77   38   74 1    
@<TRIPOS>SUBSTRUCTURE
     1 UNK         1 GROUP             0       ****    0 ROOT    
