@<TRIPOS>MOLECULE
ZINC43657839_4582
52   54    1
SMALL
USER_CHARGES


@<TRIPOS>ATOM
      1 C1          4.1460   55.8850   17.7082 C.3       1 UNK         0.0000 
      2 C2          5.3515   54.9665   18.0111 C.3       1 UNK         0.0000 
      3 H3          5.4453   54.3073   17.1466 H         1 UNK         0.0000 
      4 C4          6.7185   55.6748   18.1006 C.ar      1 UNK         0.0000 
      5 C5          6.8518   57.0625   17.9574 C.ar      1 UNK         0.0000 
      6 C6          8.1000   57.6678   18.0796 C.ar      1 UNK         0.0000 
      7 C7          9.2196   56.8852   18.3453 C.ar      1 UNK         0.0000 
      8 C8          9.1046   55.5050   18.4813 C.ar      1 UNK         0.0000 
      9 C9          7.8583   54.9043   18.3570 C.ar      1 UNK         0.0000 
     10 N10         5.0529   54.0722   19.1415 N.am      1 UNK         0.0000 
     11 C11         5.0575   54.4055   20.4432 C.2       1 UNK         0.0000 
     12 O12         5.7594   55.2957   20.9250 O.2       1 UNK         0.0000 
     13 N13         4.1603   53.6717   21.1279 N.am      1 UNK         0.0000 
     14 C14         3.8816   53.7193   22.5037 C.ar      1 UNK         0.0000 
     15 C15         2.6008   53.3345   22.8982 C.ar      1 UNK         0.0000 
     16 C16         2.2518   53.3357   24.2470 C.ar      1 UNK         0.0000 
     17 C17         3.1863   53.7102   25.2290 C.ar      1 UNK         0.0000 
     18 C18         4.4698   54.0967   24.8178 C.ar      1 UNK         0.0000 
     19 C19         4.8209   54.0967   23.4715 C.ar      1 UNK         0.0000 
     20 C20         2.8523   53.6981   26.7086 C.2       1 UNK         0.0000 
     21 O21         3.7134   53.9864   27.5425 O.2       1 UNK         0.0000 
     22 N22         1.5858   53.3610   27.0384 N.am      1 UNK         0.0000 
     23 C23         1.0444   53.3437   28.3340 C.ar      1 UNK         0.0000 
     24 C24         0.3490   52.1898   28.7053 C.ar      1 UNK         0.0000 
     25 C25        -0.2237   52.0968   29.9708 C.ar      1 UNK         0.0000 
     26 C26        -0.0741   53.1342   30.8814 C.ar      1 UNK         0.0000 
     27 C27         0.5873   54.2978   30.5098 C.ar      1 UNK         0.0000 
     28 C28         1.1205   54.4419   29.2188 C.ar      1 UNK         0.0000 
     29 O29         1.6947   55.6183   28.7735 O.3       1 UNK         0.0000 
     30 C30         1.6380   56.7718   29.6036 C.3       1 UNK         0.0000 
     31 H31         4.2695   56.4055   16.7570 H         1 UNK         0.0000 
     32 H32         3.2209   55.3099   17.6408 H         1 UNK         0.0000 
     33 H33         4.0023   56.6374   18.4835 H         1 UNK         0.0000 
     34 H34         5.9983   57.6935   17.7575 H         1 UNK         0.0000 
     35 H35         8.1929   58.7384   17.9725 H         1 UNK         0.0000 
     36 H36        10.1891   57.3492   18.4513 H         1 UNK         0.0000 
     37 H37         9.9756   54.9032   18.6914 H         1 UNK         0.0000 
     38 H38         7.7737   53.8331   18.4720 H         1 UNK         0.0000 
     39 H39         4.7110   53.1553   18.8877 H         1 UNK         0.0000 
     40 H40         3.5188   53.1245   20.5772 H         1 UNK         0.0000 
     41 H41         1.8663   53.0441   22.1627 H         1 UNK         0.0000 
     42 H42         1.2486   53.0358   24.5026 H         1 UNK         0.0000 
     43 H43         5.2175   54.3888   25.5428 H         1 UNK         0.0000 
     44 H44         5.8263   54.3805   23.1978 H         1 UNK         0.0000 
     45 H45         1.0041   52.9847   26.3074 H         1 UNK         0.0000 
     46 H46         0.2449   51.3577   28.0246 H         1 UNK         0.0000 
     47 H47        -0.7748   51.2088   30.2543 H         1 UNK         0.0000 
     48 H48        -0.4955   53.0503   31.8713 H         1 UNK         0.0000 
     49 H49         0.6573   55.0880   31.2412 H         1 UNK         0.0000 
     50 H50         1.9041   57.6493   29.0202 H         1 UNK         0.0000 
     51 H51         0.6424   56.9356   29.9986 H         1 UNK         0.0000 
     52 H52         2.3032   56.6913   30.4566 H         1 UNK         0.0000 
@<TRIPOS>BOND
     1    1    2 1    
     2    1   31 1    
     3    1   32 1    
     4    1   33 1    
     5    2    3 1    
     6    2    4 1    
     7    2   10 1    
     8    4    9 ar   
     9    4    5 ar   
    10    5    6 ar   
    11    5   34 1    
    12    6    7 ar   
    13    6   35 1    
    14    7    8 ar   
    15    7   36 1    
    16    8    9 ar   
    17    8   37 1    
    18    9   38 1    
    19   10   11 am   BACKBONE|DICT|INTERRES
    20   10   39 1    
    21   11   12 2    
    22   11   13 am   BACKBONE|DICT|INTERRES
    23   13   14 1    
    24   13   40 1    
    25   14   19 ar   
    26   14   15 ar   
    27   15   16 ar   
    28   15   41 1    
    29   16   17 ar   
    30   16   42 1    
    31   17   18 ar   
    32   17   20 1    
    33   18   19 ar   
    34   18   43 1    
    35   19   44 1    
    36   20   21 2    
    37   20   22 am   BACKBONE|DICT|INTERRES
    38   22   23 1    
    39   22   45 1    
    40   23   28 ar   
    41   23   24 ar   
    42   24   25 ar   
    43   24   46 1    
    44   25   26 ar   
    45   25   47 1    
    46   26   27 ar   
    47   26   48 1    
    48   27   28 ar   
    49   27   49 1    
    50   28   29 1    
    51   29   30 1    
    52   30   50 1    
    53   30   51 1    
    54   30   52 1    
@<TRIPOS>SUBSTRUCTURE
     1 UNK         1 GROUP             0       ****    0 ROOT    
