@<TRIPOS>MOLECULE
ZINC01040684_1213
44   46    1
SMALL
USER_CHARGES


@<TRIPOS>ATOM
      1 C1          0.6963   53.6604   17.6814 C.ar      1 UNK         0.0000 
      2 C2         -0.5489   54.0275   17.1784 C.ar      1 UNK         0.0000 
      3 C3         -1.6232   53.1488   17.2842 C.ar      1 UNK         0.0000 
      4 C4         -1.4553   51.8988   17.8738 C.ar      1 UNK         0.0000 
      5 C5         -0.2096   51.5314   18.3778 C.ar      1 UNK         0.0000 
      6 C6          0.8783   52.4155   18.3067 C.ar      1 UNK         0.0000 
      7 C7          2.1702   52.0504   18.8799 C.2       1 UNK         0.0000 
      8 H8          3.7022   50.7526   18.6458 H         1 UNK         0.0000 
      9 N9          2.7047   52.8967   19.7537 N.pl3     1 UNK         0.0000 
     10 S10         4.2360   52.7246   20.4776 S.o2      1 UNK         0.0000 
     11 O11         4.5023   51.2960   20.6545 O.2       1 UNK         0.0000 
     12 O12         5.1367   53.6077   19.7329 O.2       1 UNK         0.0000 
     13 C13         4.0277   53.4026   22.1151 C.ar      1 UNK         0.0000 
     14 C14         2.8057   53.2965   22.7782 C.ar      1 UNK         0.0000 
     15 C15         2.6598   53.8071   24.0657 C.ar      1 UNK         0.0000 
     16 C16         3.7491   54.4110   24.7160 C.ar      1 UNK         0.0000 
     17 C17         4.9828   54.4967   24.0543 C.ar      1 UNK         0.0000 
     18 C18         5.1174   53.9946   22.7586 C.ar      1 UNK         0.0000 
     19 Cl19        6.3396   55.2704   24.7998 Cl        1 UNK         0.0000 
     20 O20         3.5911   55.0278   25.9349 O.3       1 UNK         0.0000 
     21 C21         3.5363   54.2895   27.0897 C.ar      1 UNK         0.0000 
     22 C22         4.6415   53.5792   27.5561 C.ar      1 UNK         0.0000 
     23 C23         4.5652   52.9006   28.7690 C.ar      1 UNK         0.0000 
     24 C24         3.3817   52.9177   29.5217 C.ar      1 UNK         0.0000 
     25 C25         2.2798   53.6373   29.0429 C.ar      1 UNK         0.0000 
     26 C26         2.3648   54.3292   27.8421 C.ar      1 UNK         0.0000 
     27 N27         3.2881   52.1870   30.8046 N.pl3     1 UNK         0.0000 
     28 O28         4.3043   51.6967   31.2792 O.co2     1 UNK         0.0000 
     29 O29         2.1921   52.0968   31.3460 O.co2     1 UNK         0.0000 
     30 Cl30        1.1047   53.6967   24.8076 Cl        1 UNK         0.0000 
     31 Cl31       -3.1742   53.6155   16.6889 Cl        1 UNK         0.0000 
     32 H32         1.5149   54.3631   17.5970 H         1 UNK         0.0000 
     33 H33        -0.6786   54.9938   16.7122 H         1 UNK         0.0000 
     34 H34        -2.2895   51.2161   17.9453 H         1 UNK         0.0000 
     35 H35        -0.1074   50.5610   18.8452 H         1 UNK         0.0000 
     36 H36         2.2758   53.8146   19.8935 H         1 UNK         0.0000 
     37 H37         1.9637   52.8209   22.2959 H         1 UNK         0.0000 
     38 H38         6.0692   54.0721   22.2512 H         1 UNK         0.0000 
     39 H39         5.5586   53.5573   26.9870 H         1 UNK         0.0000 
     40 H40         5.4347   52.3588   29.1103 H         1 UNK         0.0000 
     41 H41         1.3534   53.6717   29.6000 H         1 UNK         0.0000 
     42 H42         1.5151   54.8946   27.4913 H         1 UNK         0.0000 
     43 N43         2.7044   50.9120   18.4817 N.pl3     1 UNK         0.0000 
     44 H44         2.2568   50.3515   17.7745 H         1 UNK         0.0000 
@<TRIPOS>BOND
     1    1    6 ar   
     2    1    2 ar   
     3    1   32 1    
     4    2    3 ar   
     5    2   33 1    
     6    3    4 ar   
     7    3   31 1    
     8    4    5 ar   
     9    4   34 1    
    10    5    6 ar   
    11    5   35 1    
    12    6    7 1    
    13    7    9 1    
    14    7   43 2    
    15    8   43 1    
    16    9   10 1    
    17    9   36 1    
    18   10   11 2    
    19   10   12 2    
    20   10   13 1    
    21   13   18 ar   
    22   13   14 ar   
    23   14   15 ar   
    24   14   37 1    
    25   15   16 ar   
    26   15   30 1    
    27   16   17 ar   
    28   16   20 1    
    29   17   18 ar   
    30   17   19 1    
    31   18   38 1    
    32   20   21 1    
    33   21   26 ar   
    34   21   22 ar   
    35   22   23 ar   
    36   22   39 1    
    37   23   24 ar   
    38   23   40 1    
    39   24   25 ar   
    40   24   27 1    
    41   25   26 ar   
    42   25   41 1    
    43   26   42 1    
    44   27   28 2    
    45   27   29 1    
    46   43   44 1    
@<TRIPOS>SUBSTRUCTURE
     1 UNK         1 GROUP             0       ****    0 ROOT    
