ZINC20321887_6039
                    3D
 Schrodinger Suite 2024-2.
 61 64  0  0  1  0            999 V2000
    9.1739   58.1394   17.5651 C   0  0  0  0  0  0
    7.9309   58.7542   17.7047 C   0  0  0  0  0  0
    6.8504   58.0174   18.1754 C   0  0  0  0  0  0
    7.0030   56.6635   18.4944 C   0  0  0  0  0  0
    8.2547   56.0530   18.3401 C   0  0  0  0  0  0
    9.3412   56.7931   17.8828 C   0  0  0  0  0  0
    5.8133   55.8819   19.0598 C   0  0  0  0  0  0
    5.0942   55.0640   17.9852 C   0  0  0  0  0  0
    5.6080   53.8318   17.5693 C   0  0  0  0  0  0
    4.9223   53.0741   16.6242 C   0  0  0  0  0  0
    3.7229   53.5465   16.0963 C   0  0  0  0  0  0
    3.2051   54.7746   16.5033 C   0  0  0  0  0  0
    3.8893   55.5324   17.4484 C   0  0  0  0  0  0
    6.1349   55.0673   20.3477 N   0  3  0  0  0  0
    4.8576   54.4575   20.9800 C   0  0  0  0  0  0
    5.2363   53.6385   22.2245 C   0  0  0  0  0  0
    5.8881   54.4944   23.2238 N   0  0  0  0  0  0
    7.1038   55.1297   22.6955 C   0  0  0  0  0  0
    6.8567   55.9338   21.4059 C   0  0  0  0  0  0
    6.1958   53.6977   24.4220 C   0  0  0  0  0  0
    6.1332   54.4482   25.7710 C   0  0  2  0  0  0
    6.4032   53.7498   26.5634 H   0  0  0  0  0  0
    4.7504   55.0469   26.0862 C   0  0  0  0  0  0
    3.7244   54.0652   26.1966 O   0  0  0  0  0  0
    3.3575   53.5721   27.4338 C   0  0  0  0  0  0
    4.1236   53.7178   28.6013 C   0  0  0  0  0  0
    3.6783   53.1828   29.8118 C   0  0  0  0  0  0
    2.4621   52.5030   29.8720 C   0  0  0  0  0  0
    1.6950   52.3497   28.7187 C   0  0  0  0  0  0
    2.1391   52.8839   27.5072 C   0  0  0  0  0  0
    1.0658   52.6502   25.9481 Br  0  0  0  0  0  0
    7.0931   55.4820   25.7741 O   0  0  0  0  0  0
   10.0139   58.7123   17.2009 H   0  0  0  0  0  0
    7.7972   59.7969   17.4490 H   0  0  0  0  0  0
    5.8943   58.5117   18.2835 H   0  0  0  0  0  0
    8.3940   55.0105   18.5869 H   0  0  0  0  0  0
   10.3089   56.3240   17.7764 H   0  0  0  0  0  0
    5.1053   56.6128   19.4551 H   0  0  0  0  0  0
    6.5293   53.4478   17.9788 H   0  0  0  0  0  0
    5.3088   52.1109   16.3169 H   0  0  0  0  0  0
    3.1903   52.9517   15.3688 H   0  0  0  0  0  0
    2.2743   55.1339   16.0888 H   0  0  0  0  0  0
    3.4775   56.4815   17.7614 H   0  0  0  0  0  0
    4.1955   55.2766   21.2511 H   0  0  0  0  0  0
    4.3882   53.8151   20.2323 H   0  0  0  0  0  0
    5.9039   52.8247   21.9412 H   0  0  0  0  0  0
    4.3201   53.2101   22.6357 H   0  0  0  0  0  0
    7.5340   55.8135   23.4185 H   0  0  0  0  0  0
    7.8186   54.3337   22.4775 H   0  0  0  0  0  0
    6.2475   56.8206   21.5703 H   0  0  0  0  0  0
    7.8203   56.2126   20.9831 H   0  0  0  0  0  0
    7.1701   53.2177   24.3262 H   0  0  0  0  0  0
    5.4623   52.9019   24.5080 H   0  0  0  0  0  0
    4.4495   55.6963   25.2739 H   0  0  0  0  0  0
    4.7922   55.6947   26.9572 H   0  0  0  0  0  0
    5.0747   54.2269   28.5881 H   0  0  0  0  0  0
    4.2846   53.2933   30.6982 H   0  0  0  0  0  0
    2.1115   52.0963   30.8073 H   0  0  0  0  0  0
    0.7571   51.8140   28.7638 H   0  0  0  0  0  0
    6.8870   56.0413   25.0200 H   0  0  0  0  0  0
    6.7400   54.3016   20.0845 H   0  0  0  0  0  0
  1  6  2  0  0  0
  1  2  1  0  0  0
  1 33  1  0  0  0
  2  3  2  0  0  0
  2 34  1  0  0  0
  3  4  1  0  0  0
  3 35  1  0  0  0
  4  5  2  0  0  0
  4  7  1  0  0  0
  5  6  1  0  0  0
  5 36  1  0  0  0
  6 37  1  0  0  0
  7  8  1  0  0  0
  7 14  1  0  0  0
  7 38  1  0  0  0
  8 13  2  0  0  0
  8  9  1  0  0  0
  9 10  2  0  0  0
  9 39  1  0  0  0
 10 11  1  0  0  0
 10 40  1  0  0  0
 11 12  2  0  0  0
 11 41  1  0  0  0
 12 13  1  0  0  0
 12 42  1  0  0  0
 13 43  1  0  0  0
 14 19  1  0  0  0
 14 15  1  0  0  0
 14 61  1  0  0  0
 15 16  1  0  0  0
 15 44  1  0  0  0
 15 45  1  0  0  0
 16 17  1  0  0  0
 16 46  1  0  0  0
 16 47  1  0  0  0
 17 18  1  0  0  0
 17 20  1  0  0  0
 18 19  1  0  0  0
 18 48  1  0  0  0
 18 49  1  0  0  0
 19 50  1  0  0  0
 19 51  1  0  0  0
 20 21  1  0  0  0
 20 52  1  0  0  0
 20 53  1  0  0  0
 21 22  1  0  0  0
 21 23  1  0  0  0
 21 32  1  0  0  0
 23 24  1  0  0  0
 23 54  1  0  0  0
 23 55  1  0  0  0
 24 25  1  0  0  0
 25 30  2  0  0  0
 25 26  1  0  0  0
 26 27  2  0  0  0
 26 56  1  0  0  0
 27 28  1  0  0  0
 27 57  1  0  0  0
 28 29  2  0  0  0
 28 58  1  0  0  0
 29 30  1  0  0  0
 29 59  1  0  0  0
 30 31  1  0  0  0
 32 60  1  0  0  0
M  CHG  1  14   1
M  END
> <i_i_glide_confnum>
174

> <i_i_glide_lignum>
6040

> <i_i_glide_posenum>
100

> <i_i_glide_rotatable_bonds>
9

> <i_m_Source_File_Index>
1901

> <b_m_subgroup_collapsed>
0

> <r_i_docking_score>
-5.27482

> <r_i_glide_ecoul>
-4.12405

> <r_i_glide_eff_state_penalty>
0

> <r_i_glide_einternal>
5.61106

> <r_i_glide_emodel>
-48.0786

> <r_i_glide_energy>
-36.7805

> <r_i_glide_erotb>
0.610354

> <r_i_glide_esite>
0

> <r_i_glide_evdw>
-32.6564

> <r_i_glide_gscore>
-5.27482

> <r_i_glide_hbond>
-0.32

> <r_i_glide_ligand_efficiency>
-0.170155

> <r_i_glide_ligand_efficiency_ln>
-1.18963

> <r_i_glide_ligand_efficiency_sa>
-0.534523

> <r_i_glide_lipo>
-2.69397

> <r_i_glide_metal>
0

> <r_i_glide_rewards>
-0.619778

> <s_i_glide_gridfile>
wee1_glide-grid

> <s_m_Source_File>
wee1_decoys_glide_SP.sdf

> <s_m_Source_Path>
/Users/zhangxujun/Desktop

> <s_m_entry_id>
2176

> <s_m_entry_name>
wee1_decoys_glide_SP.1901

> <s_m_subgroup_title>
wee1_decoys_glide_SP

> <s_m_subgroupid>
wee1_decoys_glide_SP


$$$$
