@<TRIPOS>MOLECULE
ZINC54211480_1339
43   44    1
SMALL
USER_CHARGES


@<TRIPOS>ATOM
      1 C1         -7.4713   55.4481   26.8826 C.1       1 UNK         0.0000 
      2 C2         -7.3680   54.2883   26.5180 C.1       1 UNK         0.0000 
      3 C3         -7.2783   52.8832   26.0851 C.3       1 UNK         0.0000 
      4 N4         -6.0406   52.5922   25.3596 N.am      1 UNK         0.0000 
      5 C5         -4.9333   52.0457   25.8960 C.2       1 UNK         0.0000 
      6 O6         -4.8259   51.7811   27.0941 O.2       1 UNK         0.0000 
      7 C7         -3.7966   51.7352   24.9071 C.3       1 UNK         0.0000 
      8 N8         -2.6648   50.9072   25.5862 N.4       1 UNK         0.0000 
      9 C9         -2.0570   49.8972   24.5813 C.3       1 UNK         0.0000 
     10 C10        -1.0511   49.0060   25.3286 C.3       1 UNK         0.0000 
     11 C11         0.0770   49.8171   25.9905 C.3       1 UNK         0.0000 
     12 C12        -0.5008   50.9485   26.8855 C.3       1 UNK         0.0000 
     13 H13        -0.9553   50.5020   27.7721 H         1 UNK         0.0000 
     14 C14        -1.5789   51.8311   26.1975 C.3       1 UNK         0.0000 
     15 C15         0.6620   51.7978   27.4433 C.2       1 UNK         0.0000 
     16 O16         0.9703   51.6962   28.6314 O.2       1 UNK         0.0000 
     17 N17         1.3057   52.5822   26.5505 N.am      1 UNK         0.0000 
     18 C18         2.5042   53.2969   26.7083 C.ar      1 UNK         0.0000 
     19 C19         3.0317   53.8576   25.5404 C.ar      1 UNK         0.0000 
     20 C20         4.2837   54.4695   25.5895 C.ar      1 UNK         0.0000 
     21 C21         4.9792   54.5038   26.7960 C.ar      1 UNK         0.0000 
     22 C22         4.3842   53.9550   27.9298 C.ar      1 UNK         0.0000 
     23 N23         3.1648   53.3597   27.9011 N.ar      1 UNK         0.0000 
     24 Br24        6.7046   55.2965   26.8808 Br        1 UNK         0.0000 
     25 H25        -7.5486   56.4680   27.1901 H         1 UNK         0.0000 
     26 H26        -7.3963   52.2500   26.9693 H         1 UNK         0.0000 
     27 H27        -8.1315   52.6709   25.4383 H         1 UNK         0.0000 
     28 H28        -6.0704   52.7605   24.3643 H         1 UNK         0.0000 
     29 H29        -4.2075   51.1272   24.0968 H         1 UNK         0.0000 
     30 H30        -3.3577   52.6346   24.4729 H         1 UNK         0.0000 
     31 H31        -2.8787   49.2808   24.2116 H         1 UNK         0.0000 
     32 H32        -1.6097   50.4605   23.7578 H         1 UNK         0.0000 
     33 H33        -1.5754   48.4168   26.0808 H         1 UNK         0.0000 
     34 H34        -0.6201   48.2782   24.6399 H         1 UNK         0.0000 
     35 H35         0.6719   49.1089   26.5711 H         1 UNK         0.0000 
     36 H36         0.6610   50.2199   25.1601 H         1 UNK         0.0000 
     37 H37        -1.1965   52.4301   25.3691 H         1 UNK         0.0000 
     38 H38        -2.1045   52.4514   26.9271 H         1 UNK         0.0000 
     39 H39         0.9379   52.5904   25.6127 H         1 UNK         0.0000 
     40 H40         2.5015   53.7996   24.6018 H         1 UNK         0.0000 
     41 H41         4.7165   54.8950   24.6948 H         1 UNK         0.0000 
     42 H42         4.8906   53.9798   28.8850 H         1 UNK         0.0000 
     43 H43        -3.0897   50.3696   26.3361 H         1 UNK         0.0000 
@<TRIPOS>BOND
     1    1    2 3    
     2    1   25 1    
     3    2    3 1    
     4    3    4 1    
     5    3   26 1    
     6    3   27 1    
     7    4    5 am   BACKBONE|DICT|INTERRES
     8    4   28 1    
     9    5    6 2    
    10    5    7 1    
    11    7    8 1    
    12    7   29 1    
    13    7   30 1    
    14    8   14 1    
    15    8    9 1    
    16    8   43 1    
    17    9   10 1    
    18    9   31 1    
    19    9   32 1    
    20   10   11 1    
    21   10   33 1    
    22   10   34 1    
    23   11   12 1    
    24   11   35 1    
    25   11   36 1    
    26   12   13 1    
    27   12   14 1    
    28   12   15 1    
    29   14   37 1    
    30   14   38 1    
    31   15   16 2    
    32   15   17 am   BACKBONE|DICT|INTERRES
    33   17   18 1    
    34   17   39 1    
    35   18   23 ar   
    36   18   19 ar   
    37   19   20 ar   
    38   19   40 1    
    39   20   21 ar   
    40   20   41 1    
    41   21   22 ar   
    42   21   24 1    
    43   22   23 ar   
    44   22   42 1    
@<TRIPOS>SUBSTRUCTURE
     1 UNK         1 GROUP             0       ****    0 ROOT    
