@<TRIPOS>MOLECULE
ZINC63383509_196
75   80    1
SMALL
USER_CHARGES


@<TRIPOS>ATOM
      1 C1          0.3807   48.6668   16.9372 C.3       1 UNK         0.0000 
      2 C2          0.6452   47.8147   18.1889 C.3       1 UNK         0.0000 
      3 C3          1.4197   46.5477   17.7924 C.3       1 UNK         0.0000 
      4 C4          1.4015   48.6073   19.2838 C.3       1 UNK         0.0000 
      5 C5          0.5974   49.7080   20.0266 C.3       1 UNK         0.0000 
      6 H6          0.1467   50.3827   19.2972 H         1 UNK         0.0000 
      7 C7         -0.5454   49.1041   20.8784 C.2       1 UNK         0.0000 
      8 O8         -1.6289   48.8629   20.3530 O.2       1 UNK         0.0000 
      9 N9         -0.2864   48.8994   22.1810 N.am      1 UNK         0.0000 
     10 C10        -1.2385   48.4471   23.1925 C.3       1 UNK         0.0000 
     11 C11        -0.5235   48.0002   24.4847 C.3       1 UNK         0.0000 
     12 C12         0.0648   49.1934   25.2683 C.3       1 UNK         0.0000 
     13 C13        -1.0052   50.2578   25.5865 C.3       1 UNK         0.0000 
     14 C14        -1.8056   50.6835   24.3376 C.3       1 UNK         0.0000 
     15 C15        -2.3474   49.4688   23.5515 C.3       1 UNK         0.0000 
     16 N16         1.5379   50.5149   20.8203 N.am      1 UNK         0.0000 
     17 C17         1.2162   51.6127   21.5348 C.2       1 UNK         0.0000 
     18 O18         0.0854   52.1010   21.5181 O.2       1 UNK         0.0000 
     19 C19         2.3211   52.1931   22.4662 C.3       1 UNK         0.0000 
     20 H20         2.7893   51.2804   22.8377 H         1 UNK         0.0000 
     21 C21         1.6657   52.9614   23.6642 C.3       1 UNK         0.0000 
     22 C22         2.7097   53.5924   24.5554 C.2       1 UNK         0.0000 
     23 C23         2.9379   53.5995   25.8780 C.2       1 UNK         0.0000 
     24 C24         2.2158   52.9905   27.0034 C.2       1 UNK         0.0000 
     25 C25         2.6750   53.1258   28.2643 C.2       1 UNK         0.0000 
     26 C26         3.9079   53.8767   28.4704 C.2       1 UNK         0.0000 
     27 C27         4.5894   54.4388   27.4391 C.2       1 UNK         0.0000 
     28 C28         4.1129   54.3180   26.1257 C.2       1 UNK         0.0000 
     29 N29         4.6174   54.7812   25.0026 N.pl3     1 UNK         0.0000 
     30 C30         3.7644   54.4031   23.8538 C.3       1 UNK         0.0000 
     31 H31         3.3122   55.2909   23.4303 H         1 UNK         0.0000 
     32 C32         4.4535   53.5584   22.7649 C.3       1 UNK         0.0000 
     33 H33         5.0319   52.7689   23.2337 H         1 UNK         0.0000 
     34 N34         3.4351   52.9932   21.8517 N.am      1 UNK         0.0000 
     35 C35         3.7650   53.1493   20.5391 C.2       1 UNK         0.0000 
     36 O36         3.1935   52.6843   19.5550 O.2       1 UNK         0.0000 
     37 C37         4.9638   54.0399   20.5369 C.ar      1 UNK         0.0000 
     38 C38         5.3645   54.2937   21.8343 C.ar      1 UNK         0.0000 
     39 C39         6.4969   55.0749   22.0787 C.ar      1 UNK         0.0000 
     40 C40         7.2131   55.5996   20.9993 C.ar      1 UNK         0.0000 
     41 C41         6.7964   55.3447   19.6878 C.ar      1 UNK         0.0000 
     42 C42         5.6685   54.5567   19.4488 C.ar      1 UNK         0.0000 
     43 H43         1.3041   49.1162   16.5679 H         1 UNK         0.0000 
     44 H44        -0.0325   48.0652   16.1259 H         1 UNK         0.0000 
     45 H45        -0.3290   49.4687   17.1387 H         1 UNK         0.0000 
     46 H46        -0.3179   47.4817   18.5757 H         1 UNK         0.0000 
     47 H47         2.4302   46.7903   17.4611 H         1 UNK         0.0000 
     48 H48         1.4995   45.8548   18.6291 H         1 UNK         0.0000 
     49 H49         0.9262   46.0174   16.9772 H         1 UNK         0.0000 
     50 H50         2.2909   49.0455   18.8265 H         1 UNK         0.0000 
     51 H51         1.7778   47.9006   20.0248 H         1 UNK         0.0000 
     52 H52         0.6186   49.1795   22.5265 H         1 UNK         0.0000 
     53 H53        -1.7199   47.5656   22.7629 H         1 UNK         0.0000 
     54 H54         0.2729   47.2933   24.2541 H         1 UNK         0.0000 
     55 H55        -1.2276   47.4645   25.1251 H         1 UNK         0.0000 
     56 H56         0.8714   49.6453   24.6888 H         1 UNK         0.0000 
     57 H57         0.5184   48.8355   26.1941 H         1 UNK         0.0000 
     58 H58        -0.5377   51.1303   26.0421 H         1 UNK         0.0000 
     59 H59        -1.6901   49.8590   26.3365 H         1 UNK         0.0000 
     60 H60        -1.1740   51.2850   23.6841 H         1 UNK         0.0000 
     61 H61        -2.6332   51.3314   24.6331 H         1 UNK         0.0000 
     62 H62        -3.1041   48.9697   24.1605 H         1 UNK         0.0000 
     63 H63        -2.8676   49.8040   22.6528 H         1 UNK         0.0000 
     64 H64         2.4995   50.2079   20.8020 H         1 UNK         0.0000 
     65 H65         1.0257   53.7543   23.2777 H         1 UNK         0.0000 
     66 H66         1.0132   52.2968   24.2317 H         1 UNK         0.0000 
     67 H67         1.3106   52.4207   26.8479 H         1 UNK         0.0000 
     68 H68         2.1483   52.6789   29.0957 H         1 UNK         0.0000 
     69 H69         4.2947   53.9773   29.4729 H         1 UNK         0.0000 
     70 H70         5.5046   54.9744   27.6525 H         1 UNK         0.0000 
     71 H71         6.8458   55.2576   23.0840 H         1 UNK         0.0000 
     72 H72         8.1090   56.1745   21.1805 H         1 UNK         0.0000 
     73 H73         7.3598   55.7396   18.8534 H         1 UNK         0.0000 
     74 H74         5.3563   54.3438   18.4347 H         1 UNK         0.0000 
     75 H75         5.4705   55.3259   24.9164 H         1 UNK         0.0000 
@<TRIPOS>BOND
     1    1    2 1    
     2    1   43 1    
     3    1   44 1    
     4    1   45 1    
     5    2    3 1    
     6    2    4 1    
     7    2   46 1    
     8    3   47 1    
     9    3   48 1    
    10    3   49 1    
    11    4    5 1    
    12    4   50 1    
    13    4   51 1    
    14    5    6 1    
    15    5    7 1    
    16    5   16 1    
    17    7    8 2    
    18    7    9 am   BACKBONE|DICT|INTERRES
    19    9   10 1    
    20    9   52 1    
    21   10   15 1    
    22   10   11 1    
    23   10   53 1    
    24   11   12 1    
    25   11   54 1    
    26   11   55 1    
    27   12   13 1    
    28   12   56 1    
    29   12   57 1    
    30   13   14 1    
    31   13   58 1    
    32   13   59 1    
    33   14   15 1    
    34   14   60 1    
    35   14   61 1    
    36   15   62 1    
    37   15   63 1    
    38   16   17 am   BACKBONE|DICT|INTERRES
    39   16   64 1    
    40   17   18 2    
    41   17   19 1    
    42   19   20 1    
    43   19   34 1    
    44   19   21 1    
    45   21   22 1    
    46   21   65 1    
    47   21   66 1    
    48   22   30 1    
    49   22   23 2    
    50   23   28 1    
    51   23   24 1    
    52   24   25 2    
    53   24   67 1    
    54   25   26 1    
    55   25   68 1    
    56   26   27 2    
    57   26   69 1    
    58   27   28 1    
    59   27   70 1    
    60   28   29 2    
    61   29   30 1    
    62   29   75 1    
    63   30   31 1    
    64   30   32 1    
    65   32   33 1    
    66   32   38 1    
    67   32   34 1    
    68   34   35 am   BACKBONE|DICT|INTERRES
    69   35   36 2    
    70   35   37 1    
    71   37   42 ar   
    72   37   38 ar   
    73   38   39 ar   
    74   39   40 ar   
    75   39   71 1    
    76   40   41 ar   
    77   40   72 1    
    78   41   42 ar   
    79   41   73 1    
    80   42   74 1    
@<TRIPOS>SUBSTRUCTURE
     1 UNK         1 GROUP             0       ****    0 ROOT    
