@<TRIPOS>MOLECULE
ZINC10698118_6033
60   64    1
SMALL
USER_CHARGES


@<TRIPOS>ATOM
      1 C1          5.5986   55.1701   18.3622 C.3       1 UNK         0.0000 
      2 C2          5.8932   53.8179   19.0500 C.3       1 UNK         0.0000 
      3 C3          3.6456   53.8253   20.2783 C.3       1 UNK         0.0000 
      4 C4          2.9478   53.3256   21.5693 C.3       1 UNK         0.0000 
      5 C5          3.6897   53.7509   22.8443 C.2       1 UNK         0.0000 
      6 C6          4.9913   54.2584   22.7588 C.2       1 UNK         0.0000 
      7 S7          5.6930   54.5357   24.3034 S.3       1 UNK         0.0000 
      8 C8          4.2077   54.0786   25.1033 C.2       1 UNK         0.0000 
      9 C9          3.1991   53.6995   24.1860 C.2       1 UNK         0.0000 
     10 C10         1.8167   53.2328   24.5557 C.2       1 UNK         0.0000 
     11 N11         0.8353   53.1531   23.6937 N.2       1 UNK         0.0000 
     12 C12        -0.2945   52.6122   24.2213 C.ar      1 UNK         0.0000 
     13 C13        -1.4873   52.3949   23.5150 C.ar      1 UNK         0.0000 
     14 C14        -2.5621   51.8236   24.1973 C.ar      1 UNK         0.0000 
     15 C15        -2.4609   51.4699   25.5420 C.ar      1 UNK         0.0000 
     16 C16        -1.2862   51.6756   26.2642 C.ar      1 UNK         0.0000 
     17 C17        -0.2037   52.2544   25.5867 C.ar      1 UNK         0.0000 
     18 S18         1.3924   52.6678   26.1687 S.3       1 UNK         0.0000 
     19 N19         4.1049   54.0665   26.4943 N.am      1 UNK         0.0000 
     20 C20         5.1010   54.0498   27.4078 C.2       1 UNK         0.0000 
     21 O21         6.2979   54.2037   27.1502 O.2       1 UNK         0.0000 
     22 C22         4.7327   53.7914   28.8755 C.3       1 UNK         0.0000 
     23 C23         3.2641   53.9961   29.2769 C.ar      1 UNK         0.0000 
     24 C24         2.8319   55.2967   29.5071 C.ar      1 UNK         0.0000 
     25 C25         1.5905   55.5525   30.0800 C.ar      1 UNK         0.0000 
     26 C26         0.7047   54.5015   30.3169 C.ar      1 UNK         0.0000 
     27 C27         1.0864   53.1987   30.0091 C.ar      1 UNK         0.0000 
     28 C28         2.3665   52.9400   29.5049 C.ar      1 UNK         0.0000 
     29 C29         2.7471   51.5121   29.1965 C.3       1 UNK         0.0000 
     30 C30         1.2601   56.9637   30.4817 C.3       1 UNK         0.0000 
     31 C31         5.7118   54.6156   21.4727 C.3       1 UNK         0.0000 
     32 H32         6.1706   55.2583   17.4384 H         1 UNK         0.0000 
     33 H33         4.5495   55.2725   18.0901 H         1 UNK         0.0000 
     34 H34         5.8730   56.0245   18.9811 H         1 UNK         0.0000 
     35 H35         6.9540   53.7002   19.2769 H         1 UNK         0.0000 
     36 H36         5.5813   52.9636   18.4421 H         1 UNK         0.0000 
     37 H37         3.5056   54.8954   20.1078 H         1 UNK         0.0000 
     38 H38         3.3028   53.2626   19.4068 H         1 UNK         0.0000 
     39 H39         2.8899   52.2379   21.5511 H         1 UNK         0.0000 
     40 H40         1.9273   53.6956   21.5581 H         1 UNK         0.0000 
     41 H41        -1.5669   52.6499   22.4693 H         1 UNK         0.0000 
     42 H42        -3.4894   51.6388   23.6717 H         1 UNK         0.0000 
     43 H43        -3.3085   51.0179   26.0353 H         1 UNK         0.0000 
     44 H44        -1.2100   51.3881   27.3051 H         1 UNK         0.0000 
     45 H45         3.1787   53.8910   26.8590 H         1 UNK         0.0000 
     46 H46         5.3316   54.4837   29.4722 H         1 UNK         0.0000 
     47 H47         5.0803   52.7956   29.1482 H         1 UNK         0.0000 
     48 H48         3.5044   56.1115   29.3025 H         1 UNK         0.0000 
     49 H49        -0.2655   54.6872   30.7552 H         1 UNK         0.0000 
     50 H50         0.3917   52.3891   30.1935 H         1 UNK         0.0000 
     51 H51         3.5524   51.1864   29.8506 H         1 UNK         0.0000 
     52 H52         1.8918   50.8427   29.2812 H         1 UNK         0.0000 
     53 H53         3.1040   51.4618   28.1724 H         1 UNK         0.0000 
     54 H54         1.3820   57.6327   29.6314 H         1 UNK         0.0000 
     55 H55         1.9485   57.2988   31.2559 H         1 UNK         0.0000 
     56 H56         0.2569   57.0519   30.8811 H         1 UNK         0.0000 
     57 H57         5.5031   55.6407   21.1639 H         1 UNK         0.0000 
     58 H58         6.7945   54.4972   21.5346 H         1 UNK         0.0000 
     59 N59         5.1675   53.6331   20.4081 N.4       1 UNK         0.0000 
     60 H60         5.3357   52.6790   20.6928 H         1 UNK         0.0000 
@<TRIPOS>BOND
     1    1    2 1    
     2    1   32 1    
     3    1   33 1    
     4    1   34 1    
     5    2   35 1    
     6    2   36 1    
     7    2   59 1    
     8    3    4 1    
     9    3   37 1    
    10    3   38 1    
    11    3   59 1    
    12    4    5 1    
    13    4   39 1    
    14    4   40 1    
    15    5    9 1    
    16    5    6 2    
    17    6    7 1    
    18    6   31 1    
    19    7    8 1    
    20    8    9 2    
    21    8   19 am   BACKBONE|DICT|INTERRES
    22    9   10 1    
    23   10   18 1    
    24   10   11 2    
    25   11   12 1    
    26   12   17 ar   
    27   12   13 ar   
    28   13   14 ar   
    29   13   41 1    
    30   14   15 ar   
    31   14   42 1    
    32   15   16 ar   
    33   15   43 1    
    34   16   17 ar   
    35   16   44 1    
    36   17   18 1    
    37   19   20 am   BACKBONE|DICT|INTERRES
    38   19   45 1    
    39   20   21 2    
    40   20   22 1    
    41   22   23 1    
    42   22   46 1    
    43   22   47 1    
    44   23   28 ar   
    45   23   24 ar   
    46   24   25 ar   
    47   24   48 1    
    48   25   26 ar   
    49   25   30 1    
    50   26   27 ar   
    51   26   49 1    
    52   27   28 ar   
    53   27   50 1    
    54   28   29 1    
    55   29   51 1    
    56   29   52 1    
    57   29   53 1    
    58   30   54 1    
    59   30   55 1    
    60   30   56 1    
    61   31   57 1    
    62   31   58 1    
    63   31   59 1    
    64   59   60 1    
@<TRIPOS>SUBSTRUCTURE
     1 UNK         1 GROUP             0       ****    0 ROOT    
