@<TRIPOS>MOLECULE
ZINC23446803_5681
74   77    1
SMALL
USER_CHARGES


@<TRIPOS>ATOM
      1 C1          3.0516   58.9847   16.0085 C.3       1 UNK         0.0000 
      2 O2          2.1407   57.9820   15.5692 O.3       1 UNK         0.0000 
      3 C3          2.3423   56.6722   15.9542 C.ar      1 UNK         0.0000 
      4 C4          1.3371   55.7627   15.6155 C.ar      1 UNK         0.0000 
      5 C5          1.4380   54.4218   15.9762 C.ar      1 UNK         0.0000 
      6 C6          2.5418   53.9721   16.6970 C.ar      1 UNK         0.0000 
      7 C7          3.5659   54.8618   17.0521 C.ar      1 UNK         0.0000 
      8 C8          3.4654   56.2061   16.6588 C.ar      1 UNK         0.0000 
      9 C9          4.7268   54.3597   17.9153 C.3       1 UNK         0.0000 
     10 H10         4.3629   53.4435   18.3876 H         1 UNK         0.0000 
     11 C11         5.1474   55.3979   18.9790 C.3       1 UNK         0.0000 
     12 N12         5.7325   54.7507   20.2647 N.4       1 UNK         0.0000 
     13 C13         6.5161   55.8034   21.0844 C.3       1 UNK         0.0000 
     14 C14         7.1022   55.1859   22.3770 C.3       1 UNK         0.0000 
     15 N15         6.0314   54.4976   23.1359 N.am      1 UNK         0.0000 
     16 C16         5.2534   53.4748   22.3887 C.3       1 UNK         0.0000 
     17 C17         4.6216   54.1355   21.1475 C.3       1 UNK         0.0000 
     18 C18         5.9051   54.7200   24.4804 C.2       1 UNK         0.0000 
     19 O19         6.7569   55.3174   25.1433 O.2       1 UNK         0.0000 
     20 N20         4.7387   54.2826   25.0025 N.am      1 UNK         0.0000 
     21 C21         4.2988   54.1601   26.3349 C.ar      1 UNK         0.0000 
     22 C22         5.0674   54.4959   27.4598 C.ar      1 UNK         0.0000 
     23 C23         4.5618   54.2924   28.7408 C.ar      1 UNK         0.0000 
     24 C24         3.2972   53.7411   28.9317 C.ar      1 UNK         0.0000 
     25 C25         2.5254   53.4119   27.8075 C.ar      1 UNK         0.0000 
     26 C26         3.0163   53.6132   26.5074 C.ar      1 UNK         0.0000 
     27 O27         2.2966   53.2880   25.3658 O.3       1 UNK         0.0000 
     28 C28         1.0550   52.6040   25.4793 C.3       1 UNK         0.0000 
     29 O29         2.8911   53.5537   30.2384 O.3       1 UNK         0.0000 
     30 C30         1.6219   52.9559   30.4962 C.3       1 UNK         0.0000 
     31 O31         5.8472   54.1125   17.0731 O.3       1 UNK         0.0000 
     32 C32         6.5721   52.9133   17.3395 C.3       1 UNK         0.0000 
     33 C33         8.0656   53.1578   17.1830 C.ar      1 UNK         0.0000 
     34 C34         8.8651   52.1796   16.5890 C.ar      1 UNK         0.0000 
     35 C35        10.2387   52.3768   16.4801 C.ar      1 UNK         0.0000 
     36 C36        10.8141   53.5531   16.9700 C.ar      1 UNK         0.0000 
     37 C37        10.0176   54.5324   17.5670 C.ar      1 UNK         0.0000 
     38 C38         8.6434   54.3350   17.6705 C.ar      1 UNK         0.0000 
     39 C39        12.2543   53.7489   16.8826 C.1       1 UNK         0.0000 
     40 N40        13.3988   53.9036   16.8156 N.1       1 UNK         0.0000 
     41 H41         2.7040   59.9596   15.6680 H         1 UNK         0.0000 
     42 H42         3.1143   59.0242   17.0978 H         1 UNK         0.0000 
     43 H43         4.0515   58.8363   15.5964 H         1 UNK         0.0000 
     44 H44         0.4736   56.1102   15.0694 H         1 UNK         0.0000 
     45 H45         0.6528   53.7286   15.7059 H         1 UNK         0.0000 
     46 H46         2.5978   52.9323   16.9847 H         1 UNK         0.0000 
     47 H47         4.2587   56.8914   16.9162 H         1 UNK         0.0000 
     48 H48         5.9114   56.0659   18.5811 H         1 UNK         0.0000 
     49 H49         4.3044   56.0102   19.2794 H         1 UNK         0.0000 
     50 H50         7.3429   56.1158   20.4418 H         1 UNK         0.0000 
     51 H51         5.8780   56.6659   21.2807 H         1 UNK         0.0000 
     52 H52         7.9049   54.4954   22.1264 H         1 UNK         0.0000 
     53 H53         7.5528   55.9885   22.9638 H         1 UNK         0.0000 
     54 H54         4.4669   53.0080   22.9785 H         1 UNK         0.0000 
     55 H55         5.9071   52.6598   22.0819 H         1 UNK         0.0000 
     56 H56         3.8786   54.8953   21.4004 H         1 UNK         0.0000 
     57 H57         4.1352   53.3609   20.5539 H         1 UNK         0.0000 
     58 H58         4.0798   53.8959   24.3437 H         1 UNK         0.0000 
     59 H59         6.0630   54.9085   27.3741 H         1 UNK         0.0000 
     60 H60         5.1666   54.5580   29.5937 H         1 UNK         0.0000 
     61 H61         1.5438   52.9848   27.9480 H         1 UNK         0.0000 
     62 H62         0.6666   52.3867   24.4839 H         1 UNK         0.0000 
     63 H63         1.1648   51.6565   26.0048 H         1 UNK         0.0000 
     64 H64         0.3080   53.2046   25.9963 H         1 UNK         0.0000 
     65 H65         1.4680   52.8864   31.5730 H         1 UNK         0.0000 
     66 H66         0.8052   53.5518   30.0863 H         1 UNK         0.0000 
     67 H67         1.5668   51.9444   30.0905 H         1 UNK         0.0000 
     68 H68         6.2204   52.1424   16.6518 H         1 UNK         0.0000 
     69 H69         6.4115   52.5322   18.3516 H         1 UNK         0.0000 
     70 H70         8.4264   51.2639   16.2210 H         1 UNK         0.0000 
     71 H71        10.8454   51.6081   16.0207 H         1 UNK         0.0000 
     72 H72        10.4550   55.4377   17.9621 H         1 UNK         0.0000 
     73 H73         8.0342   55.0937   18.1341 H         1 UNK         0.0000 
     74 H74         6.3761   54.0195   19.9935 H         1 UNK         0.0000 
@<TRIPOS>BOND
     1    1    2 1    
     2    1   41 1    
     3    1   42 1    
     4    1   43 1    
     5    2    3 1    
     6    3    8 ar   
     7    3    4 ar   
     8    4    5 ar   
     9    4   44 1    
    10    5    6 ar   
    11    5   45 1    
    12    6    7 ar   
    13    6   46 1    
    14    7    8 ar   
    15    7    9 1    
    16    8   47 1    
    17    9   10 1    
    18    9   11 1    
    19    9   31 1    
    20   11   12 1    
    21   11   48 1    
    22   11   49 1    
    23   12   17 1    
    24   12   13 1    
    25   12   74 1    
    26   13   14 1    
    27   13   50 1    
    28   13   51 1    
    29   14   15 1    
    30   14   52 1    
    31   14   53 1    
    32   15   16 1    
    33   15   18 am   BACKBONE|DICT|INTERRES
    34   16   17 1    
    35   16   54 1    
    36   16   55 1    
    37   17   56 1    
    38   17   57 1    
    39   18   19 2    
    40   18   20 am   BACKBONE|DICT|INTERRES
    41   20   21 1    
    42   20   58 1    
    43   21   26 ar   
    44   21   22 ar   
    45   22   23 ar   
    46   22   59 1    
    47   23   24 ar   
    48   23   60 1    
    49   24   25 ar   
    50   24   29 1    
    51   25   26 ar   
    52   25   61 1    
    53   26   27 1    
    54   27   28 1    
    55   28   62 1    
    56   28   63 1    
    57   28   64 1    
    58   29   30 1    
    59   30   65 1    
    60   30   66 1    
    61   30   67 1    
    62   31   32 1    
    63   32   33 1    
    64   32   68 1    
    65   32   69 1    
    66   33   38 ar   
    67   33   34 ar   
    68   34   35 ar   
    69   34   70 1    
    70   35   36 ar   
    71   35   71 1    
    72   36   37 ar   
    73   36   39 1    
    74   37   38 ar   
    75   37   72 1    
    76   38   73 1    
    77   39   40 3    
@<TRIPOS>SUBSTRUCTURE
     1 UNK         1 GROUP             0       ****    0 ROOT    
