ZINC36296272_1625
                    3D
 Schrodinger Suite 2024-2.
 33 34  0  0  1  0            999 V2000
    4.7076   53.4057   21.4053 C   0  0  0  0  0  0
    4.5432   53.8259   22.8769 C   0  0  0  0  0  0
    5.6172   54.4269   23.5622 C   0  0  0  0  0  0
    5.4806   54.8110   24.8930 C   0  0  0  0  0  0
    4.2726   54.6157   25.5483 C   0  0  0  0  0  0
    3.2027   54.0341   24.8749 C   0  0  0  0  0  0
    3.3086   53.6107   23.5395 C   0  0  0  0  0  0
    2.3031   52.9523   22.8638 N   0  5  0  0  0  0
    0.7873   52.8592   23.2453 S   0  0  0  0  0  0
    0.3061   53.9633   24.0815 O   0  0  0  0  0  0
   -0.0824   52.4965   22.1205 O   0  0  0  0  0  0
    0.7310   51.4069   24.3192 C   0  0  0  0  0  0
    0.5665   51.6407   25.6930 C   0  0  0  0  0  0
    0.2984   50.5964   26.5687 C   0  0  0  0  0  0
    0.1691   49.3041   26.0811 C   0  0  0  0  0  0
    0.3054   49.0532   24.7225 C   0  0  0  0  0  0
    0.6040   50.0849   23.8234 C   0  0  0  0  0  0
    0.7882   49.7217   22.4003 N   0  3  0  0  0  0
    0.0071   48.9055   21.9126 O   0  0  0  0  0  0
    1.7465   50.1821   21.7895 O   0  5  0  0  0  0
    6.8449   54.6643   22.9461 N   0  0  0  0  0  0
    4.7214   52.3162   21.3223 H   0  0  0  0  0  0
    3.8584   53.7646   20.8189 H   0  0  0  0  0  0
    5.5955   53.8082   20.9179 H   0  0  0  0  0  0
    6.3036   55.2651   25.4229 H   0  0  0  0  0  0
    4.1623   54.9144   26.5783 H   0  0  0  0  0  0
    2.2956   53.8927   25.4325 H   0  0  0  0  0  0
    0.6030   52.6401   26.0972 H   0  0  0  0  0  0
    0.1658   50.7854   27.6236 H   0  0  0  0  0  0
   -0.0526   48.4931   26.7574 H   0  0  0  0  0  0
    0.2086   48.0362   24.3739 H   0  0  0  0  0  0
    6.9308   54.4917   21.9569 H   0  0  0  0  0  0
    7.6274   55.0278   23.4780 H   0  0  0  0  0  0
  1  2  1  0  0  0
  1 22  1  0  0  0
  1 23  1  0  0  0
  1 24  1  0  0  0
  2  7  2  0  0  0
  2  3  1  0  0  0
  3  4  2  0  0  0
  3 21  1  0  0  0
  4  5  1  0  0  0
  4 25  1  0  0  0
  5  6  2  0  0  0
  5 26  1  0  0  0
  6  7  1  0  0  0
  6 27  1  0  0  0
  7  8  1  0  0  0
  8  9  1  0  0  0
  9 10  2  0  0  0
  9 11  2  0  0  0
  9 12  1  0  0  0
 12 17  2  0  0  0
 12 13  1  0  0  0
 13 14  2  0  0  0
 13 28  1  0  0  0
 14 15  1  0  0  0
 14 29  1  0  0  0
 15 16  2  0  0  0
 15 30  1  0  0  0
 16 17  1  0  0  0
 16 31  1  0  0  0
 17 18  1  0  0  0
 18 19  2  0  0  0
 18 20  1  0  0  0
 21 32  1  0  0  0
 21 33  1  0  0  0
M  CHG  3   8  -1  18   1  20  -1
M  END
> <i_i_glide_confnum>
8

> <i_i_glide_lignum>
1626

> <i_i_glide_posenum>
355

> <i_i_glide_rotatable_bonds>
4

> <i_m_Source_File_Index>
787

> <b_m_subgroup_collapsed>
0

> <r_i_docking_score>
-4.75141

> <r_i_glide_ecoul>
-4.0052

> <r_i_glide_eff_state_penalty>
0

> <r_i_glide_einternal>
2.86199

> <r_i_glide_emodel>
-38.5948

> <r_i_glide_energy>
-29.1979

> <r_i_glide_erotb>
0.590539

> <r_i_glide_esite>
0

> <r_i_glide_evdw>
-25.1927

> <r_i_glide_gscore>
-4.75141

> <r_i_glide_hbond>
-0.292106

> <r_i_glide_ligand_efficiency>
-0.226258

> <r_i_glide_ligand_efficiency_ln>
-1.17478

> <r_i_glide_ligand_efficiency_sa>
-0.624227

> <r_i_glide_lipo>
-1.73392

> <r_i_glide_metal>
0

> <r_i_glide_rewards>
-1.45551

> <s_i_glide_gridfile>
wee1_glide-grid

> <s_m_Source_File>
wee1_decoys_glide_SP.sdf

> <s_m_Source_Path>
/Users/zhangxujun/Desktop

> <s_m_entry_id>
1062

> <s_m_entry_name>
wee1_decoys_glide_SP.787

> <s_m_subgroup_title>
wee1_decoys_glide_SP

> <s_m_subgroupid>
wee1_decoys_glide_SP


$$$$
