ZINC00751145_5584
                    3D
 Schrodinger Suite 2024-2.
 67 70  0  0  1  0            999 V2000
    0.0183   49.6392   18.0780 C   0  0  0  0  0  0
    1.4108   50.1986   17.7263 C   0  0  0  0  0  0
    1.5040   50.5304   16.2274 C   0  0  0  0  0  0
    1.8020   51.4299   18.5724 C   0  0  0  0  0  0
    1.8184   51.1681   20.0274 N   0  0  0  0  0  0
    3.1219   50.7619   20.6024 C   0  0  0  0  0  0
    4.1020   51.9231   20.8820 C   0  0  0  0  0  0
    5.0887   51.6960   21.5805 O   0  0  0  0  0  0
    3.9393   53.0897   20.2246 N   0  0  0  0  0  0
    4.8815   54.0985   20.2264 C   0  0  0  0  0  0
    5.4312   54.7334   19.1340 C   0  0  0  0  0  0
    6.3750   55.6395   19.6308 C   0  0  0  0  0  0
    6.3680   55.6167   20.9515 N   0  0  0  0  0  0
    5.4668   54.6917   21.3343 N   0  0  0  0  0  0
    5.2124   54.4967   22.7207 C   0  0  0  0  0  0
    3.9064   54.2603   23.1752 C   0  0  0  0  0  0
    3.6578   54.0968   24.5349 C   0  0  0  0  0  0
    4.7107   54.1714   25.4443 C   0  0  0  0  0  0
    6.0131   54.4002   25.0038 C   0  0  0  0  0  0
    6.2660   54.5549   23.6434 C   0  0  0  0  0  0
    4.4009   53.9733   27.1307 Cl  0  0  0  0  0  0
    7.3276   56.5661   18.8640 C   0  0  0  0  0  0
    6.8629   58.0311   19.0440 C   0  0  0  0  0  0
    7.3367   56.2400   17.3520 C   0  0  0  0  0  0
    8.7735   56.3838   19.3938 C   0  0  0  0  0  0
    0.8400   51.6955   20.8198 C   0  0  0  0  0  0
    0.0004   52.4966   20.4075 O   0  0  0  0  0  0
    0.7489   51.2559   22.2613 C   0  0  0  0  0  0
    0.7669   49.8840   22.5975 C   0  0  0  0  0  0
    0.6112   49.4645   23.9250 C   0  0  0  0  0  0
    0.4398   50.4426   24.8939 C   0  0  0  0  0  0
    0.4307   51.7706   24.5842 C   0  0  0  0  0  0
    0.5770   52.2179   23.2760 C   0  0  0  0  0  0
    0.2961   52.4965   25.7243 O   0  0  0  0  0  0
    0.0485   51.5671   26.7482 C   0  0  0  0  0  0
    0.3060   50.2884   26.2349 O   0  0  0  0  0  0
   -0.7583   50.3935   17.9466 H   0  0  0  0  0  0
   -0.2360   48.7864   17.4472 H   0  0  0  0  0  0
   -0.0265   49.2973   19.1115 H   0  0  0  0  0  0
    2.1474   49.4168   17.9204 H   0  0  0  0  0  0
    0.7819   51.2945   15.9400 H   0  0  0  0  0  0
    2.4980   50.8980   15.9659 H   0  0  0  0  0  0
    1.3183   49.6476   15.6153 H   0  0  0  0  0  0
    1.1376   52.2570   18.3160 H   0  0  0  0  0  0
    2.7977   51.7443   18.2554 H   0  0  0  0  0  0
    3.5938   50.1464   19.8351 H   0  0  0  0  0  0
    3.0757   50.1033   21.4684 H   0  0  0  0  0  0
    3.1530   53.1885   19.6000 H   0  0  0  0  0  0
    5.2075   54.5323   18.0969 H   0  0  0  0  0  0
    3.0762   54.2275   22.4844 H   0  0  0  0  0  0
    2.6512   53.9183   24.8832 H   0  0  0  0  0  0
    6.8255   54.4414   25.7142 H   0  0  0  0  0  0
    7.2775   54.7187   23.3065 H   0  0  0  0  0  0
    6.7044   58.2880   20.0900 H   0  0  0  0  0  0
    7.5805   58.7417   18.6315 H   0  0  0  0  0  0
    5.9102   58.2074   18.5431 H   0  0  0  0  0  0
    7.6348   55.2075   17.1664 H   0  0  0  0  0  0
    6.3504   56.3731   16.9056 H   0  0  0  0  0  0
    8.0277   56.8837   16.8055 H   0  0  0  0  0  0
    9.1521   55.3840   19.1750 H   0  0  0  0  0  0
    9.4647   57.0993   18.9462 H   0  0  0  0  0  0
    8.8432   56.4966   20.4756 H   0  0  0  0  0  0
    0.8851   49.1340   21.8279 H   0  0  0  0  0  0
    0.6295   48.4181   24.1862 H   0  0  0  0  0  0
    0.5688   53.2743   23.0505 H   0  0  0  0  0  0
   -1.0005   51.6214   27.0484 H   0  0  0  0  0  0
    0.6999   51.7609   27.6031 H   0  0  0  0  0  0
  1  2  1  0  0  0
  1 37  1  0  0  0
  1 38  1  0  0  0
  1 39  1  0  0  0
  2  3  1  0  0  0
  2  4  1  0  0  0
  2 40  1  0  0  0
  3 41  1  0  0  0
  3 42  1  0  0  0
  3 43  1  0  0  0
  4  5  1  0  0  0
  4 44  1  0  0  0
  4 45  1  0  0  0
  5  6  1  0  0  0
  5 26  1  0  0  0
  6  7  1  0  0  0
  6 46  1  0  0  0
  6 47  1  0  0  0
  7  8  2  0  0  0
  7  9  1  0  0  0
  9 10  1  0  0  0
  9 48  1  0  0  0
 10 14  1  0  0  0
 10 11  2  0  0  0
 11 12  1  0  0  0
 11 49  1  0  0  0
 12 13  2  0  0  0
 12 22  1  0  0  0
 13 14  1  0  0  0
 14 15  1  0  0  0
 15 20  2  0  0  0
 15 16  1  0  0  0
 16 17  2  0  0  0
 16 50  1  0  0  0
 17 18  1  0  0  0
 17 51  1  0  0  0
 18 19  2  0  0  0
 18 21  1  0  0  0
 19 20  1  0  0  0
 19 52  1  0  0  0
 20 53  1  0  0  0
 22 23  1  0  0  0
 22 24  1  0  0  0
 22 25  1  0  0  0
 23 54  1  0  0  0
 23 55  1  0  0  0
 23 56  1  0  0  0
 24 57  1  0  0  0
 24 58  1  0  0  0
 24 59  1  0  0  0
 25 60  1  0  0  0
 25 61  1  0  0  0
 25 62  1  0  0  0
 26 27  2  0  0  0
 26 28  1  0  0  0
 28 33  2  0  0  0
 28 29  1  0  0  0
 29 30  2  0  0  0
 29 63  1  0  0  0
 30 31  1  0  0  0
 30 64  1  0  0  0
 31 36  1  0  0  0
 31 32  2  0  0  0
 32 33  1  0  0  0
 32 34  1  0  0  0
 33 65  1  0  0  0
 34 35  1  0  0  0
 35 36  1  0  0  0
 35 66  1  0  0  0
 35 67  1  0  0  0
M  END
> <i_i_glide_confnum>
135

> <i_i_glide_lignum>
5585

> <i_i_glide_posenum>
317

> <i_i_glide_rotatable_bonds>
10

> <i_m_Source_File_Index>
22

> <b_m_subgroup_collapsed>
0

> <r_i_docking_score>
-4.0743

> <r_i_glide_ecoul>
-4.89458

> <r_i_glide_eff_state_penalty>
0

> <r_i_glide_einternal>
7.11839

> <r_i_glide_emodel>
-55.0175

> <r_i_glide_energy>
-48.5251

> <r_i_glide_erotb>
0.549266

> <r_i_glide_esite>
-0.0496741

> <r_i_glide_evdw>
-43.6306

> <r_i_glide_gscore>
-4.0743

> <r_i_glide_hbond>
0

> <r_i_glide_ligand_efficiency>
-0.113175

> <r_i_glide_ligand_efficiency_ln>
-0.888902

> <r_i_glide_ligand_efficiency_sa>
-0.373695

> <r_i_glide_lipo>
-2.09294

> <r_i_glide_metal>
0

> <r_i_glide_rewards>
0.434765

> <s_i_glide_gridfile>
wee1_glide-grid

> <s_m_Source_File>
wee1_decoys_glide_SP.sdf

> <s_m_Source_Path>
/Users/zhangxujun/Desktop

> <s_m_entry_id>
297

> <s_m_entry_name>
wee1_decoys_glide_SP.22

> <s_m_subgroup_title>
wee1_decoys_glide_SP

> <s_m_subgroupid>
wee1_decoys_glide_SP


$$$$
