@<TRIPOS>MOLECULE
ZINC26726177_836
58   61    1
SMALL
USER_CHARGES


@<TRIPOS>ATOM
      1 C1         -0.1739   52.2057   30.3128 C.3       1 UNK         0.0000 
      2 C2          1.2221   52.0972   29.6840 C.3       1 UNK         0.0000 
      3 O3          1.1348   51.8342   28.2839 O.3       1 UNK         0.0000 
      4 C4          1.0417   52.8534   27.3991 C.2       1 UNK         0.0000 
      5 O5          1.1044   54.0336   27.7523 O.2       1 UNK         0.0000 
      6 C6          0.9078   52.4693   25.9677 C.2       1 UNK         0.0000 
      7 C7          0.5039   51.2573   25.4989 C.2       1 UNK         0.0000 
      8 N8          0.3751   51.0675   24.1497 N.am      1 UNK         0.0000 
      9 C9          0.2808   52.0470   23.2207 C.2       1 UNK         0.0000 
     10 O10        -0.1287   51.8553   22.0815 O.2       1 UNK         0.0000 
     11 N11         0.5997   53.2824   23.6811 N.am      1 UNK         0.0000 
     12 C12         1.3628   53.5248   24.9287 C.3       1 UNK         0.0000 
     13 H13         1.1044   54.4968   25.2840 H         1 UNK         0.0000 
     14 C14         2.8759   53.7504   24.7484 C.ar      1 UNK         0.0000 
     15 C15         3.6804   54.0959   25.8439 C.ar      1 UNK         0.0000 
     16 C16         5.0481   54.2629   25.6971 C.ar      1 UNK         0.0000 
     17 C17         5.6376   54.0990   24.4510 C.ar      1 UNK         0.0000 
     18 C18         4.8309   53.8739   23.3261 C.ar      1 UNK         0.0000 
     19 C19         3.4625   53.6968   23.4770 C.ar      1 UNK         0.0000 
     20 O20         7.0110   54.1455   24.4243 O.3       1 UNK         0.0000 
     21 C21         7.6565   53.6125   23.2816 C.3       1 UNK         0.0000 
     22 C22        -0.0836   50.0943   26.3177 C.3       1 UNK         0.0000 
     23 N23        -1.1919   49.3596   25.6815 N.pl3     1 UNK         0.0000 
     24 C24        -0.7100   48.0953   25.1031 C.3       1 UNK         0.0000 
     25 C25        -1.6494   47.5141   24.0380 C.3       1 UNK         0.0000 
     26 C26        -3.0751   47.4458   24.5895 C.3       1 UNK         0.0000 
     27 C27        -3.4948   48.8359   25.0622 C.ar      1 UNK         0.0000 
     28 C28        -2.5487   49.7376   25.6208 C.ar      1 UNK         0.0000 
     29 C29        -3.0025   51.0088   26.0471 C.ar      1 UNK         0.0000 
     30 C30        -4.3428   51.3683   25.9199 C.ar      1 UNK         0.0000 
     31 C31        -5.2565   50.4852   25.3654 C.ar      1 UNK         0.0000 
     32 C32        -4.8321   49.2322   24.9405 C.ar      1 UNK         0.0000 
     33 F33        -6.5545   50.8431   25.2397 F         1 UNK         0.0000 
     34 F34        -2.1702   51.9357   26.5762 F         1 UNK         0.0000 
     35 H35        -0.0956   52.3653   31.3876 H         1 UNK         0.0000 
     36 H36        -0.7375   53.0384   29.8917 H         1 UNK         0.0000 
     37 H37        -0.7564   51.2963   30.1555 H         1 UNK         0.0000 
     38 H38         1.7800   51.2964   30.1580 H         1 UNK         0.0000 
     39 H39         1.7998   53.0023   29.8853 H         1 UNK         0.0000 
     40 H40         0.0785   50.1614   23.8205 H         1 UNK         0.0000 
     41 H41         0.6984   53.9727   22.9533 H         1 UNK         0.0000 
     42 H42         3.2803   54.2171   26.8345 H         1 UNK         0.0000 
     43 H43         5.6598   54.4696   26.5634 H         1 UNK         0.0000 
     44 H44         5.2504   53.7942   22.3341 H         1 UNK         0.0000 
     45 H45         2.8818   53.4865   22.5918 H         1 UNK         0.0000 
     46 H46         8.6639   53.2959   23.5426 H         1 UNK         0.0000 
     47 H47         7.7220   54.3648   22.4943 H         1 UNK         0.0000 
     48 H48         7.1527   52.7323   22.8818 H         1 UNK         0.0000 
     49 H49         0.7304   49.4095   26.5657 H         1 UNK         0.0000 
     50 H50        -0.4768   50.4421   27.2717 H         1 UNK         0.0000 
     51 H51         0.3605   48.0202   24.9021 H         1 UNK         0.0000 
     52 H52        -0.8957   47.4057   25.9282 H         1 UNK         0.0000 
     53 H53        -1.6254   48.1475   23.1493 H         1 UNK         0.0000 
     54 H54        -1.2960   46.5354   23.7123 H         1 UNK         0.0000 
     55 H55        -3.7608   47.0592   23.8344 H         1 UNK         0.0000 
     56 H56        -3.1161   46.7592   25.4361 H         1 UNK         0.0000 
     57 H57        -4.6712   52.3434   26.2480 H         1 UNK         0.0000 
     58 H58        -5.5595   48.5580   24.5119 H         1 UNK         0.0000 
@<TRIPOS>BOND
     1    1    2 1    
     2    1   35 1    
     3    1   36 1    
     4    1   37 1    
     5    2    3 1    
     6    2   38 1    
     7    2   39 1    
     8    3    4 1    
     9    4    5 2    
    10    4    6 1    
    11    6   12 1    
    12    6    7 2    
    13    7    8 1    
    14    7   22 1    
    15    8    9 am   BACKBONE|DICT|INTERRES
    16    8   40 1    
    17    9   10 2    
    18    9   11 am   BACKBONE|DICT|INTERRES
    19   11   12 1    
    20   11   41 1    
    21   12   13 1    
    22   12   14 1    
    23   14   19 ar   
    24   14   15 ar   
    25   15   16 ar   
    26   15   42 1    
    27   16   17 ar   
    28   16   43 1    
    29   17   18 ar   
    30   17   20 1    
    31   18   19 ar   
    32   18   44 1    
    33   19   45 1    
    34   20   21 1    
    35   21   46 1    
    36   21   47 1    
    37   21   48 1    
    38   22   23 1    
    39   22   49 1    
    40   22   50 1    
    41   23   28 1    
    42   23   24 1    
    43   24   25 1    
    44   24   51 1    
    45   24   52 1    
    46   25   26 1    
    47   25   53 1    
    48   25   54 1    
    49   26   27 1    
    50   26   55 1    
    51   26   56 1    
    52   27   32 ar   
    53   27   28 ar   
    54   28   29 ar   
    55   29   30 ar   
    56   29   34 1    
    57   30   31 ar   
    58   30   57 1    
    59   31   32 ar   
    60   31   33 1    
    61   32   58 1    
@<TRIPOS>SUBSTRUCTURE
     1 UNK         1 GROUP             0       ****    0 ROOT    
