@<TRIPOS>MOLECULE
ZINC39652835_3671
64   66    1
SMALL
USER_CHARGES


@<TRIPOS>ATOM
      1 C1          3.6643   51.8713   31.6483 C.3       1 UNK         0.0000 
      2 C2          3.6427   51.9931   30.1162 C.3       1 UNK         0.0000 
      3 C3          3.0961   53.3567   29.6512 C.3       1 UNK         0.0000 
      4 C4          2.4217   53.3494   28.2479 C.3       1 UNK         0.0000 
      5 H5          3.1342   52.8568   27.5828 H         1 UNK         0.0000 
      6 C6          2.2402   54.8017   27.7462 C.3       1 UNK         0.0000 
      7 C7          1.1066   52.5117   28.1916 C.2       1 UNK         0.0000 
      8 O8          0.6014   52.1260   29.2477 O.2       1 UNK         0.0000 
      9 N9          0.5634   52.1674   26.9972 N.am      1 UNK         0.0000 
     10 C10         0.9434   52.6900   25.6916 C.3       1 UNK         0.0000 
     11 C11        -0.2738   52.3543   24.7851 C.3       1 UNK         0.0000 
     12 H12        -0.9867   53.1743   24.8825 H         1 UNK         0.0000 
     13 C13        -0.8165   51.0275   25.3844 C.3       1 UNK         0.0000 
     14 C14        -0.6111   51.3043   26.8988 C.3       1 UNK         0.0000 
     15 C15        -0.0286   49.7753   24.8911 C.3       1 UNK         0.0000 
     16 C16        -0.3856   48.5073   25.6817 C.3       1 UNK         0.0000 
     17 N17        -1.9197   48.2914   25.6814 N.4       1 UNK         0.0000 
     18 C18        -2.8082   49.5432   25.8940 C.3       1 UNK         0.0000 
     19 C19        -2.2842   50.7093   25.0258 C.3       1 UNK         0.0000 
     20 C20         0.1394   52.3113   23.2835 C.2       1 UNK         0.0000 
     21 O21        -0.7031   52.0258   22.4352 O.2       1 UNK         0.0000 
     22 N22         1.3900   52.6717   22.9596 N.am      1 UNK         0.0000 
     23 C23         2.0217   52.6927   21.6480 C.3       1 UNK         0.0000 
     24 C24         3.5554   52.4910   21.6989 C.3       1 UNK         0.0000 
     25 C25         4.3737   53.4844   22.5410 C.ar      1 UNK         0.0000 
     26 C26         4.0818   53.6967   23.8946 C.ar      1 UNK         0.0000 
     27 C27         4.9051   54.4658   24.6943 C.ar      1 UNK         0.0000 
     28 C28         6.0315   55.0442   24.1437 C.ar      1 UNK         0.0000 
     29 C29         6.3356   54.8884   22.7922 C.ar      1 UNK         0.0000 
     30 C30         5.4994   54.1081   21.9901 C.ar      1 UNK         0.0000 
     31 Br31        7.1044   56.0966   25.2831 Br        1 UNK         0.0000 
     32 H32         4.0353   50.9028   31.9757 H         1 UNK         0.0000 
     33 H33         2.6656   51.9926   32.0714 H         1 UNK         0.0000 
     34 H34         4.3049   52.6333   32.0887 H         1 UNK         0.0000 
     35 H35         4.6478   51.8479   29.7192 H         1 UNK         0.0000 
     36 H36         3.0479   51.1908   29.6826 H         1 UNK         0.0000 
     37 H37         2.3771   53.7440   30.3765 H         1 UNK         0.0000 
     38 H38         3.9278   54.0627   29.6660 H         1 UNK         0.0000 
     39 H39         2.6650   54.8964   26.7475 H         1 UNK         0.0000 
     40 H40         1.1958   55.1204   27.7204 H         1 UNK         0.0000 
     41 H41         2.7656   55.5336   28.3635 H         1 UNK         0.0000 
     42 H42         1.1373   53.7613   25.6644 H         1 UNK         0.0000 
     43 H43         1.8072   52.0966   25.3925 H         1 UNK         0.0000 
     44 H44        -0.5957   50.4195   27.5339 H         1 UNK         0.0000 
     45 H45        -1.4581   51.8959   27.2512 H         1 UNK         0.0000 
     46 H46        -0.1439   49.6088   23.8183 H         1 UNK         0.0000 
     47 H47         1.0399   49.9293   25.0419 H         1 UNK         0.0000 
     48 H48         0.0524   47.6188   25.2323 H         1 UNK         0.0000 
     49 H49        -0.0690   48.5458   26.7234 H         1 UNK         0.0000 
     50 H50        -2.1868   47.8429   24.8171 H         1 UNK         0.0000 
     51 H51        -3.8260   49.2494   25.6332 H         1 UNK         0.0000 
     52 H52        -2.7783   49.7513   26.9638 H         1 UNK         0.0000 
     53 H53        -2.9035   51.5774   25.2590 H         1 UNK         0.0000 
     54 H54        -2.4222   50.5331   23.9576 H         1 UNK         0.0000 
     55 H55         1.9584   53.0490   23.6976 H         1 UNK         0.0000 
     56 H56         1.5515   52.0164   20.9307 H         1 UNK         0.0000 
     57 H57         1.8441   53.6966   21.2904 H         1 UNK         0.0000 
     58 H58         3.7617   51.4867   22.0680 H         1 UNK         0.0000 
     59 H59         3.9299   52.4856   20.6734 H         1 UNK         0.0000 
     60 H60         3.2812   53.1911   24.3931 H         1 UNK         0.0000 
     61 H61         4.6917   54.5871   25.7454 H         1 UNK         0.0000 
     62 H62         7.2174   55.3534   22.3764 H         1 UNK         0.0000 
     63 H63         5.7494   53.9637   20.9486 H         1 UNK         0.0000 
     64 H64        -2.1158   47.6500   26.4410 H         1 UNK         0.0000 
@<TRIPOS>BOND
     1    1    2 1    
     2    1   32 1    
     3    1   33 1    
     4    1   34 1    
     5    2    3 1    
     6    2   35 1    
     7    2   36 1    
     8    3    4 1    
     9    3   37 1    
    10    3   38 1    
    11    4    5 1    
    12    4    6 1    
    13    4    7 1    
    14    6   39 1    
    15    6   40 1    
    16    6   41 1    
    17    7    8 2    
    18    7    9 am   BACKBONE|DICT|INTERRES
    19    9   14 1    
    20    9   10 1    
    21   10   11 1    
    22   10   42 1    
    23   10   43 1    
    24   11   12 1    
    25   11   13 1    
    26   11   20 1    
    27   13   19 1    
    28   13   14 1    
    29   13   15 1    
    30   14   44 1    
    31   14   45 1    
    32   15   16 1    
    33   15   46 1    
    34   15   47 1    
    35   16   17 1    
    36   16   48 1    
    37   16   49 1    
    38   17   18 1    
    39   17   50 1    
    40   17   64 1    
    41   18   19 1    
    42   18   51 1    
    43   18   52 1    
    44   19   53 1    
    45   19   54 1    
    46   20   21 2    
    47   20   22 am   BACKBONE|DICT|INTERRES
    48   22   23 1    
    49   22   55 1    
    50   23   24 1    
    51   23   56 1    
    52   23   57 1    
    53   24   25 1    
    54   24   58 1    
    55   24   59 1    
    56   25   30 ar   
    57   25   26 ar   
    58   26   27 ar   
    59   26   60 1    
    60   27   28 ar   
    61   27   61 1    
    62   28   29 ar   
    63   28   31 1    
    64   29   30 ar   
    65   29   62 1    
    66   30   63 1    
@<TRIPOS>SUBSTRUCTURE
     1 UNK         1 GROUP             0       ****    0 ROOT    
