@<TRIPOS>MOLECULE
ZINC12064290_3989
67   70    1
SMALL
USER_CHARGES


@<TRIPOS>ATOM
      1 C1          2.2558   53.8156   13.2195 C.3       1 UNK         0.0000 
      2 C2          2.2145   53.4628   14.7177 C.3       1 UNK         0.0000 
      3 H3          1.3000   53.9060   15.1185 H         1 UNK         0.0000 
      4 C4          2.2193   51.9386   14.9335 C.3       1 UNK         0.0000 
      5 C5          1.9479   51.5585   16.4049 C.3       1 UNK         0.0000 
      6 C6          2.8040   52.4178   17.3553 C.2       1 UNK         0.0000 
      7 C7          3.4498   53.5756   16.8816 C.2       1 UNK         0.0000 
      8 S8          4.3440   54.3899   18.1090 S.3       1 UNK         0.0000 
      9 C9          3.8448   53.2227   19.2992 C.2       1 UNK         0.0000 
     10 C10         3.0612   52.1861   18.7444 C.2       1 UNK         0.0000 
     11 C11         2.5037   51.1041   19.5586 C.2       1 UNK         0.0000 
     12 O12         2.2611   51.2656   20.7584 O.2       1 UNK         0.0000 
     13 N13         2.3044   49.9308   18.9334 N.am      1 UNK         0.0000 
     14 C14         1.7570   48.7492   19.5850 C.3       1 UNK         0.0000 
     15 N15         4.1828   53.3508   20.6444 N.am      1 UNK         0.0000 
     16 C16         5.1024   54.1518   21.2250 C.2       1 UNK         0.0000 
     17 O17         5.9147   54.8628   20.6330 O.2       1 UNK         0.0000 
     18 C18         5.1072   54.0966   22.7294 C.ar      1 UNK         0.0000 
     19 C19         6.3135   54.1081   23.4412 C.ar      1 UNK         0.0000 
     20 C20         6.3049   54.0967   24.8358 C.ar      1 UNK         0.0000 
     21 C21         5.0927   54.0973   25.5295 C.ar      1 UNK         0.0000 
     22 C22         3.8927   54.1302   24.8167 C.ar      1 UNK         0.0000 
     23 C23         3.8962   54.0988   23.4300 C.ar      1 UNK         0.0000 
     24 S24         5.1294   54.1157   27.3312 S.o2      1 UNK         0.0000 
     25 O25         5.6238   52.8291   27.8036 O.2       1 UNK         0.0000 
     26 O26         5.9049   55.2968   27.6823 O.2       1 UNK         0.0000 
     27 N27         3.4640   54.3003   27.9297 N.pl3     1 UNK         0.0000 
     28 C28         3.2900   54.9932   29.2336 C.3       1 UNK         0.0000 
     29 C29         2.5461   53.1616   27.6301 C.3       1 UNK         0.0000 
     30 C30         2.4210   52.2041   28.8166 C.3       1 UNK         0.0000 
     31 C31         1.5076   51.0472   28.3900 C.3       1 UNK         0.0000 
     32 C32         0.1397   51.4750   27.8206 C.3       1 UNK         0.0000 
     33 C33         0.2791   52.5601   26.7417 C.3       1 UNK         0.0000 
     34 C34         1.1536   53.7124   27.2812 C.3       1 UNK         0.0000 
     35 C35         3.4274   54.0834   15.4441 C.3       1 UNK         0.0000 
     36 H36         3.1395   53.4016   12.7318 H         1 UNK         0.0000 
     37 H37         1.3792   53.4259   12.7001 H         1 UNK         0.0000 
     38 H38         2.2687   54.8950   13.0675 H         1 UNK         0.0000 
     39 H39         3.1535   51.5049   14.5685 H         1 UNK         0.0000 
     40 H40         1.4506   51.4779   14.3117 H         1 UNK         0.0000 
     41 H41         0.8910   51.6880   16.6390 H         1 UNK         0.0000 
     42 H42         2.1645   50.4970   16.4986 H         1 UNK         0.0000 
     43 H43         2.8472   49.7507   18.0933 H         1 UNK         0.0000 
     44 H44         1.5215   47.9915   18.8402 H         1 UNK         0.0000 
     45 H45         2.4875   48.3285   20.2755 H         1 UNK         0.0000 
     46 H46         0.8482   48.9851   20.1430 H         1 UNK         0.0000 
     47 H47         3.7220   52.6776   21.2411 H         1 UNK         0.0000 
     48 H48         7.2623   54.1286   22.9227 H         1 UNK         0.0000 
     49 H49         7.2375   54.0933   25.3794 H         1 UNK         0.0000 
     50 H50         2.9401   54.1891   25.3046 H         1 UNK         0.0000 
     51 H51         2.9485   54.1269   22.9086 H         1 UNK         0.0000 
     52 H52         2.2500   55.2851   29.3794 H         1 UNK         0.0000 
     53 H53         3.6149   54.3380   30.0424 H         1 UNK         0.0000 
     54 H54         3.9047   55.8842   29.2817 H         1 UNK         0.0000 
     55 H55         2.9054   52.5898   26.7732 H         1 UNK         0.0000 
     56 H56         3.4005   51.8302   29.1218 H         1 UNK         0.0000 
     57 H57         1.9823   52.6987   29.6851 H         1 UNK         0.0000 
     58 H58         2.0056   50.3852   27.6838 H         1 UNK         0.0000 
     59 H59         1.3107   50.4967   29.2815 H         1 UNK         0.0000 
     60 H60        -0.3882   50.6072   27.4202 H         1 UNK         0.0000 
     61 H61        -0.4853   51.8530   28.6318 H         1 UNK         0.0000 
     62 H62         0.7288   52.1376   25.8407 H         1 UNK         0.0000 
     63 H63        -0.7148   52.8967   26.4503 H         1 UNK         0.0000 
     64 H64         0.6727   54.1695   28.1477 H         1 UNK         0.0000 
     65 H65         1.2612   54.4964   26.5428 H         1 UNK         0.0000 
     66 H66         4.3555   53.7972   14.9464 H         1 UNK         0.0000 
     67 H67         3.3749   55.1730   15.4157 H         1 UNK         0.0000 
@<TRIPOS>BOND
     1    1    2 1    
     2    1   36 1    
     3    1   37 1    
     4    1   38 1    
     5    2    3 1    
     6    2   35 1    
     7    2    4 1    
     8    4    5 1    
     9    4   39 1    
    10    4   40 1    
    11    5    6 1    
    12    5   41 1    
    13    5   42 1    
    14    6   10 1    
    15    6    7 2    
    16    7    8 1    
    17    7   35 1    
    18    8    9 1    
    19    9   10 2    
    20    9   15 am   BACKBONE|DICT|INTERRES
    21   10   11 1    
    22   11   12 2    
    23   11   13 am   BACKBONE|DICT|INTERRES
    24   13   14 1    
    25   13   43 1    
    26   14   44 1    
    27   14   45 1    
    28   14   46 1    
    29   15   16 am   BACKBONE|DICT|INTERRES
    30   15   47 1    
    31   16   17 2    
    32   16   18 1    
    33   18   23 ar   
    34   18   19 ar   
    35   19   20 ar   
    36   19   48 1    
    37   20   21 ar   
    38   20   49 1    
    39   21   22 ar   
    40   21   24 1    
    41   22   23 ar   
    42   22   50 1    
    43   23   51 1    
    44   24   25 2    
    45   24   26 2    
    46   24   27 1    
    47   27   28 1    
    48   27   29 1    
    49   28   52 1    
    50   28   53 1    
    51   28   54 1    
    52   29   34 1    
    53   29   30 1    
    54   29   55 1    
    55   30   31 1    
    56   30   56 1    
    57   30   57 1    
    58   31   32 1    
    59   31   58 1    
    60   31   59 1    
    61   32   33 1    
    62   32   60 1    
    63   32   61 1    
    64   33   34 1    
    65   33   62 1    
    66   33   63 1    
    67   34   64 1    
    68   34   65 1    
    69   35   66 1    
    70   35   67 1    
@<TRIPOS>SUBSTRUCTURE
     1 UNK         1 GROUP             0       ****    0 ROOT    
