ZINC09292711_3443
                    3D
 Schrodinger Suite 2024-2.
 62 66  0  0  1  0            999 V2000
   -6.9810   49.6569   25.0416 C   0  0  0  0  0  0
   -6.1119   49.8101   23.7843 C   0  0  0  0  0  0
   -6.9412   50.2984   22.5802 C   0  0  0  0  0  0
   -5.0921   50.7539   24.1112 O   0  0  0  0  0  0
   -3.9706   50.8970   23.3151 C   0  0  0  0  0  0
   -3.6480   50.0737   22.2278 C   0  0  0  0  0  0
   -2.4984   50.3167   21.4858 C   0  0  0  0  0  0
   -1.6606   51.3870   21.8094 C   0  0  0  0  0  0
   -1.9746   52.1989   22.9024 C   0  0  0  0  0  0
   -3.1195   51.9478   23.6535 C   0  0  0  0  0  0
   -0.3825   51.6398   21.0033 C   0  0  1  0  0  0
   -0.0742   52.6635   21.2206 H   0  0  0  0  0  0
    0.7444   50.6914   21.4077 C   0  0  0  0  0  0
    1.2445   50.2425   22.6256 C   0  0  0  0  0  0
    2.1799   49.2965   22.2934 N   0  0  0  0  0  0
    2.7041   48.7586   22.9764 H   0  0  0  0  0  0
    2.3042   49.0885   20.9814 N   0  0  0  0  0  0
    1.4449   49.9265   20.4626 C   0  0  0  0  0  0
    1.2651   49.9809   19.1034 O   0  0  0  0  0  0
    0.2409   50.7729   18.6880 C   0  0  0  0  0  0
   -0.5562   51.5423   19.4728 C   0  0  0  0  0  0
   -1.6128   52.2942   18.8799 C   0  0  0  0  0  0
   -2.4956   52.8963   18.4375 N   0  0  0  0  0  0
    0.1824   50.6673   17.3255 N   0  0  0  0  0  0
    0.9183   50.5766   24.0283 C   0  0  0  0  0  0
    0.9503   51.8966   24.4817 C   0  0  0  0  0  0
    0.6595   52.1780   25.8151 C   0  0  0  0  0  0
    0.3282   51.1396   26.7005 C   0  0  0  0  0  0
    0.2936   49.8291   26.2252 C   0  0  0  0  0  0
    0.5828   49.5432   24.8992 C   0  0  0  0  0  0
    0.0502   51.3100   28.0448 O   0  0  0  0  0  0
    0.0256   52.6146   28.6251 C   0  0  0  0  0  0
    1.4197   53.1951   28.8571 C   0  0  0  0  0  0
    2.5422   52.3659   28.9591 C   0  0  0  0  0  0
    3.8034   52.9196   29.1696 C   0  0  0  0  0  0
    3.9405   54.3023   29.2800 C   0  0  0  0  0  0
    2.8251   55.1342   29.1938 C   0  0  0  0  0  0
    1.5656   54.5799   28.9822 C   0  0  0  0  0  0
   -7.7798   48.9315   24.8870 H   0  0  0  0  0  0
   -7.4386   50.6069   25.3239 H   0  0  0  0  0  0
   -6.3829   49.3152   25.8890 H   0  0  0  0  0  0
   -5.6750   48.8326   23.5753 H   0  0  0  0  0  0
   -7.7478   49.6040   22.3463 H   0  0  0  0  0  0
   -7.3859   51.2716   22.7853 H   0  0  0  0  0  0
   -6.3349   50.4057   21.6821 H   0  0  0  0  0  0
   -4.2758   49.2442   21.9416 H   0  0  0  0  0  0
   -2.2572   49.6708   20.6547 H   0  0  0  0  0  0
   -1.3315   53.0191   23.1842 H   0  0  0  0  0  0
   -3.3524   52.5768   24.4994 H   0  0  0  0  0  0
   -0.5287   51.1515   16.7986 H   0  0  0  0  0  0
    0.9941   50.3326   16.8245 H   0  0  0  0  0  0
    1.2110   52.6966   23.8068 H   0  0  0  0  0  0
    0.7052   53.2021   26.1485 H   0  0  0  0  0  0
    0.0223   49.0169   26.8812 H   0  0  0  0  0  0
    0.5472   48.5169   24.5587 H   0  0  0  0  0  0
   -0.5840   53.2887   28.0207 H   0  0  0  0  0  0
   -0.4731   52.5365   29.5924 H   0  0  0  0  0  0
    2.4410   51.2940   28.8661 H   0  0  0  0  0  0
    4.6731   52.2830   29.2316 H   0  0  0  0  0  0
    4.9189   54.7353   29.4328 H   0  0  0  0  0  0
    2.9390   56.2052   29.2824 H   0  0  0  0  0  0
    0.7048   55.2291   28.9099 H   0  0  0  0  0  0
  1  2  1  0  0  0
  1 39  1  0  0  0
  1 40  1  0  0  0
  1 41  1  0  0  0
  2  3  1  0  0  0
  2  4  1  0  0  0
  2 42  1  0  0  0
  3 43  1  0  0  0
  3 44  1  0  0  0
  3 45  1  0  0  0
  4  5  1  0  0  0
  5 10  2  0  0  0
  5  6  1  0  0  0
  6  7  2  0  0  0
  6 46  1  0  0  0
  7  8  1  0  0  0
  7 47  1  0  0  0
  8  9  2  0  0  0
  8 11  1  0  0  0
  9 10  1  0  0  0
  9 48  1  0  0  0
 10 49  1  0  0  0
 11 12  1  0  0  0
 11 21  1  0  0  0
 11 13  1  0  0  0
 13 18  1  0  0  0
 13 14  2  0  0  0
 14 15  1  0  0  0
 14 25  1  0  0  0
 15 16  1  0  0  0
 15 17  1  0  0  0
 17 18  2  0  0  0
 18 19  1  0  0  0
 19 20  1  0  0  0
 20 21  2  0  0  0
 20 24  1  0  0  0
 21 22  1  0  0  0
 22 23  3  0  0  0
 24 50  1  0  0  0
 24 51  1  0  0  0
 25 30  2  0  0  0
 25 26  1  0  0  0
 26 27  2  0  0  0
 26 52  1  0  0  0
 27 28  1  0  0  0
 27 53  1  0  0  0
 28 29  2  0  0  0
 28 31  1  0  0  0
 29 30  1  0  0  0
 29 54  1  0  0  0
 30 55  1  0  0  0
 31 32  1  0  0  0
 32 33  1  0  0  0
 32 56  1  0  0  0
 32 57  1  0  0  0
 33 38  2  0  0  0
 33 34  1  0  0  0
 34 35  2  0  0  0
 34 58  1  0  0  0
 35 36  1  0  0  0
 35 59  1  0  0  0
 36 37  2  0  0  0
 36 60  1  0  0  0
 37 38  1  0  0  0
 37 61  1  0  0  0
 38 62  1  0  0  0
M  END
> <i_i_glide_confnum>
39

> <i_i_glide_lignum>
3444

> <i_i_glide_posenum>
168

> <i_i_glide_rotatable_bonds>
8

> <i_m_Source_File_Index>
2029

> <b_m_subgroup_collapsed>
0

> <r_i_docking_score>
-4.88633

> <r_i_glide_ecoul>
-6.58271

> <r_i_glide_eff_state_penalty>
0

> <r_i_glide_einternal>
7.38523

> <r_i_glide_emodel>
-53.6638

> <r_i_glide_energy>
-44.9569

> <r_i_glide_erotb>
0.530961

> <r_i_glide_esite>
-0.0459027

> <r_i_glide_evdw>
-38.3741

> <r_i_glide_gscore>
-4.88633

> <r_i_glide_hbond>
-0.568181

> <r_i_glide_ligand_efficiency>
-0.135731

> <r_i_glide_ligand_efficiency_ln>
-1.06606

> <r_i_glide_ligand_efficiency_sa>
-0.448175

> <r_i_glide_lipo>
-1.75122

> <r_i_glide_metal>
0

> <r_i_glide_rewards>
-0.14587

> <s_i_glide_gridfile>
wee1_glide-grid

> <s_m_Source_File>
wee1_decoys_glide_SP.sdf

> <s_m_Source_Path>
/Users/zhangxujun/Desktop

> <s_m_entry_id>
2304

> <s_m_entry_name>
wee1_decoys_glide_SP.2029

> <s_m_subgroup_title>
wee1_decoys_glide_SP

> <s_m_subgroupid>
wee1_decoys_glide_SP


$$$$
