ZINC67081504_4612
                    3D
 Schrodinger Suite 2024-2.
 46 48  0  0  1  0            999 V2000
    2.7028   50.7326   22.1056 C   0  0  0  0  0  0
    1.8678   49.9086   21.1529 C   0  0  0  0  0  0
    2.2499   49.6895   19.8181 C   0  0  0  0  0  0
    1.3543   48.9347   19.0848 C   0  0  0  0  0  0
   -0.0257   48.4967   20.0198 S   0  0  0  0  0  0
    0.6240   49.2964   21.4312 C   0  0  0  0  0  0
   -0.1839   49.2974   22.6413 C   0  0  0  0  0  0
   -1.3893   49.0313   22.6009 O   0  0  0  0  0  0
    0.4768   49.6305   23.7709 N   0  0  0  0  0  0
   -0.1990   49.5675   24.9924 N   0  0  0  0  0  0
   -0.4033   50.7202   25.6608 C   0  0  0  0  0  0
   -0.1495   51.8484   25.2272 O   0  0  0  0  0  0
   -0.9197   50.4967   26.8814 N   0  0  0  0  0  0
   -1.0860   51.4812   27.9534 C   0  0  0  0  0  0
    0.1714   52.2492   28.3609 C   0  0  0  0  0  0
    0.0798   53.6137   28.6400 C   0  0  0  0  0  0
    1.2309   54.3608   28.8769 C   0  0  0  0  0  0
    2.4759   53.7374   28.8248 C   0  0  0  0  0  0
    2.5677   52.3602   28.6188 C   0  0  0  0  0  0
    1.4188   51.6199   28.3773 C   0  0  0  0  0  0
    3.6172   54.4958   28.9141 O   0  0  0  0  0  0
    4.4845   54.4898   27.8399 C   0  0  0  0  0  0
    5.8514   54.4948   28.1029 C   0  0  0  0  0  0
    6.7647   54.4935   27.0550 C   0  0  0  0  0  0
    6.3131   54.4957   25.7371 C   0  0  0  0  0  0
    4.9486   54.4979   25.4601 C   0  0  0  0  0  0
    4.0344   54.4971   26.5103 C   0  0  0  0  0  0
    2.1104   51.5018   22.6022 H   0  0  0  0  0  0
    3.1046   50.0972   22.8932 H   0  0  0  0  0  0
    3.5328   51.2423   21.6154 H   0  0  0  0  0  0
    3.1664   50.0745   19.3907 H   0  0  0  0  0  0
    1.4394   48.6402   18.0481 H   0  0  0  0  0  0
    1.4777   49.5460   23.8667 H   0  0  0  0  0  0
   -0.0608   48.6869   25.4681 H   0  0  0  0  0  0
   -1.2085   49.5530   27.1405 H   0  0  0  0  0  0
   -1.8836   52.1612   27.6552 H   0  0  0  0  0  0
   -1.4576   50.9517   28.8325 H   0  0  0  0  0  0
   -0.8863   54.0964   28.6251 H   0  0  0  0  0  0
    1.1644   55.4268   29.0415 H   0  0  0  0  0  0
    3.5347   51.8809   28.5825 H   0  0  0  0  0  0
    1.5060   50.5669   28.1526 H   0  0  0  0  0  0
    6.2064   54.4963   29.1232 H   0  0  0  0  0  0
    7.8214   54.4903   27.2753 H   0  0  0  0  0  0
    7.0243   54.4915   24.9232 H   0  0  0  0  0  0
    4.6001   54.4987   24.4375 H   0  0  0  0  0  0
    2.9771   54.4988   26.2911 H   0  0  0  0  0  0
  1  2  1  0  0  0
  1 28  1  0  0  0
  1 29  1  0  0  0
  1 30  1  0  0  0
  2  6  2  0  0  0
  2  3  1  0  0  0
  3  4  2  0  0  0
  3 31  1  0  0  0
  4  5  1  0  0  0
  4 32  1  0  0  0
  5  6  1  0  0  0
  6  7  1  0  0  0
  7  8  2  0  0  0
  7  9  1  0  0  0
  9 10  1  0  0  0
  9 33  1  0  0  0
 10 11  1  0  0  0
 10 34  1  0  0  0
 11 12  2  0  0  0
 11 13  1  0  0  0
 13 14  1  0  0  0
 13 35  1  0  0  0
 14 15  1  0  0  0
 14 36  1  0  0  0
 14 37  1  0  0  0
 15 20  2  0  0  0
 15 16  1  0  0  0
 16 17  2  0  0  0
 16 38  1  0  0  0
 17 18  1  0  0  0
 17 39  1  0  0  0
 18 19  2  0  0  0
 18 21  1  0  0  0
 19 20  1  0  0  0
 19 40  1  0  0  0
 20 41  1  0  0  0
 21 22  1  0  0  0
 22 27  2  0  0  0
 22 23  1  0  0  0
 23 24  2  0  0  0
 23 42  1  0  0  0
 24 25  1  0  0  0
 24 43  1  0  0  0
 25 26  2  0  0  0
 25 44  1  0  0  0
 26 27  1  0  0  0
 26 45  1  0  0  0
 27 46  1  0  0  0
M  END
> <i_i_glide_confnum>
281

> <i_i_glide_lignum>
4613

> <i_i_glide_posenum>
33

> <i_i_glide_rotatable_bonds>
9

> <i_m_Source_File_Index>
2356

> <b_m_subgroup_collapsed>
0

> <r_i_docking_score>
-5.62169

> <r_i_glide_ecoul>
-6.04249

> <r_i_glide_eff_state_penalty>
0

> <r_i_glide_einternal>
5.27448

> <r_i_glide_emodel>
-60.3316

> <r_i_glide_energy>
-44.7643

> <r_i_glide_erotb>
1.20066

> <r_i_glide_esite>
-0.166886

> <r_i_glide_evdw>
-38.7218

> <r_i_glide_gscore>
-5.62169

> <r_i_glide_hbond>
-0.155414

> <r_i_glide_ligand_efficiency>
-0.208211

> <r_i_glide_ligand_efficiency_ln>
-1.30864

> <r_i_glide_ligand_efficiency_sa>
-0.624632

> <r_i_glide_lipo>
-2.74017

> <r_i_glide_metal>
0

> <r_i_glide_rewards>
-0.917416

> <s_i_glide_gridfile>
wee1_glide-grid

> <s_m_Source_File>
wee1_decoys_glide_SP.sdf

> <s_m_Source_Path>
/Users/zhangxujun/Desktop

> <s_m_entry_id>
2631

> <s_m_entry_name>
wee1_decoys_glide_SP.2356

> <s_m_subgroup_title>
wee1_decoys_glide_SP

> <s_m_subgroupid>
wee1_decoys_glide_SP


$$$$
