@<TRIPOS>MOLECULE
ZINC61360905_1915
39   42    1
SMALL
USER_CHARGES


@<TRIPOS>ATOM
      1 C1          2.4184   53.3678   24.3493 C.2       1 UNK         0.0000 
      2 C2          1.9177   53.0703   23.0917 C.2       1 UNK         0.0000 
      3 S3          3.1043   53.2964   21.8528 S.3       1 UNK         0.0000 
      4 C4          4.2681   53.8245   23.0224 C.2       1 UNK         0.0000 
      5 C5          3.7564   53.7966   24.3268 C.2       1 UNK         0.0000 
      6 C6          4.6289   54.1063   25.5437 C.3       1 UNK         0.0000 
      7 H7          4.9963   53.1525   25.9197 H         1 UNK         0.0000 
      8 C8          5.8386   54.9705   25.1091 C.3       1 UNK         0.0000 
      9 C9          6.5589   54.3730   23.8858 C.3       1 UNK         0.0000 
     10 C10         5.6547   54.3104   22.6360 C.3       1 UNK         0.0000 
     11 N11         3.9047   54.8204   26.5932 N.pl3     1 UNK         0.0000 
     12 C12         3.5587   54.1352   27.7734 C.ar      1 UNK         0.0000 
     13 C13         2.2278   54.2333   28.1993 C.ar      1 UNK         0.0000 
     14 C14         1.8011   53.5526   29.3339 C.ar      1 UNK         0.0000 
     15 C15         2.7129   52.8013   30.0859 C.ar      1 UNK         0.0000 
     16 C16         4.0349   52.7018   29.6813 C.ar      1 UNK         0.0000 
     17 C17         4.4779   53.3872   28.5489 C.ar      1 UNK         0.0000 
     18 N18         5.8445   53.3360   28.2577 N.pl3     1 UNK         0.0000 
     19 O19         2.3463   52.0967   31.2122 O.3       1 UNK         0.0000 
     20 C20         1.0507   52.4288   31.7207 C.3       1 UNK         0.0000 
     21 C21         0.0382   52.6348   30.5757 C.3       1 UNK         0.0000 
     22 O22         0.4800   53.6828   29.7065 O.3       1 UNK         0.0000 
     23 H23         1.8449   53.2605   25.2582 H         1 UNK         0.0000 
     24 H24         0.9304   52.7159   22.8368 H         1 UNK         0.0000 
     25 H25         6.5444   55.0614   25.9352 H         1 UNK         0.0000 
     26 H26         5.5175   55.9885   24.8811 H         1 UNK         0.0000 
     27 H27         6.9142   53.3708   24.1304 H         1 UNK         0.0000 
     28 H28         7.4516   54.9559   23.6562 H         1 UNK         0.0000 
     29 H29         6.0957   53.6795   21.8718 H         1 UNK         0.0000 
     30 H30         5.5799   55.2965   22.1873 H         1 UNK         0.0000 
     31 H31         3.2039   55.4521   26.2358 H         1 UNK         0.0000 
     32 H32         1.5053   54.8221   27.6569 H         1 UNK         0.0000 
     33 H33         4.7046   52.0967   30.2684 H         1 UNK         0.0000 
     34 H34         6.4805   52.8996   28.9078 H         1 UNK         0.0000 
     35 H35         6.1910   53.9282   27.5168 H         1 UNK         0.0000 
     36 H36         0.7100   51.6440   32.3950 H         1 UNK         0.0000 
     37 H37         1.1014   53.3430   32.3095 H         1 UNK         0.0000 
     38 H38        -0.0802   51.7043   30.0154 H         1 UNK         0.0000 
     39 H39        -0.9211   52.8958   31.0017 H         1 UNK         0.0000 
@<TRIPOS>BOND
     1    1    5 1    
     2    1    2 2    
     3    1   23 1    
     4    2    3 1    
     5    2   24 1    
     6    3    4 1    
     7    4   10 1    
     8    4    5 2    
     9    5    6 1    
    10    6    7 1    
    11    6    8 1    
    12    6   11 1    
    13    8    9 1    
    14    8   25 1    
    15    8   26 1    
    16    9   10 1    
    17    9   27 1    
    18    9   28 1    
    19   10   29 1    
    20   10   30 1    
    21   11   12 1    
    22   11   31 1    
    23   12   17 ar   
    24   12   13 ar   
    25   13   14 ar   
    26   13   32 1    
    27   14   22 1    
    28   14   15 ar   
    29   15   16 ar   
    30   15   19 1    
    31   16   17 ar   
    32   16   33 1    
    33   17   18 1    
    34   18   34 1    
    35   18   35 1    
    36   19   20 1    
    37   20   21 1    
    38   20   36 1    
    39   20   37 1    
    40   21   22 1    
    41   21   38 1    
    42   21   39 1    
@<TRIPOS>SUBSTRUCTURE
     1 UNK         1 GROUP             0       ****    0 ROOT    
