ZINC39684221_2932
                    3D
 Schrodinger Suite 2024-2.
 73 78  0  0  1  0            999 V2000
    1.3612   45.4287   15.9891 C   0  0  0  0  0  0
    0.7063   45.8878   17.2795 C   0  0  0  0  0  0
   -0.2756   45.0846   17.8718 C   0  0  0  0  0  0
   -0.9166   45.4378   19.0552 C   0  0  0  0  0  0
   -0.6018   46.6216   19.7168 C   0  0  0  0  0  0
    0.3809   47.4665   19.1783 C   0  0  0  0  0  0
    0.9531   48.7232   19.5973 C   0  0  0  0  0  0
    1.8964   49.0337   18.6349 C   0  0  0  0  0  0
    1.9044   48.0798   17.6580 N   0  0  0  0  0  0
    1.0104   47.0790   17.9558 C   0  0  0  0  0  0
    0.6041   49.4896   20.8545 C   0  0  0  0  0  0
    1.0926   50.9565   20.8631 C   0  0  0  0  0  0
    0.8858   51.5804   22.1654 N   0  0  0  0  0  0
   -0.2940   52.0294   22.6335 C   0  0  0  0  0  0
   -1.3027   52.0968   21.9302 O   0  0  0  0  0  0
   -0.4223   52.3537   24.1432 C   0  0  2  0  0  0
   -1.1238   53.1854   24.2259 H   0  0  0  0  0  0
    0.9117   52.8550   24.7314 C   0  0  0  0  0  0
    0.8275   52.4971   26.1528 N   0  0  0  0  0  0
   -0.3499   51.6622   26.4230 C   0  0  0  0  0  0
   -0.8193   51.1495   25.0376 C   0  0  0  0  0  0
   -0.0933   49.8181   24.6452 C   0  0  0  0  0  0
   -0.3917   48.6630   25.6157 C   0  0  0  0  0  0
   -1.9207   48.4562   25.6817 N   0  3  0  0  0  0
   -2.7265   49.7430   25.9802 C   0  0  0  0  0  0
   -2.3285   50.8198   24.9531 C   0  0  0  0  0  0
    1.6660   52.8933   27.1530 C   0  0  0  0  0  0
    1.4309   52.6435   28.3379 O   0  0  0  0  0  0
    2.9145   53.5601   26.8205 C   0  0  0  0  0  0
    3.9202   54.0607   27.6393 C   0  0  0  0  0  0
    4.9514   54.4968   26.8026 C   0  0  0  0  0  0
    4.5434   54.2718   25.4924 C   0  0  0  0  0  0
    3.3139   53.6972   25.5301 O   0  0  0  0  0  0
    5.1365   54.4940   24.1344 C   0  0  0  0  0  0
    4.4229   54.0965   22.9917 C   0  0  0  0  0  0
    4.9485   54.2925   21.7153 C   0  0  0  0  0  0
    6.1937   54.8968   21.5618 C   0  0  0  0  0  0
    6.9142   55.2953   22.6850 C   0  0  0  0  0  0
    6.3925   55.0949   23.9672 C   0  0  0  0  0  0
    7.1043   55.5067   25.0399 F   0  0  0  0  0  0
    2.4372   45.3194   16.1310 H   0  0  0  0  0  0
    0.9683   44.4733   15.6376 H   0  0  0  0  0  0
    1.1980   46.1670   15.2041 H   0  0  0  0  0  0
   -0.5567   44.1564   17.3971 H   0  0  0  0  0  0
   -1.6752   44.7850   19.4644 H   0  0  0  0  0  0
   -1.1039   46.8849   20.6356 H   0  0  0  0  0  0
    2.5854   49.8650   18.5469 H   0  0  0  0  0  0
    2.5577   48.1472   16.8821 H   0  0  0  0  0  0
   -0.4787   49.4847   20.9909 H   0  0  0  0  0  0
    1.0224   48.9608   21.7128 H   0  0  0  0  0  0
    2.1635   50.9908   20.6572 H   0  0  0  0  0  0
    0.6158   51.5309   20.0649 H   0  0  0  0  0  0
    1.6786   51.5733   22.7860 H   0  0  0  0  0  0
    1.7560   52.2821   24.3490 H   0  0  0  0  0  0
    1.0340   53.9272   24.5644 H   0  0  0  0  0  0
   -1.1201   52.3262   26.8185 H   0  0  0  0  0  0
   -0.2140   50.8794   27.1691 H   0  0  0  0  0  0
   -0.3422   49.5058   23.6312 H   0  0  0  0  0  0
    0.9868   49.9686   24.6426 H   0  0  0  0  0  0
    0.0322   47.7128   25.2813 H   0  0  0  0  0  0
   -0.0556   48.8417   26.6365 H   0  0  0  0  0  0
   -2.2527   48.0300   24.8300 H   0  0  0  0  0  0
   -3.7810   49.4676   25.9171 H   0  0  0  0  0  0
   -2.4971   50.0241   27.0108 H   0  0  0  0  0  0
   -2.9040   51.7184   25.1795 H   0  0  0  0  0  0
   -2.6218   50.5405   23.9383 H   0  0  0  0  0  0
    3.9164   54.0816   28.7193 H   0  0  0  0  0  0
    5.8887   54.9282   27.1240 H   0  0  0  0  0  0
    3.4521   53.6330   23.0807 H   0  0  0  0  0  0
    4.3853   53.9832   20.8461 H   0  0  0  0  0  0
    6.6001   55.0502   20.5731 H   0  0  0  0  0  0
    7.8873   55.7550   22.5615 H   0  0  0  0  0  0
   -2.0907   47.8117   26.4460 H   0  0  0  0  0  0
  1 41  1  0  0  0
  1 42  1  0  0  0
  1 43  1  0  0  0
  1  2  1  0  0  0
  2 10  2  0  0  0
  2  3  1  0  0  0
  3 44  1  0  0  0
  3  4  2  0  0  0
  4 45  1  0  0  0
  4  5  1  0  0  0
  5 46  1  0  0  0
  5  6  2  0  0  0
  6 10  1  0  0  0
  6  7  1  0  0  0
  7 11  1  0  0  0
  7  8  2  0  0  0
  8  9  1  0  0  0
  8 47  1  0  0  0
  9 48  1  0  0  0
  9 10  1  0  0  0
 11 12  1  0  0  0
 11 49  1  0  0  0
 11 50  1  0  0  0
 12 13  1  0  0  0
 12 51  1  0  0  0
 12 52  1  0  0  0
 13 14  1  0  0  0
 13 53  1  0  0  0
 14 15  2  0  0  0
 14 16  1  0  0  0
 16 17  1  0  0  0
 16 21  1  0  0  0
 16 18  1  0  0  0
 18 19  1  0  0  0
 18 54  1  0  0  0
 18 55  1  0  0  0
 19 20  1  0  0  0
 19 27  1  0  0  0
 20 21  1  0  0  0
 20 56  1  0  0  0
 20 57  1  0  0  0
 21 26  1  0  0  0
 21 22  1  0  0  0
 22 23  1  0  0  0
 22 58  1  0  0  0
 22 59  1  0  0  0
 23 24  1  0  0  0
 23 60  1  0  0  0
 23 61  1  0  0  0
 24 25  1  0  0  0
 24 62  1  0  0  0
 24 73  1  0  0  0
 25 26  1  0  0  0
 25 63  1  0  0  0
 25 64  1  0  0  0
 26 65  1  0  0  0
 26 66  1  0  0  0
 27 28  2  0  0  0
 27 29  1  0  0  0
 29 33  1  0  0  0
 29 30  2  0  0  0
 30 31  1  0  0  0
 30 67  1  0  0  0
 31 32  2  0  0  0
 31 68  1  0  0  0
 32 33  1  0  0  0
 32 34  1  0  0  0
 34 39  2  0  0  0
 34 35  1  0  0  0
 35 36  2  0  0  0
 35 69  1  0  0  0
 36 37  1  0  0  0
 36 70  1  0  0  0
 37 38  2  0  0  0
 37 71  1  0  0  0
 38 39  1  0  0  0
 38 72  1  0  0  0
 39 40  1  0  0  0
M  CHG  1  24   1
M  END
> <i_i_glide_confnum>
278

> <i_i_glide_lignum>
2933

> <i_i_glide_posenum>
306

> <i_i_glide_rotatable_bonds>
8

> <i_m_Source_File_Index>
1465

> <b_m_subgroup_collapsed>
0

> <r_i_docking_score>
-6.35066

> <r_i_glide_ecoul>
-11.1225

> <r_i_glide_eff_state_penalty>
0

> <r_i_glide_einternal>
4.6497

> <r_i_glide_emodel>
-74.3861

> <r_i_glide_energy>
-51.6555

> <r_i_glide_erotb>
0.587767

> <r_i_glide_esite>
-0.2

> <r_i_glide_evdw>
-40.533

> <r_i_glide_gscore>
-6.35066

> <r_i_glide_hbond>
-0.175238

> <r_i_glide_ligand_efficiency>
-0.162838

> <r_i_glide_ligand_efficiency_ln>
-1.36176

> <r_i_glide_ligand_efficiency_sa>
-0.552217

> <r_i_glide_lipo>
-2.36187

> <r_i_glide_metal>
0

> <r_i_glide_rewards>
-0.506301

> <s_i_glide_gridfile>
wee1_glide-grid

> <s_m_Source_File>
wee1_decoys_glide_SP.sdf

> <s_m_Source_Path>
/Users/zhangxujun/Desktop

> <s_m_entry_id>
1740

> <s_m_entry_name>
wee1_decoys_glide_SP.1465

> <s_m_subgroup_title>
wee1_decoys_glide_SP

> <s_m_subgroupid>
wee1_decoys_glide_SP


$$$$
