@<TRIPOS>MOLECULE
ZINC06161896_985
53   57    1
SMALL
USER_CHARGES


@<TRIPOS>ATOM
      1 C1         -2.1151   47.3567   21.9338 C.ar      1 UNK         0.0000 
      2 C2         -1.5634   48.6203   22.1516 C.ar      1 UNK         0.0000 
      3 C3         -1.3668   49.0847   23.4557 C.ar      1 UNK         0.0000 
      4 C4         -1.6907   48.2591   24.5384 C.ar      1 UNK         0.0000 
      5 C5         -2.2842   47.0200   24.3220 C.ar      1 UNK         0.0000 
      6 C6         -2.4966   46.5640   23.0190 C.ar      1 UNK         0.0000 
      7 Cl7        -2.8061   46.0967   25.6814 Cl        1 UNK         0.0000 
      8 S8         -0.7920   50.7659   23.6898 S.o2      1 UNK         0.0000 
      9 O9         -1.8841   51.6272   23.2216 O.2       1 UNK         0.0000 
     10 O10         0.5330   50.8422   23.0640 O.2       1 UNK         0.0000 
     11 N11        -0.6208   51.0270   25.4369 N.pl3     1 UNK         0.0000 
     12 C12        -1.7935   50.9987   26.3423 C.3       1 UNK         0.0000 
     13 C13        -1.8147   52.2288   27.2582 C.3       1 UNK         0.0000 
     14 C14        -0.4513   52.4946   27.9401 C.3       1 UNK         0.0000 
     15 C15         0.7031   52.4982   26.9028 C.3       1 UNK         0.0000 
     16 H16         0.4952   53.2965   26.1984 H         1 UNK         0.0000 
     17 C17         0.7044   51.2057   26.0647 C.3       1 UNK         0.0000 
     18 C18         2.0816   52.8287   27.4678 C.ar      1 UNK         0.0000 
     19 N19         2.8905   53.5302   26.6289 N.ar      1 UNK         0.0000 
     20 C20         4.1348   53.7069   27.0840 C.ar      1 UNK         0.0000 
     21 C21         4.5956   53.2766   28.3443 C.ar      1 UNK         0.0000 
     22 C22         3.6561   52.5900   29.1393 C.ar      1 UNK         0.0000 
     23 N23         2.3945   52.3516   28.7008 N.ar      1 UNK         0.0000 
     24 O24         3.9300   52.1337   30.2931 O.co2     1 UNK         0.0000 
     25 N25         5.9043   53.6383   28.4817 N.2       1 UNK         0.0000 
     26 N26         6.2834   54.2796   27.3185 N.2       1 UNK         0.0000 
     27 N27         5.2304   54.3117   26.4731 N.pl3     1 UNK         0.0000 
     28 C28         5.3763   54.9956   25.1797 C.3       1 UNK         0.0000 
     29 C29         4.7204   54.3304   23.9671 C.ar      1 UNK         0.0000 
     30 C30         3.3329   54.3924   23.7869 C.ar      1 UNK         0.0000 
     31 C31         2.7357   53.7725   22.6939 C.ar      1 UNK         0.0000 
     32 C32         3.5276   53.1168   21.7578 C.ar      1 UNK         0.0000 
     33 C33         4.9109   53.0855   21.9019 C.ar      1 UNK         0.0000 
     34 C34         5.5107   53.6960   23.0033 C.ar      1 UNK         0.0000 
     35 F35         2.9490   52.5088   20.6999 F         1 UNK         0.0000 
     36 H36        -2.2780   47.0057   20.9233 H         1 UNK         0.0000 
     37 H37        -1.3085   49.2498   21.3088 H         1 UNK         0.0000 
     38 H38        -1.5245   48.5605   25.5595 H         1 UNK         0.0000 
     39 H39        -2.9676   45.6094   22.8453 H         1 UNK         0.0000 
     40 H40        -1.7338   50.0995   26.9533 H         1 UNK         0.0000 
     41 H41        -2.7058   50.9237   25.7497 H         1 UNK         0.0000 
     42 H42        -2.5930   52.0940   28.0097 H         1 UNK         0.0000 
     43 H43        -2.1087   53.1008   26.6701 H         1 UNK         0.0000 
     44 H44        -0.2798   51.7220   28.6925 H         1 UNK         0.0000 
     45 H45        -0.4951   53.4581   28.4509 H         1 UNK         0.0000 
     46 H46         1.4574   51.2777   25.2801 H         1 UNK         0.0000 
     47 H47         0.9238   50.3260   26.6710 H         1 UNK         0.0000 
     48 H48         6.4439   55.1051   24.9769 H         1 UNK         0.0000 
     49 H49         5.0077   56.0126   25.2944 H         1 UNK         0.0000 
     50 H50         2.7090   54.9096   24.5019 H         1 UNK         0.0000 
     51 H51         1.6634   53.8008   22.5667 H         1 UNK         0.0000 
     52 H52         5.5043   52.5763   21.1570 H         1 UNK         0.0000 
     53 H53         6.5844   53.6556   23.1145 H         1 UNK         0.0000 
@<TRIPOS>BOND
     1    1    6 ar   
     2    1    2 ar   
     3    1   36 1    
     4    2    3 ar   
     5    2   37 1    
     6    3    4 ar   
     7    3    8 1    
     8    4    5 ar   
     9    4   38 1    
    10    5    6 ar   
    11    5    7 1    
    12    6   39 1    
    13    8    9 2    
    14    8   10 2    
    15    8   11 1    
    16   11   17 1    
    17   11   12 1    
    18   12   13 1    
    19   12   40 1    
    20   12   41 1    
    21   13   14 1    
    22   13   42 1    
    23   13   43 1    
    24   14   15 1    
    25   14   44 1    
    26   14   45 1    
    27   15   16 1    
    28   15   17 1    
    29   15   18 1    
    30   17   46 1    
    31   17   47 1    
    32   18   23 ar   
    33   18   19 ar   
    34   19   20 ar   
    35   20   27 ar   
    36   20   21 ar   
    37   21   22 ar   
    38   21   25 ar   
    39   22   23 ar   
    40   22   24 1    
    41   25   26 ar   
    42   26   27 ar   
    43   27   28 1    
    44   28   29 1    
    45   28   48 1    
    46   28   49 1    
    47   29   34 ar   
    48   29   30 ar   
    49   30   31 ar   
    50   30   50 1    
    51   31   32 ar   
    52   31   51 1    
    53   32   33 ar   
    54   32   35 1    
    55   33   34 ar   
    56   33   52 1    
    57   34   53 1    
@<TRIPOS>SUBSTRUCTURE
     1 UNK         1 GROUP             0       ****    0 ROOT    
