@<TRIPOS>MOLECULE
ZINC60107790_1306
57   59    1
SMALL
USER_CHARGES


@<TRIPOS>ATOM
      1 C1          1.1073   56.3900   29.5906 C.3       1 UNK         0.0000 
      2 C2          1.2927   54.9174   30.0121 C.3       1 UNK         0.0000 
      3 C3          0.0105   54.1543   30.3750 C.3       1 UNK         0.0000 
      4 N4          2.1695   54.0855   29.0426 N.4       1 UNK         0.0000 
      5 C5          1.5115   53.8946   27.6666 C.3       1 UNK         0.0000 
      6 C6          2.4463   53.0854   26.7573 C.3       1 UNK         0.0000 
      7 N7          3.7825   53.6965   26.5926 N.pl3     1 UNK         0.0000 
      8 C8          4.4233   53.8409   27.9155 C.3       1 UNK         0.0000 
      9 C9          3.5909   54.6704   28.9030 C.3       1 UNK         0.0000 
     10 C10         4.3942   53.9747   25.3610 C.ar      1 UNK         0.0000 
     11 C11         3.6828   53.8695   24.1537 C.ar      1 UNK         0.0000 
     12 C12         4.2961   54.1018   22.9279 C.ar      1 UNK         0.0000 
     13 C13         5.6390   54.4969   22.8689 C.ar      1 UNK         0.0000 
     14 C14         6.3553   54.6052   24.0644 C.ar      1 UNK         0.0000 
     15 C15         5.7426   54.3514   25.2846 C.ar      1 UNK         0.0000 
     16 C16         6.3046   54.9069   21.5734 C.2       1 UNK         0.0000 
     17 O17         7.4753   55.2924   21.5721 O.2       1 UNK         0.0000 
     18 N18         5.5576   54.8462   20.4541 N.am      1 UNK         0.0000 
     19 C19         5.9929   55.1511   19.0857 C.3       1 UNK         0.0000 
     20 C20         6.5169   56.5872   18.8455 C.2       1 UNK         0.0000 
     21 O21         6.7040   57.3883   19.7650 O.2       1 UNK         0.0000 
     22 N22         6.7579   56.8633   17.5473 N.am      1 UNK         0.0000 
     23 C23         7.3043   58.0338   16.9942 C.ar      1 UNK         0.0000 
     24 C24         8.2527   58.8259   17.6623 C.ar      1 UNK         0.0000 
     25 C25         8.7880   59.9520   17.0378 C.ar      1 UNK         0.0000 
     26 C26         8.3776   60.3035   15.7526 C.ar      1 UNK         0.0000 
     27 C27         7.4332   59.5256   15.0826 C.ar      1 UNK         0.0000 
     28 C28         6.8993   58.3926   15.7007 C.ar      1 UNK         0.0000 
     29 F29         5.9935   57.6350   15.0342 F         1 UNK         0.0000 
     30 F30         7.0507   59.8575   13.8283 F         1 UNK         0.0000 
     31 F31         8.9111   61.3944   15.1546 F         1 UNK         0.0000 
     32 H32         0.4403   56.8967   30.2893 H         1 UNK         0.0000 
     33 H33         2.0413   56.9482   29.6275 H         1 UNK         0.0000 
     34 H34         0.7045   56.4980   28.5873 H         1 UNK         0.0000 
     35 H35         1.9129   54.9304   30.8847 H         1 UNK         0.0000 
     36 H36        -0.4951   54.6538   31.2031 H         1 UNK         0.0000 
     37 H37        -0.6891   54.0968   29.5441 H         1 UNK         0.0000 
     38 H38         0.2258   53.1368   30.7044 H         1 UNK         0.0000 
     39 H39         0.5946   53.3296   27.8332 H         1 UNK         0.0000 
     40 H40         1.2847   54.8839   27.2815 H         1 UNK         0.0000 
     41 H41         1.9357   52.8758   25.8210 H         1 UNK         0.0000 
     42 H42         2.6227   52.0992   27.1922 H         1 UNK         0.0000 
     43 H43         4.5673   52.8230   28.2843 H         1 UNK         0.0000 
     44 H44         5.4171   54.2764   27.8795 H         1 UNK         0.0000 
     45 H45         4.0432   54.6257   29.8934 H         1 UNK         0.0000 
     46 H46         3.5041   55.6967   28.5640 H         1 UNK         0.0000 
     47 H47         2.6401   53.6060   24.1211 H         1 UNK         0.0000 
     48 H48         3.6876   54.0137   22.0402 H         1 UNK         0.0000 
     49 H49         7.3935   54.9104   24.0604 H         1 UNK         0.0000 
     50 H50         6.3681   54.4472   26.1556 H         1 UNK         0.0000 
     51 H51         4.6022   54.5423   20.5416 H         1 UNK         0.0000 
     52 H52         5.1424   54.9623   18.4285 H         1 UNK         0.0000 
     53 H53         6.7768   54.4395   18.8188 H         1 UNK         0.0000 
     54 H54         6.4548   56.1785   16.8707 H         1 UNK         0.0000 
     55 H55         8.5976   58.5629   18.6517 H         1 UNK         0.0000 
     56 H56         9.5286   60.5521   17.5442 H         1 UNK         0.0000 
     57 H57         2.2811   53.1570   29.4297 H         1 UNK         0.0000 
@<TRIPOS>BOND
     1    1    2 1    
     2    1   32 1    
     3    1   33 1    
     4    1   34 1    
     5    2    3 1    
     6    2    4 1    
     7    2   35 1    
     8    3   36 1    
     9    3   37 1    
    10    3   38 1    
    11    4    9 1    
    12    4    5 1    
    13    4   57 1    
    14    5    6 1    
    15    5   39 1    
    16    5   40 1    
    17    6    7 1    
    18    6   41 1    
    19    6   42 1    
    20    7    8 1    
    21    7   10 1    
    22    8    9 1    
    23    8   43 1    
    24    8   44 1    
    25    9   45 1    
    26    9   46 1    
    27   10   15 ar   
    28   10   11 ar   
    29   11   12 ar   
    30   11   47 1    
    31   12   13 ar   
    32   12   48 1    
    33   13   14 ar   
    34   13   16 1    
    35   14   15 ar   
    36   14   49 1    
    37   15   50 1    
    38   16   17 2    
    39   16   18 am   BACKBONE|DICT|INTERRES
    40   18   19 1    
    41   18   51 1    
    42   19   20 1    
    43   19   52 1    
    44   19   53 1    
    45   20   21 2    
    46   20   22 am   BACKBONE|DICT|INTERRES
    47   22   23 1    
    48   22   54 1    
    49   23   28 ar   
    50   23   24 ar   
    51   24   25 ar   
    52   24   55 1    
    53   25   26 ar   
    54   25   56 1    
    55   26   27 ar   
    56   26   31 1    
    57   27   28 ar   
    58   27   30 1    
    59   28   29 1    
@<TRIPOS>SUBSTRUCTURE
     1 UNK         1 GROUP             0       ****    0 ROOT    
