@<TRIPOS>MOLECULE
ZINC16572328_4481
55   57    1
SMALL
USER_CHARGES


@<TRIPOS>ATOM
      1 C1          6.0071   58.1488   17.2876 C.3       1 UNK         0.0000 
      2 C2          7.4203   58.1765   17.8861 C.3       1 UNK         0.0000 
      3 C3          8.2079   56.8490   17.7303 C.3       1 UNK         0.0000 
      4 H4          8.3329   56.7210   16.6554 H         1 UNK         0.0000 
      5 C5          9.6418   57.0009   18.2855 C.3       1 UNK         0.0000 
      6 C6          7.4450   55.5606   18.2184 C.3       1 UNK         0.0000 
      7 H7          6.5397   55.4710   17.6121 H         1 UNK         0.0000 
      8 C8          6.9775   55.6191   19.6951 C.2       1 UNK         0.0000 
      9 O9          7.5039   56.4082   20.4820 O.2       1 UNK         0.0000 
     10 N10         6.0057   54.7373   20.0204 N.am      1 UNK         0.0000 
     11 C11         5.4962   54.4971   21.2864 C.2       1 UNK         0.0000 
     12 N12         4.3767   53.8414   21.4557 N.2       1 UNK         0.0000 
     13 N13         4.0429   53.6975   22.7969 N.2       1 UNK         0.0000 
     14 C14         4.9435   54.2022   23.6145 C.2       1 UNK         0.0000 
     15 S15         6.3070   54.8957   22.7828 S.3       1 UNK         0.0000 
     16 C16         4.8102   54.2508   25.1037 C.ar      1 UNK         0.0000 
     17 C17         3.5478   54.0965   25.6888 C.ar      1 UNK         0.0000 
     18 C18         3.4025   54.1401   27.0715 C.ar      1 UNK         0.0000 
     19 C19         4.5187   54.3446   27.8746 C.ar      1 UNK         0.0000 
     20 C20         5.7847   54.4966   27.3112 C.ar      1 UNK         0.0000 
     21 C21         5.9289   54.4502   25.9254 C.ar      1 UNK         0.0000 
     22 Br22        4.3034   54.4272   29.7591 Br        1 UNK         0.0000 
     23 N23         8.2236   54.3335   18.0187 N.am      1 UNK         0.0000 
     24 C24         8.3450   53.6870   16.8509 C.2       1 UNK         0.0000 
     25 O25         7.8465   54.0984   15.8029 O.2       1 UNK         0.0000 
     26 N26         9.0666   52.5564   16.9884 N.am      1 UNK         0.0000 
     27 C27         9.3757   51.5906   16.0142 C.ar      1 UNK         0.0000 
     28 C28        10.4114   50.6997   16.3236 C.ar      1 UNK         0.0000 
     29 C29        10.8058   49.7237   15.4077 C.ar      1 UNK         0.0000 
     30 C30        10.1611   49.6242   14.1764 C.ar      1 UNK         0.0000 
     31 C31         9.1055   50.4842   13.8660 C.ar      1 UNK         0.0000 
     32 C32         8.7101   51.4594   14.7835 C.ar      1 UNK         0.0000 
     33 C33         8.3806   50.3448   12.5417 C.3       1 UNK         0.0000 
     34 H34         5.6012   59.1575   17.2127 H         1 UNK         0.0000 
     35 H35         6.0100   57.7190   16.2858 H         1 UNK         0.0000 
     36 H36         5.3228   57.5676   17.9058 H         1 UNK         0.0000 
     37 H37         7.3614   58.4723   18.9346 H         1 UNK         0.0000 
     38 H38         7.9773   58.9790   17.3992 H         1 UNK         0.0000 
     39 H39         9.6585   57.1707   19.3616 H         1 UNK         0.0000 
     40 H40        10.2479   56.1201   18.0831 H         1 UNK         0.0000 
     41 H41        10.1499   57.8456   17.8195 H         1 UNK         0.0000 
     42 H42         5.5842   54.2131   19.2685 H         1 UNK         0.0000 
     43 H43         2.6709   53.9428   25.0784 H         1 UNK         0.0000 
     44 H44         2.4255   54.0254   27.5189 H         1 UNK         0.0000 
     45 H45         6.6467   54.6574   27.9452 H         1 UNK         0.0000 
     46 H46         6.9141   54.5548   25.4967 H         1 UNK         0.0000 
     47 H47         8.7048   53.9869   18.8358 H         1 UNK         0.0000 
     48 H48         9.4863   52.3853   17.8892 H         1 UNK         0.0000 
     49 H49        10.9298   50.7717   17.2724 H         1 UNK         0.0000 
     50 H50        11.6154   49.0530   15.6520 H         1 UNK         0.0000 
     51 H51        10.4868   48.8835   13.4629 H         1 UNK         0.0000 
     52 H52         7.8863   52.1023   14.5212 H         1 UNK         0.0000 
     53 H53         8.2981   49.2968   12.2490 H         1 UNK         0.0000 
     54 H54         8.9096   50.8885   11.7549 H         1 UNK         0.0000 
     55 H55         7.3609   50.7325   12.6064 H         1 UNK         0.0000 
@<TRIPOS>BOND
     1    1    2 1    
     2    1   34 1    
     3    1   35 1    
     4    1   36 1    
     5    2    3 1    
     6    2   37 1    
     7    2   38 1    
     8    3    4 1    
     9    3    5 1    
    10    3    6 1    
    11    5   39 1    
    12    5   40 1    
    13    5   41 1    
    14    6    7 1    
    15    6    8 1    
    16    6   23 1    
    17    8    9 2    
    18    8   10 am   BACKBONE|DICT|INTERRES
    19   10   11 am   BACKBONE|DICT|INTERRES
    20   10   42 1    
    21   11   15 1    
    22   11   12 2    
    23   12   13 1    
    24   13   14 2    
    25   14   15 1    
    26   14   16 1    
    27   16   21 ar   
    28   16   17 ar   
    29   17   18 ar   
    30   17   43 1    
    31   18   19 ar   
    32   18   44 1    
    33   19   20 ar   
    34   19   22 1    
    35   20   21 ar   
    36   20   45 1    
    37   21   46 1    
    38   23   24 am   BACKBONE|DICT|INTERRES
    39   23   47 1    
    40   24   25 2    
    41   24   26 am   BACKBONE|DICT|INTERRES
    42   26   27 1    
    43   26   48 1    
    44   27   32 ar   
    45   27   28 ar   
    46   28   29 ar   
    47   28   49 1    
    48   29   30 ar   
    49   29   50 1    
    50   30   31 ar   
    51   30   51 1    
    52   31   32 ar   
    53   31   33 1    
    54   32   52 1    
    55   33   53 1    
    56   33   54 1    
    57   33   55 1    
@<TRIPOS>SUBSTRUCTURE
     1 UNK         1 GROUP             0       ****    0 ROOT    
