ZINC04891911_5829
                    3D
 Schrodinger Suite 2024-2.
 59 63  0  0  1  0            999 V2000
    5.6832   54.8960   24.0817 C   0  0  0  0  0  0
    4.5794   54.1635   24.5003 C   0  0  0  0  0  0
    4.5311   53.6970   25.8078 C   0  0  0  0  0  0
    5.5971   53.9359   26.6858 C   0  0  0  0  0  0
    6.6803   54.7092   26.2666 C   0  0  0  0  0  0
    6.7105   55.2007   24.9643 C   0  0  0  0  0  0
    5.5990   53.3684   28.1032 C   0  0  0  0  0  0
    4.2735   53.0612   28.6456 N   0  0  0  0  0  0
    3.4168   54.0028   29.0790 C   0  0  0  0  0  0
    3.7760   55.1616   29.2816 O   0  0  0  0  0  0
    2.1398   53.6034   29.2824 N   0  0  0  0  0  0
    1.1385   54.5134   29.8442 C   0  0  0  0  0  0
   -0.1756   53.7686   29.7175 C   0  0  0  0  0  0
    0.2465   52.3118   29.7558 C   0  0  0  0  0  0
    1.5190   52.3138   28.8975 C   0  0  1  0  0  0
    2.1543   51.4620   29.1491 H   0  0  0  0  0  0
    1.1383   52.2576   27.4030 C   0  0  0  0  0  0
    1.1994   53.2821   26.7200 O   0  0  0  0  0  0
    0.7042   51.0605   26.9683 N   0  0  0  0  0  0
    0.1045   50.7175   25.6736 C   0  0  0  0  0  0
    0.8669   51.2821   24.4257 C   0  0  0  0  0  0
    0.2062   50.8291   23.0978 C   0  0  2  0  0  0
   -1.2553   51.3452   23.0585 C   0  0  0  0  0  0
   -2.0442   50.7613   24.2591 C   0  0  2  0  0  0
   -1.3736   51.2109   25.5857 C   0  0  0  0  0  0
   -2.0325   49.2117   24.1795 C   0  0  0  0  0  0
   -0.5703   48.6998   24.2179 C   0  0  1  0  0  0
    0.2183   49.2815   23.0191 C   0  0  0  0  0  0
    0.0939   49.1623   25.5405 C   0  0  0  0  0  0
    5.7410   55.2454   23.0622 H   0  0  0  0  0  0
    3.7744   53.9455   23.8144 H   0  0  0  0  0  0
    3.6842   53.1040   26.1139 H   0  0  0  0  0  0
    7.5001   54.9049   26.9453 H   0  0  0  0  0  0
    7.5432   55.7913   24.6171 H   0  0  0  0  0  0
    6.1165   54.0604   28.7732 H   0  0  0  0  0  0
    6.1985   52.4620   28.0828 H   0  0  0  0  0  0
    3.9248   52.1310   28.4727 H   0  0  0  0  0  0
    1.1043   55.4738   29.3269 H   0  0  0  0  0  0
    1.3788   54.6998   30.8895 H   0  0  0  0  0  0
   -0.6073   54.0014   28.7453 H   0  0  0  0  0  0
   -0.8931   54.0290   30.4812 H   0  0  0  0  0  0
   -0.5364   51.6392   29.3977 H   0  0  0  0  0  0
    0.4818   52.0199   30.7809 H   0  0  0  0  0  0
    0.6896   50.3011   27.6349 H   0  0  0  0  0  0
    1.9045   50.9625   24.4497 H   0  0  0  0  0  0
    0.8945   52.3714   24.4408 H   0  0  0  0  0  0
    0.7636   51.2419   22.2553 H   0  0  0  0  0  0
   -1.2727   52.4360   23.0911 H   0  0  0  0  0  0
   -1.7318   51.0631   22.1179 H   0  0  0  0  0  0
   -3.0741   51.1196   24.2290 H   0  0  0  0  0  0
   -1.4124   52.2980   25.6700 H   0  0  0  0  0  0
   -1.9440   50.8266   26.4338 H   0  0  0  0  0  0
   -2.5287   48.8742   23.2679 H   0  0  0  0  0  0
   -2.6023   48.7870   25.0080 H   0  0  0  0  0  0
   -0.5589   47.6096   24.1691 H   0  0  0  0  0  0
    1.2435   48.9060   23.0246 H   0  0  0  0  0  0
   -0.2197   48.9488   22.0771 H   0  0  0  0  0  0
   -0.4358   48.7156   26.3841 H   0  0  0  0  0  0
    1.1101   48.7687   25.5959 H   0  0  0  0  0  0
  1  6  2  0  0  0
  1  2  1  0  0  0
  1 30  1  0  0  0
  2  3  2  0  0  0
  2 31  1  0  0  0
  3  4  1  0  0  0
  3 32  1  0  0  0
  4  5  2  0  0  0
  4  7  1  0  0  0
  5  6  1  0  0  0
  5 33  1  0  0  0
  6 34  1  0  0  0
  7  8  1  0  0  0
  7 35  1  0  0  0
  7 36  1  0  0  0
  8  9  1  0  0  0
  8 37  1  0  0  0
  9 10  2  0  0  0
  9 11  1  0  0  0
 11 15  1  0  0  0
 11 12  1  0  0  0
 12 13  1  0  0  0
 12 38  1  0  0  0
 12 39  1  0  0  0
 13 14  1  0  0  0
 13 40  1  0  0  0
 13 41  1  0  0  0
 14 15  1  0  0  0
 14 42  1  0  0  0
 14 43  1  0  0  0
 15 16  1  0  0  0
 15 17  1  0  0  0
 17 18  2  0  0  0
 17 19  1  0  0  0
 19 20  1  0  0  0
 19 44  1  0  0  0
 20 25  1  0  0  0
 20 29  1  0  0  0
 20 21  1  0  0  0
 21 22  1  0  0  0
 21 45  1  0  0  0
 21 46  1  0  0  0
 22 28  1  0  0  0
 22 23  1  0  0  0
 22 47  1  0  0  0
 23 24  1  0  0  0
 23 48  1  0  0  0
 23 49  1  0  0  0
 24 25  1  0  0  0
 24 26  1  0  0  0
 24 50  1  0  0  0
 25 51  1  0  0  0
 25 52  1  0  0  0
 26 27  1  0  0  0
 26 53  1  0  0  0
 26 54  1  0  0  0
 27 28  1  0  0  0
 27 29  1  0  0  0
 27 55  1  0  0  0
 28 56  1  0  0  0
 28 57  1  0  0  0
 29 58  1  0  0  0
 29 59  1  0  0  0
M  END
> <i_i_glide_confnum>
152

> <i_i_glide_lignum>
5830

> <i_i_glide_posenum>
319

> <i_i_glide_rotatable_bonds>
7

> <i_m_Source_File_Index>
2017

> <b_m_subgroup_collapsed>
0

> <r_i_docking_score>
-5.16694

> <r_i_glide_ecoul>
-1.24199

> <r_i_glide_eff_state_penalty>
0

> <r_i_glide_einternal>
7.38199

> <r_i_glide_emodel>
-46.1658

> <r_i_glide_energy>
-36.8376

> <r_i_glide_erotb>
0.80021

> <r_i_glide_esite>
-0.0256652

> <r_i_glide_evdw>
-35.5956

> <r_i_glide_gscore>
-5.16694

> <r_i_glide_hbond>
0

> <r_i_glide_ligand_efficiency>
-0.184533

> <r_i_glide_ligand_efficiency_ln>
-1.19268

> <r_i_glide_ligand_efficiency_sa>
-0.560352

> <r_i_glide_lipo>
-2.44552

> <r_i_glide_metal>
0

> <r_i_glide_rewards>
-1.52988

> <s_i_glide_gridfile>
wee1_glide-grid

> <s_m_Source_File>
wee1_decoys_glide_SP.sdf

> <s_m_Source_Path>
/Users/zhangxujun/Desktop

> <s_m_entry_id>
2292

> <s_m_entry_name>
wee1_decoys_glide_SP.2017

> <s_m_subgroup_title>
wee1_decoys_glide_SP

> <s_m_subgroupid>
wee1_decoys_glide_SP


$$$$
