ZINC09135450_2133
                    3D
 Schrodinger Suite 2024-2.
 63 65  0  0  1  0            999 V2000
   -7.9098   49.4965   32.0964 C   0  0  0  0  0  0
   -6.8088   49.6763   31.0667 C   0  0  0  0  0  0
   -5.5003   49.9229   31.4811 C   0  0  0  0  0  0
   -4.4938   50.0989   30.5369 C   0  0  0  0  0  0
   -4.7803   50.0647   29.1688 C   0  0  0  0  0  0
   -6.0972   49.7924   28.7433 C   0  0  0  0  0  0
   -7.0991   49.6092   29.7031 C   0  0  0  0  0  0
   -6.4665   49.6222   27.2747 C   0  0  0  0  0  0
   -3.6956   50.3003   28.3066 N   0  0  0  0  0  0
   -3.6100   51.3289   27.4190 C   0  0  0  0  0  0
   -4.5764   52.0266   27.0990 O   0  0  0  0  0  0
   -2.2383   51.6767   26.8941 C   0  0  0  0  0  0
   -2.0546   52.6669   26.1839 O   0  0  0  0  0  0
   -1.2124   50.8953   27.2875 N   0  0  0  0  0  0
    0.2025   51.0511   26.9415 C   0  0  0  0  0  0
    1.0434   52.1730   27.6554 C   0  0  1  0  0  0
    1.7439   51.6560   28.3173 H   0  0  0  0  0  0
    1.9283   52.9737   26.6852 C   0  0  0  0  0  0
    1.5042   53.2969   25.3956 C   0  0  0  0  0  0
    2.3977   53.8227   24.4698 C   0  0  0  0  0  0
    3.7442   54.0294   24.7995 C   0  0  0  0  0  0
    4.1583   53.8219   26.1380 C   0  0  0  0  0  0
    3.2384   53.2991   27.0535 C   0  0  0  0  0  0
    5.6094   54.0333   26.5702 C   0  0  0  0  0  0
    6.3561   54.9276   25.5779 C   0  0  0  0  0  0
    6.0858   54.4783   24.1372 C   0  0  0  0  0  0
    4.6488   54.4967   23.8329 N   0  0  0  0  0  0
    4.4989   54.2514   22.3952 C   0  0  0  0  0  0
   -0.1085   52.2328   29.9776 C   0  0  0  0  0  0
    0.8369   54.3767   29.0413 C   0  0  0  0  0  0
   -7.7025   50.0775   32.9966 H   0  0  0  0  0  0
   -8.0038   48.4478   32.3749 H   0  0  0  0  0  0
   -8.8693   49.8462   31.7113 H   0  0  0  0  0  0
   -5.2544   49.9762   32.5326 H   0  0  0  0  0  0
   -3.4841   50.2723   30.8850 H   0  0  0  0  0  0
   -8.1111   49.4053   29.3838 H   0  0  0  0  0  0
   -6.8061   50.5658   26.8504 H   0  0  0  0  0  0
   -5.6248   49.2528   26.6907 H   0  0  0  0  0  0
   -7.2603   48.8861   27.1570 H   0  0  0  0  0  0
   -2.8638   49.7624   28.5219 H   0  0  0  0  0  0
   -1.4033   50.0238   27.7889 H   0  0  0  0  0  0
    0.6699   50.0954   27.1751 H   0  0  0  0  0  0
    0.2803   51.0821   25.8550 H   0  0  0  0  0  0
    0.4857   53.1134   25.0818 H   0  0  0  0  0  0
    2.0262   54.0323   23.4789 H   0  0  0  0  0  0
    3.5864   53.0623   28.0489 H   0  0  0  0  0  0
    5.6599   54.4538   27.5744 H   0  0  0  0  0  0
    6.0963   53.0596   26.6168 H   0  0  0  0  0  0
    7.4250   54.8965   25.7773 H   0  0  0  0  0  0
    6.0552   55.9687   25.6912 H   0  0  0  0  0  0
    6.4029   53.4380   24.0373 H   0  0  0  0  0  0
    6.6900   55.0013   23.3928 H   0  0  0  0  0  0
    4.7373   53.2146   22.1498 H   0  0  0  0  0  0
    3.4888   54.4588   22.0427 H   0  0  0  0  0  0
    5.1552   54.8964   21.8096 H   0  0  0  0  0  0
    0.8318   52.0295   30.4966 H   0  0  0  0  0  0
   -0.7607   52.8509   30.5986 H   0  0  0  0  0  0
   -0.6140   51.2970   29.7345 H   0  0  0  0  0  0
    1.8374   54.1897   29.4357 H   0  0  0  0  0  0
    0.8746   54.9813   28.1332 H   0  0  0  0  0  0
    0.2095   54.8573   29.7936 H   0  0  0  0  0  0
    0.2088   53.0117   28.6724 N   0  3  0  0  0  0
   -0.6708   53.1945   28.2027 H   0  0  0  0  0  0
  1  2  1  0  0  0
  1 31  1  0  0  0
  1 32  1  0  0  0
  1 33  1  0  0  0
  2  7  2  0  0  0
  2  3  1  0  0  0
  3  4  2  0  0  0
  3 34  1  0  0  0
  4  5  1  0  0  0
  4 35  1  0  0  0
  5  6  2  0  0  0
  5  9  1  0  0  0
  6  7  1  0  0  0
  6  8  1  0  0  0
  7 36  1  0  0  0
  8 37  1  0  0  0
  8 38  1  0  0  0
  8 39  1  0  0  0
  9 10  1  0  0  0
  9 40  1  0  0  0
 10 11  2  0  0  0
 10 12  1  0  0  0
 12 13  2  0  0  0
 12 14  1  0  0  0
 14 15  1  0  0  0
 14 41  1  0  0  0
 15 16  1  0  0  0
 15 42  1  0  0  0
 15 43  1  0  0  0
 16 17  1  0  0  0
 16 18  1  0  0  0
 16 62  1  0  0  0
 18 23  2  0  0  0
 18 19  1  0  0  0
 19 20  2  0  0  0
 19 44  1  0  0  0
 20 21  1  0  0  0
 20 45  1  0  0  0
 21 27  1  0  0  0
 21 22  2  0  0  0
 22 23  1  0  0  0
 22 24  1  0  0  0
 23 46  1  0  0  0
 24 25  1  0  0  0
 24 47  1  0  0  0
 24 48  1  0  0  0
 25 26  1  0  0  0
 25 49  1  0  0  0
 25 50  1  0  0  0
 26 27  1  0  0  0
 26 51  1  0  0  0
 26 52  1  0  0  0
 27 28  1  0  0  0
 28 53  1  0  0  0
 28 54  1  0  0  0
 28 55  1  0  0  0
 29 56  1  0  0  0
 29 57  1  0  0  0
 29 58  1  0  0  0
 29 62  1  0  0  0
 30 59  1  0  0  0
 30 60  1  0  0  0
 30 61  1  0  0  0
 30 62  1  0  0  0
 62 63  1  0  0  0
M  CHG  1  62   1
M  END
> <i_i_glide_confnum>
197

> <i_i_glide_lignum>
2134

> <i_i_glide_posenum>
383

> <i_i_glide_rotatable_bonds>
8

> <i_m_Source_File_Index>
5846

> <b_m_subgroup_collapsed>
0

> <r_i_docking_score>
-5.8745

> <r_i_glide_ecoul>
-6.17669

> <r_i_glide_eff_state_penalty>
0

> <r_i_glide_einternal>
9.4176

> <r_i_glide_emodel>
-56.4618

> <r_i_glide_energy>
-41.0886

> <r_i_glide_erotb>
0.821828

> <r_i_glide_esite>
-0.287687

> <r_i_glide_evdw>
-34.9119

> <r_i_glide_gscore>
-5.8745

> <r_i_glide_hbond>
-0.304

> <r_i_glide_ligand_efficiency>
-0.195817

> <r_i_glide_ligand_efficiency_ln>
-1.33475

> <r_i_glide_ligand_efficiency_sa>
-0.608448

> <r_i_glide_lipo>
-2.60598

> <r_i_glide_metal>
0

> <r_i_glide_rewards>
-0.826562

> <s_i_glide_gridfile>
wee1_glide-grid

> <s_m_Source_File>
wee1_decoys_glide_SP.sdf

> <s_m_Source_Path>
/Users/zhangxujun/Desktop

> <s_m_entry_id>
6121

> <s_m_entry_name>
wee1_decoys_glide_SP.5846

> <s_m_subgroup_title>
wee1_decoys_glide_SP

> <s_m_subgroupid>
wee1_decoys_glide_SP


$$$$
