ZINC62826859_1818
                    3D
 Schrodinger Suite 2024-2.
 31 32  0  0  1  0            999 V2000
    5.1046   54.4957   26.6439 C   0  0  0  0  0  0
    4.6704   53.9784   27.8580 C   0  0  0  0  0  0
    3.3902   53.4172   27.9999 C   0  0  0  0  0  0
    2.5325   53.3776   26.8604 C   0  0  0  0  0  0
    2.9726   53.9519   25.6432 C   0  0  0  0  0  0
    4.2547   54.4886   25.5464 C   0  0  0  0  0  0
    1.8775   54.0967   24.0822 Br  0  0  0  0  0  0
    1.2269   52.8553   27.0047 N   0  0  0  0  0  0
    0.7038   51.8113   26.3300 C   0  0  0  0  0  0
    1.1042   51.3881   25.2443 O   0  0  0  0  0  0
   -0.4678   51.0979   27.0452 C   0  0  1  0  0  0
   -0.2587   50.9564   28.1086 H   0  0  0  0  0  0
   -1.8538   51.7221   26.7702 C   0  0  0  0  0  0
   -2.6944   50.6176   26.1403 C   0  0  0  0  0  0
   -1.6730   49.6969   25.4838 C   0  0  0  0  0  0
   -0.5802   49.6974   26.4814 N   0  3  0  0  0  0
    3.0023   52.8956   29.3626 C   0  0  0  0  0  0
    3.5030   53.4571   30.3653 O   0  0  0  0  0  0
    2.2045   51.9325   29.4320 O   0  5  0  0  0  0
    6.0942   54.9197   26.5614 H   0  0  0  0  0  0
    5.3490   54.0162   28.7000 H   0  0  0  0  0  0
    4.5880   54.9133   24.6107 H   0  0  0  0  0  0
    0.8085   53.0438   27.9038 H   0  0  0  0  0  0
   -1.7899   52.5620   26.0755 H   0  0  0  0  0  0
   -2.3212   52.0967   27.6811 H   0  0  0  0  0  0
   -3.4463   50.9923   25.4460 H   0  0  0  0  0  0
   -3.2182   50.0708   26.9285 H   0  0  0  0  0  0
   -1.2491   50.1012   24.5623 H   0  0  0  0  0  0
   -2.0043   48.6671   25.3415 H   0  0  0  0  0  0
   -0.8880   49.0559   27.2314 H   0  0  0  0  0  0
    0.2917   49.3300   26.1251 H   0  0  0  0  0  0
  1  6  2  0  0  0
  1  2  1  0  0  0
  1 20  1  0  0  0
  2  3  2  0  0  0
  2 21  1  0  0  0
  3  4  1  0  0  0
  3 17  1  0  0  0
  4  5  2  0  0  0
  4  8  1  0  0  0
  5  6  1  0  0  0
  5  7  1  0  0  0
  6 22  1  0  0  0
  8  9  1  0  0  0
  8 23  1  0  0  0
  9 10  2  0  0  0
  9 11  1  0  0  0
 11 12  1  0  0  0
 11 16  1  0  0  0
 11 13  1  0  0  0
 13 14  1  0  0  0
 13 24  1  0  0  0
 13 25  1  0  0  0
 14 15  1  0  0  0
 14 26  1  0  0  0
 14 27  1  0  0  0
 15 16  1  0  0  0
 15 28  1  0  0  0
 15 29  1  0  0  0
 16 30  1  0  0  0
 16 31  1  0  0  0
 17 18  2  0  0  0
 17 19  1  0  0  0
M  CHG  2  16   1  19  -1
M  END
> <i_i_glide_confnum>
13

> <i_i_glide_lignum>
1819

> <i_i_glide_posenum>
338

> <i_i_glide_rotatable_bonds>
4

> <i_m_Source_File_Index>
5866

> <b_m_subgroup_collapsed>
0

> <r_i_docking_score>
-5.86365

> <r_i_glide_ecoul>
-10.7441

> <r_i_glide_eff_state_penalty>
0

> <r_i_glide_einternal>
5.37074

> <r_i_glide_emodel>
-48.2035

> <r_i_glide_energy>
-33.2667

> <r_i_glide_erotb>
0.568112

> <r_i_glide_esite>
-0.1

> <r_i_glide_evdw>
-22.5226

> <r_i_glide_gscore>
-5.86365

> <r_i_glide_hbond>
-0.361412

> <r_i_glide_ligand_efficiency>
-0.325758

> <r_i_glide_ligand_efficiency_ln>
-1.50722

> <r_i_glide_ligand_efficiency_sa>
-0.853729

> <r_i_glide_lipo>
-1.68559

> <r_i_glide_metal>
0

> <r_i_glide_rewards>
-1.54702

> <s_i_glide_gridfile>
wee1_glide-grid

> <s_m_Source_File>
wee1_decoys_glide_SP.sdf

> <s_m_Source_Path>
/Users/zhangxujun/Desktop

> <s_m_entry_id>
6141

> <s_m_entry_name>
wee1_decoys_glide_SP.5866

> <s_m_subgroup_title>
wee1_decoys_glide_SP

> <s_m_subgroupid>
wee1_decoys_glide_SP


$$$$
