@<TRIPOS>MOLECULE
ZINC22744656_4410
65   68    1
SMALL
USER_CHARGES


@<TRIPOS>ATOM
      1 C1         -0.0890   53.4348   31.2773 C.3       1 UNK         0.0000 
      2 C2          1.0445   53.7254   30.3129 C.ar      1 UNK         0.0000 
      3 C3          1.4594   55.0391   30.0781 C.ar      1 UNK         0.0000 
      4 C4          2.5728   55.2808   29.2794 C.ar      1 UNK         0.0000 
      5 C5          3.2634   54.2118   28.7003 C.ar      1 UNK         0.0000 
      6 C6          2.8163   52.9025   28.9034 C.ar      1 UNK         0.0000 
      7 C7          1.7085   52.6601   29.7065 C.ar      1 UNK         0.0000 
      8 C8          4.5296   54.4570   27.9206 C.2       1 UNK         0.0000 
      9 O9          5.5005   54.8928   28.5384 O.2       1 UNK         0.0000 
     10 N10         4.5628   54.1499   26.5950 N.am      1 UNK         0.0000 
     11 C11         5.8578   54.2061   25.8937 C.3       1 UNK         0.0000 
     12 C12         5.7003   54.7169   24.4460 C.3       1 UNK         0.0000 
     13 N13         4.5714   54.1469   23.6978 N.pl3     1 UNK         0.0000 
     14 C14         3.3190   54.2191   24.4589 C.3       1 UNK         0.0000 
     15 C15         3.3942   53.6081   25.8740 C.3       1 UNK         0.0000 
     16 C16         4.6024   53.9138   22.3264 C.ar      1 UNK         0.0000 
     17 C17         3.8137   52.8928   21.7768 C.ar      1 UNK         0.0000 
     18 C18         3.8899   52.5799   20.4238 C.ar      1 UNK         0.0000 
     19 C19         4.7384   53.3116   19.5983 C.ar      1 UNK         0.0000 
     20 C20         5.5081   54.3537   20.1196 C.ar      1 UNK         0.0000 
     21 C21         5.4444   54.6433   21.4791 C.ar      1 UNK         0.0000 
     22 N22         4.8835   52.8974   18.2676 N.pl3     1 UNK         0.0000 
     23 C23         4.7734   53.5802   17.0886 C.2       1 UNK         0.0000 
     24 S24         4.2446   55.1781   16.9855 S.2       1 UNK         0.0000 
     25 N25         5.1446   52.7687   16.0464 N.am      1 UNK         0.0000 
     26 C26         5.5046   53.0294   14.7647 C.2       1 UNK         0.0000 
     27 O27         5.6293   54.1521   14.2696 O.2       1 UNK         0.0000 
     28 C28         5.8455   51.8103   13.9426 C.ar      1 UNK         0.0000 
     29 C29         6.9152   51.8619   13.0380 C.ar      1 UNK         0.0000 
     30 C30         7.2783   50.7403   12.2882 C.ar      1 UNK         0.0000 
     31 C31         6.5438   49.5628   12.4129 C.ar      1 UNK         0.0000 
     32 C32         5.4538   49.4989   13.2842 C.ar      1 UNK         0.0000 
     33 C33         5.1131   50.6176   14.0601 C.ar      1 UNK         0.0000 
     34 C34         4.6809   48.2006   13.4280 C.3       1 UNK         0.0000 
     35 C35         8.4587   50.7994   11.3315 C.3       1 UNK         0.0000 
     36 H36         0.2880   52.8015   32.0859 H         1 UNK         0.0000 
     37 H37        -0.4953   54.3415   31.7269 H         1 UNK         0.0000 
     38 H38        -0.8938   52.8889   30.7813 H         1 UNK         0.0000 
     39 H39         0.9517   55.8737   30.5450 H         1 UNK         0.0000 
     40 H40         2.9125   56.2969   29.1447 H         1 UNK         0.0000 
     41 H41         3.3424   52.0660   28.4630 H         1 UNK         0.0000 
     42 H42         1.3818   51.6451   29.8812 H         1 UNK         0.0000 
     43 H43         6.2398   53.1889   25.8372 H         1 UNK         0.0000 
     44 H44         6.5989   54.8291   26.3970 H         1 UNK         0.0000 
     45 H45         6.6320   54.5689   23.9006 H         1 UNK         0.0000 
     46 H46         5.5144   55.7903   24.4818 H         1 UNK         0.0000 
     47 H47         3.0919   55.2851   24.5436 H         1 UNK         0.0000 
     48 H48         2.4900   53.7833   23.9064 H         1 UNK         0.0000 
     49 H49         2.4438   53.8212   26.3650 H         1 UNK         0.0000 
     50 H50         3.5021   52.5267   25.7704 H         1 UNK         0.0000 
     51 H51         3.1650   52.3024   22.4054 H         1 UNK         0.0000 
     52 H52         3.3075   51.7642   20.0205 H         1 UNK         0.0000 
     53 H53         6.1827   54.9120   19.4866 H         1 UNK         0.0000 
     54 H54         6.0649   55.4341   21.8699 H         1 UNK         0.0000 
     55 H55         5.0909   51.9009   18.1812 H         1 UNK         0.0000 
     56 H56         5.1492   51.7853   16.2751 H         1 UNK         0.0000 
     57 H57         7.4887   52.7723   12.9294 H         1 UNK         0.0000 
     58 H58         6.8214   48.6940   11.8356 H         1 UNK         0.0000 
     59 H59         4.2781   50.5483   14.7457 H         1 UNK         0.0000 
     60 H60         4.2692   48.0936   14.4340 H         1 UNK         0.0000 
     61 H61         3.8649   48.1508   12.7077 H         1 UNK         0.0000 
     62 H62         5.3384   47.3434   13.2748 H         1 UNK         0.0000 
     63 H63         8.2073   50.3072   10.3912 H         1 UNK         0.0000 
     64 H64         9.3281   50.2877   11.7552 H         1 UNK         0.0000 
     65 H65         8.7293   51.8258   11.0855 H         1 UNK         0.0000 
@<TRIPOS>BOND
     1    1    2 1    
     2    1   36 1    
     3    1   37 1    
     4    1   38 1    
     5    2    7 ar   
     6    2    3 ar   
     7    3    4 ar   
     8    3   39 1    
     9    4    5 ar   
    10    4   40 1    
    11    5    6 ar   
    12    5    8 1    
    13    6    7 ar   
    14    6   41 1    
    15    7   42 1    
    16    8    9 2    
    17    8   10 am   BACKBONE|DICT|INTERRES
    18   10   15 1    
    19   10   11 1    
    20   11   12 1    
    21   11   43 1    
    22   11   44 1    
    23   12   13 1    
    24   12   45 1    
    25   12   46 1    
    26   13   14 1    
    27   13   16 1    
    28   14   15 1    
    29   14   47 1    
    30   14   48 1    
    31   15   49 1    
    32   15   50 1    
    33   16   21 ar   
    34   16   17 ar   
    35   17   18 ar   
    36   17   51 1    
    37   18   19 ar   
    38   18   52 1    
    39   19   20 ar   
    40   19   22 1    
    41   20   21 ar   
    42   20   53 1    
    43   21   54 1    
    44   22   23 1    
    45   22   55 1    
    46   23   24 2    
    47   23   25 am   BACKBONE|DICT|INTERRES
    48   25   26 am   BACKBONE|DICT|INTERRES
    49   25   56 1    
    50   26   27 2    
    51   26   28 1    
    52   28   33 ar   
    53   28   29 ar   
    54   29   30 ar   
    55   29   57 1    
    56   30   31 ar   
    57   30   35 1    
    58   31   32 ar   
    59   31   58 1    
    60   32   33 ar   
    61   32   34 1    
    62   33   59 1    
    63   34   60 1    
    64   34   61 1    
    65   34   62 1    
    66   35   63 1    
    67   35   64 1    
    68   35   65 1    
@<TRIPOS>SUBSTRUCTURE
     1 UNK         1 GROUP             0       ****    0 ROOT    
