@<TRIPOS>MOLECULE
ZINC24033350_2107
58   61    1
SMALL
USER_CHARGES


@<TRIPOS>ATOM
      1 C1          9.5615   50.6984   14.9405 C.3       1 UNK         0.0000 
      2 C2          8.8793   51.6759   15.9129 C.3       1 UNK         0.0000 
      3 C3          9.7626   52.9090   16.2132 C.3       1 UNK         0.0000 
      4 C4          9.0685   53.8742   17.1988 C.3       1 UNK         0.0000 
      5 N5          7.7242   54.2561   16.6910 N.pl3     1 UNK         0.0000 
      6 C6          6.8203   53.1135   16.3860 C.3       1 UNK         0.0000 
      7 C7          7.5028   52.1522   15.3908 C.3       1 UNK         0.0000 
      8 S8          6.9646   55.6808   17.4308 S.o2      1 UNK         0.0000 
      9 O9          5.7389   55.9758   16.6789 O.2       1 UNK         0.0000 
     10 O10         7.9969   56.7097   17.6090 O.2       1 UNK         0.0000 
     11 C11         6.4362   55.1802   19.0729 C.ar      1 UNK         0.0000 
     12 C12         7.1322   55.6087   20.2039 C.ar      1 UNK         0.0000 
     13 C13         6.6603   55.2849   21.4749 C.ar      1 UNK         0.0000 
     14 C14         5.5010   54.4966   21.6286 C.ar      1 UNK         0.0000 
     15 C15         4.8298   54.0584   20.4770 C.ar      1 UNK         0.0000 
     16 C16         5.2880   54.4025   19.2100 C.ar      1 UNK         0.0000 
     17 C17         4.9295   54.1515   22.9922 C.2       1 UNK         0.0000 
     18 O18         3.7950   53.6808   23.0799 O.2       1 UNK         0.0000 
     19 N19         5.7200   54.4265   24.0547 N.am      1 UNK         0.0000 
     20 C20         5.4389   54.3315   25.4327 C.ar      1 UNK         0.0000 
     21 C21         6.5268   54.4878   26.2916 C.ar      1 UNK         0.0000 
     22 C22         6.3658   54.3876   27.6722 C.ar      1 UNK         0.0000 
     23 C23         5.1105   54.1270   28.2132 C.ar      1 UNK         0.0000 
     24 C24         4.0009   53.9749   27.3699 C.ar      1 UNK         0.0000 
     25 C25         4.1692   54.0927   25.9861 C.ar      1 UNK         0.0000 
     26 N26         2.7135   53.6285   27.8087 N.am      1 UNK         0.0000 
     27 C27         2.2219   53.5272   29.0621 C.2       1 UNK         0.0000 
     28 O28         2.7793   53.9426   30.0808 O.2       1 UNK         0.0000 
     29 C29         0.9628   52.8201   29.1489 C.2       1 UNK         0.0000 
     30 C30         0.2711   52.4900   30.3157 C.2       1 UNK         0.0000 
     31 C31        -0.8619   51.7022   30.0791 C.2       1 UNK         0.0000 
     32 C32        -1.0952   51.4872   28.7310 C.2       1 UNK         0.0000 
     33 S33         0.1171   52.2115   27.7374 S.3       1 UNK         0.0000 
     34 H34         9.7404   51.1594   13.9682 H         1 UNK         0.0000 
     35 H35        10.5243   50.3639   15.3294 H         1 UNK         0.0000 
     36 H36         8.9522   49.8093   14.7786 H         1 UNK         0.0000 
     37 H37         8.7091   51.1573   16.8600 H         1 UNK         0.0000 
     38 H38        10.0038   53.4345   15.2864 H         1 UNK         0.0000 
     39 H39        10.7270   52.5921   16.6109 H         1 UNK         0.0000 
     40 H40         9.6792   54.7637   17.3615 H         1 UNK         0.0000 
     41 H41         8.9370   53.2962   18.1093 H         1 UNK         0.0000 
     42 H42         6.6636   52.5366   17.2994 H         1 UNK         0.0000 
     43 H43         5.8768   53.4791   15.9770 H         1 UNK         0.0000 
     44 H44         6.8564   51.2970   15.1925 H         1 UNK         0.0000 
     45 H45         7.6163   52.6396   14.4200 H         1 UNK         0.0000 
     46 H46         8.0253   56.2082   20.1002 H         1 UNK         0.0000 
     47 H47         7.2145   55.6587   22.3235 H         1 UNK         0.0000 
     48 H48         3.9280   53.4647   20.5516 H         1 UNK         0.0000 
     49 H49         4.7402   54.0757   18.3379 H         1 UNK         0.0000 
     50 H50         6.6520   54.7391   23.8366 H         1 UNK         0.0000 
     51 H51         7.5076   54.6646   25.8862 H         1 UNK         0.0000 
     52 H52         7.2173   54.4962   28.3281 H         1 UNK         0.0000 
     53 H53         5.0339   54.0255   29.2830 H         1 UNK         0.0000 
     54 H54         3.3027   53.9726   25.3555 H         1 UNK         0.0000 
     55 H55         2.0987   53.3044   27.0787 H         1 UNK         0.0000 
     56 H56         0.6002   52.7562   31.3107 H         1 UNK         0.0000 
     57 H57        -1.4821   51.2968   30.8687 H         1 UNK         0.0000 
     58 H58        -1.8846   50.8939   28.2905 H         1 UNK         0.0000 
@<TRIPOS>BOND
     1    1    2 1    
     2    1   34 1    
     3    1   35 1    
     4    1   36 1    
     5    2    7 1    
     6    2    3 1    
     7    2   37 1    
     8    3    4 1    
     9    3   38 1    
    10    3   39 1    
    11    4    5 1    
    12    4   40 1    
    13    4   41 1    
    14    5    6 1    
    15    5    8 1    
    16    6    7 1    
    17    6   42 1    
    18    6   43 1    
    19    7   44 1    
    20    7   45 1    
    21    8    9 2    
    22    8   10 2    
    23    8   11 1    
    24   11   16 ar   
    25   11   12 ar   
    26   12   13 ar   
    27   12   46 1    
    28   13   14 ar   
    29   13   47 1    
    30   14   15 ar   
    31   14   17 1    
    32   15   16 ar   
    33   15   48 1    
    34   16   49 1    
    35   17   18 2    
    36   17   19 am   BACKBONE|DICT|INTERRES
    37   19   20 1    
    38   19   50 1    
    39   20   25 ar   
    40   20   21 ar   
    41   21   22 ar   
    42   21   51 1    
    43   22   23 ar   
    44   22   52 1    
    45   23   24 ar   
    46   23   53 1    
    47   24   25 ar   
    48   24   26 1    
    49   25   54 1    
    50   26   27 am   BACKBONE|DICT|INTERRES
    51   26   55 1    
    52   27   28 2    
    53   27   29 1    
    54   29   33 1    
    55   29   30 2    
    56   30   31 1    
    57   30   56 1    
    58   31   32 2    
    59   31   57 1    
    60   32   33 1    
    61   32   58 1    
@<TRIPOS>SUBSTRUCTURE
     1 UNK         1 GROUP             0       ****    0 ROOT    
