@<TRIPOS>MOLECULE
ZINC03451754_2235
54   56    1
SMALL
USER_CHARGES


@<TRIPOS>ATOM
      1 C1          1.5039   48.3961   17.1781 C.3       1 UNK         0.0000 
      2 C2          1.4901   48.9819   18.5778 C.ar      1 UNK         0.0000 
      3 C3          0.6542   48.4437   19.5539 C.ar      1 UNK         0.0000 
      4 C4          0.6474   48.9841   20.8364 C.ar      1 UNK         0.0000 
      5 C5          1.4830   50.0680   21.1621 C.ar      1 UNK         0.0000 
      6 C6          2.3072   50.6055   20.1644 C.ar      1 UNK         0.0000 
      7 C7          2.3043   50.0713   18.8817 C.ar      1 UNK         0.0000 
      8 C8          1.5184   50.6633   22.5545 C.2       1 UNK         0.0000 
      9 O9          2.3032   51.5797   22.8242 O.2       1 UNK         0.0000 
     10 N10         0.6391   50.1449   23.4377 N.am      1 UNK         0.0000 
     11 N11         0.7043   50.5794   24.7542 N.am      1 UNK         0.0000 
     12 C12        -0.3892   51.1667   25.2770 C.2       1 UNK         0.0000 
     13 O13        -1.4213   51.4242   24.6484 O.2       1 UNK         0.0000 
     14 C14        -0.2990   51.4715   26.7475 C.ar      1 UNK         0.0000 
     15 C15        -1.4398   51.3100   27.5406 C.ar      1 UNK         0.0000 
     16 C16        -1.3857   51.5468   28.9090 C.ar      1 UNK         0.0000 
     17 C17        -0.2053   51.9784   29.5007 C.ar      1 UNK         0.0000 
     18 C18         0.9434   52.1530   28.7233 C.ar      1 UNK         0.0000 
     19 C19         0.9001   51.8936   27.3508 C.ar      1 UNK         0.0000 
     20 S20         2.4525   52.7005   29.5128 S.o2      1 UNK         0.0000 
     21 O21         2.0796   53.0484   30.8817 O.2       1 UNK         0.0000 
     22 O22         3.4957   51.6969   29.2814 O.2       1 UNK         0.0000 
     23 N23         2.9261   54.2284   28.7239 N.pl3     1 UNK         0.0000 
     24 C24         1.9232   55.2915   28.7325 C.3       1 UNK         0.0000 
     25 C25         3.8539   54.2427   27.6692 C.ar      1 UNK         0.0000 
     26 C26         5.2171   54.2040   27.9728 C.ar      1 UNK         0.0000 
     27 C27         6.1641   54.2904   26.9552 C.ar      1 UNK         0.0000 
     28 C28         5.7478   54.4123   25.6278 C.ar      1 UNK         0.0000 
     29 C29         4.3882   54.4255   25.3174 C.ar      1 UNK         0.0000 
     30 C30         3.4443   54.3363   26.3356 C.ar      1 UNK         0.0000 
     31 C31         6.7654   54.5225   24.5094 C.3       1 UNK         0.0000 
     32 H32         0.5515   47.9267   16.9312 H         1 UNK         0.0000 
     33 H33         1.6734   49.1781   16.4364 H         1 UNK         0.0000 
     34 H34         2.3029   47.6601   17.0823 H         1 UNK         0.0000 
     35 H35         0.0129   47.6062   19.3215 H         1 UNK         0.0000 
     36 H36        -0.0156   48.5392   21.5633 H         1 UNK         0.0000 
     37 H37         2.9626   51.4407   20.3696 H         1 UNK         0.0000 
     38 H38         2.9545   50.4965   18.1280 H         1 UNK         0.0000 
     39 H39         0.3430   49.1827   23.3759 H         1 UNK         0.0000 
     40 H40         1.2853   49.9763   25.3185 H         1 UNK         0.0000 
     41 H41        -2.3670   50.9554   27.1113 H         1 UNK         0.0000 
     42 H42        -2.2548   51.3492   29.5183 H         1 UNK         0.0000 
     43 H43        -0.1921   52.1421   30.5701 H         1 UNK         0.0000 
     44 H44         1.7982   52.0302   26.7650 H         1 UNK         0.0000 
     45 H45         2.3748   56.2636   28.5360 H         1 UNK         0.0000 
     46 H46         1.1559   55.1104   27.9797 H         1 UNK         0.0000 
     47 H47         1.4320   55.3496   29.7037 H         1 UNK         0.0000 
     48 H48         5.5471   54.1296   28.9990 H         1 UNK         0.0000 
     49 H49         7.2144   54.2685   27.2067 H         1 UNK         0.0000 
     50 H50         4.0611   54.5055   24.2904 H         1 UNK         0.0000 
     51 H51         2.3947   54.3529   26.0835 H         1 UNK         0.0000 
     52 H52         7.7881   54.4967   24.8819 H         1 UNK         0.0000 
     53 H53         6.6371   53.7035   23.8005 H         1 UNK         0.0000 
     54 H54         6.6253   55.4552   23.9609 H         1 UNK         0.0000 
@<TRIPOS>BOND
     1    1    2 1    
     2    1   32 1    
     3    1   33 1    
     4    1   34 1    
     5    2    7 ar   
     6    2    3 ar   
     7    3    4 ar   
     8    3   35 1    
     9    4    5 ar   
    10    4   36 1    
    11    5    6 ar   
    12    5    8 1    
    13    6    7 ar   
    14    6   37 1    
    15    7   38 1    
    16    8    9 2    
    17    8   10 am   BACKBONE|DICT|INTERRES
    18   10   11 1    
    19   10   39 1    
    20   11   12 am   BACKBONE|DICT|INTERRES
    21   11   40 1    
    22   12   13 2    
    23   12   14 1    
    24   14   19 ar   
    25   14   15 ar   
    26   15   16 ar   
    27   15   41 1    
    28   16   17 ar   
    29   16   42 1    
    30   17   18 ar   
    31   17   43 1    
    32   18   19 ar   
    33   18   20 1    
    34   19   44 1    
    35   20   21 2    
    36   20   22 2    
    37   20   23 1    
    38   23   24 1    
    39   23   25 1    
    40   24   45 1    
    41   24   46 1    
    42   24   47 1    
    43   25   30 ar   
    44   25   26 ar   
    45   26   27 ar   
    46   26   48 1    
    47   27   28 ar   
    48   27   49 1    
    49   28   29 ar   
    50   28   31 1    
    51   29   30 ar   
    52   29   50 1    
    53   30   51 1    
    54   31   52 1    
    55   31   53 1    
    56   31   54 1    
@<TRIPOS>SUBSTRUCTURE
     1 UNK         1 GROUP             0       ****    0 ROOT    
