@<TRIPOS>MOLECULE
ZINC02201806_1440
50   53    1
SMALL
USER_CHARGES


@<TRIPOS>ATOM
      1 C1          7.4764   55.6980   19.9057 C.ar      1 UNK         0.0000 
      2 C2          6.3163   55.1618   19.3575 C.ar      1 UNK         0.0000 
      3 C3          5.3412   54.6209   20.1926 C.ar      1 UNK         0.0000 
      4 C4          5.5101   54.6011   21.5863 C.ar      1 UNK         0.0000 
      5 C5          6.6954   55.1459   22.1144 C.ar      1 UNK         0.0000 
      6 C6          7.6676   55.6961   21.2820 C.ar      1 UNK         0.0000 
      7 N7          4.5027   54.0983   22.4170 N.pl3     1 UNK         0.0000 
      8 C8          4.4368   54.3527   23.8621 C.3       1 UNK         0.0000 
      9 C9          2.9944   54.4961   24.3835 C.3       1 UNK         0.0000 
     10 N10         2.2016   53.2938   24.1203 N.pl3     1 UNK         0.0000 
     11 C11         2.2088   52.9810   22.6786 C.3       1 UNK         0.0000 
     12 C12         3.6155   52.9878   22.0315 C.3       1 UNK         0.0000 
     13 C13         1.2421   52.7852   25.0051 C.ar      1 UNK         0.0000 
     14 C14         1.4554   52.5430   26.3370 C.ar      1 UNK         0.0000 
     15 C15         0.4198   51.8249   27.0980 C.ar      1 UNK         0.0000 
     16 O16         0.6238   51.4513   28.2569 O.2       1 UNK         0.0000 
     17 N17        -0.7412   51.5792   26.4034 N.pl3     1 UNK         0.0000 
     18 C18        -1.7804   50.8968   27.0379 C.ar      1 UNK         0.0000 
     19 C19        -2.9821   50.6385   26.4773 C.ar      1 UNK         0.0000 
     20 C20        -3.2005   51.0951   25.1146 C.ar      1 UNK         0.0000 
     21 C21        -2.1958   51.7144   24.4537 C.ar      1 UNK         0.0000 
     22 C22        -0.9066   51.9592   25.0692 C.ar      1 UNK         0.0000 
     23 N23         0.0429   52.5093   24.4101 N.2       1 UNK         0.0000 
     24 C24         2.7234   52.8573   27.0046 C.2       1 UNK         0.0000 
     25 C25         2.8795   53.5316   28.1731 C.2       1 UNK         0.0000 
     26 C26         1.7707   54.0596   28.9084 C.1       1 UNK         0.0000 
     27 N27         0.8908   54.4969   29.5202 N.1       1 UNK         0.0000 
     28 C28         4.1803   53.8033   28.7603 C.2       1 UNK         0.0000 
     29 O29         4.3046   54.4965   29.7621 O.2       1 UNK         0.0000 
     30 N30         5.2738   53.2962   28.1831 N.am      1 UNK         0.0000 
     31 H31         8.2338   56.1139   19.2576 H         1 UNK         0.0000 
     32 H32         6.1702   55.1692   18.2872 H         1 UNK         0.0000 
     33 H33         4.4398   54.2450   19.7332 H         1 UNK         0.0000 
     34 H34         6.8870   55.1447   23.1763 H         1 UNK         0.0000 
     35 H35         8.5787   56.0968   21.7030 H         1 UNK         0.0000 
     36 H36         4.9899   55.2519   24.1339 H         1 UNK         0.0000 
     37 H37         4.9296   53.5227   24.3720 H         1 UNK         0.0000 
     38 H38         2.4966   55.3841   24.0066 H         1 UNK         0.0000 
     39 H39         3.0723   54.6850   25.4480 H         1 UNK         0.0000 
     40 H40         1.8169   51.9718   22.5441 H         1 UNK         0.0000 
     41 H41         1.5237   53.6348   22.1382 H         1 UNK         0.0000 
     42 H42         4.1348   52.1034   22.3992 H         1 UNK         0.0000 
     43 H43         3.5366   52.8286   20.9578 H         1 UNK         0.0000 
     44 H44        -1.5599   50.5127   28.0306 H         1 UNK         0.0000 
     45 H45        -3.7285   50.0655   27.0090 H         1 UNK         0.0000 
     46 H46        -4.1537   50.9290   24.6347 H         1 UNK         0.0000 
     47 H47        -2.3637   52.0398   23.4394 H         1 UNK         0.0000 
     48 H48         3.6013   52.5090   26.4825 H         1 UNK         0.0000 
     49 H49         5.2272   52.6654   27.3971 H         1 UNK         0.0000 
     50 H50         6.1681   53.5148   28.5968 H         1 UNK         0.0000 
@<TRIPOS>BOND
     1    1    6 ar   
     2    1    2 ar   
     3    1   31 1    
     4    2    3 ar   
     5    2   32 1    
     6    3    4 ar   
     7    3   33 1    
     8    4    5 ar   
     9    4    7 1    
    10    5    6 ar   
    11    5   34 1    
    12    6   35 1    
    13    7   12 1    
    14    7    8 1    
    15    8    9 1    
    16    8   36 1    
    17    8   37 1    
    18    9   10 1    
    19    9   38 1    
    20    9   39 1    
    21   10   11 1    
    22   10   13 1    
    23   11   12 1    
    24   11   40 1    
    25   11   41 1    
    26   12   42 1    
    27   12   43 1    
    28   13   23 ar   
    29   13   14 ar   
    30   14   15 ar   
    31   14   24 1    
    32   15   16 2    
    33   15   17 ar   
    34   17   22 ar   
    35   17   18 ar   
    36   18   19 ar   
    37   18   44 1    
    38   19   20 ar   
    39   19   45 1    
    40   20   21 ar   
    41   20   46 1    
    42   21   22 ar   
    43   21   47 1    
    44   22   23 ar   
    45   24   25 2    
    46   24   48 1    
    47   25   26 1    
    48   25   28 1    
    49   26   27 3    
    50   28   29 2    
    51   28   30 am   BACKBONE|DICT|INTERRES
    52   30   49 1    
    53   30   50 1    
@<TRIPOS>SUBSTRUCTURE
     1 UNK         1 GROUP             0       ****    0 ROOT    
