@<TRIPOS>MOLECULE
ZINC39389428_544
55   58    1
SMALL
USER_CHARGES


@<TRIPOS>ATOM
      1 C1         -0.6513   51.8654   30.0806 C.3       1 UNK         0.0000 
      2 C2         -0.8786   51.5335   28.5975 C.3       1 UNK         0.0000 
      3 O3         -0.1425   52.4024   27.7449 O.3       1 UNK         0.0000 
      4 C4          1.1860   52.2423   27.5527 C.2       1 UNK         0.0000 
      5 O5          1.8928   51.3797   28.0820 O.2       1 UNK         0.0000 
      6 C6          1.7458   53.3009   26.5764 C.3       1 UNK         0.0000 
      7 H7          1.2629   54.2179   26.9114 H         1 UNK         0.0000 
      8 C8          1.3765   53.1025   25.0762 C.3       1 UNK         0.0000 
      9 H9          0.5005   53.7203   24.8792 H         1 UNK         0.0000 
     10 S10         2.6617   53.9388   24.1237 S.3       1 UNK         0.0000 
     11 C11         3.7984   53.9531   25.4906 C.2       1 UNK         0.0000 
     12 C12         3.2381   53.6188   26.6738 C.2       1 UNK         0.0000 
     13 C13         4.0534   53.5196   27.9689 C.3       1 UNK         0.0000 
     14 C14         5.4142   54.2368   27.8664 C.3       1 UNK         0.0000 
     15 C15         6.1194   53.9587   26.5319 C.3       1 UNK         0.0000 
     16 C16         5.2579   54.3636   25.3147 C.3       1 UNK         0.0000 
     17 N17         1.1040   51.7245   24.6260 N.am      1 UNK         0.0000 
     18 C18        -0.1199   51.2003   24.4076 C.2       1 UNK         0.0000 
     19 O19        -1.1539   51.8365   24.6224 O.2       1 UNK         0.0000 
     20 C20        -0.1913   49.7488   23.8774 C.3       1 UNK         0.0000 
     21 H21         0.7543   49.5371   23.3764 H         1 UNK         0.0000 
     22 C22        -0.3136   48.7696   25.0677 C.3       1 UNK         0.0000 
     23 S23        -1.4576   49.6156   22.5426 S.3       1 UNK         0.0000 
     24 C24        -1.9830   47.9263   22.6133 C.ar      1 UNK         0.0000 
     25 N25        -2.7556   47.4578   23.5689 N.2       1 UNK         0.0000 
     26 N26        -2.9583   46.0974   23.3508 N.2       1 UNK         0.0000 
     27 C27        -2.3202   45.8001   22.2514 C.ar      1 UNK         0.0000 
     28 N28        -1.6953   46.9178   21.7058 N.pl3     1 UNK         0.0000 
     29 C29        -0.9681   46.8016   20.4850 C.ar      1 UNK         0.0000 
     30 C30        -0.8987   45.5532   19.9519 C.ar      1 UNK         0.0000 
     31 C31        -1.5014   44.3794   20.5765 C.ar      1 UNK         0.0000 
     32 O32        -1.2710   43.2967   20.0390 O.2       1 UNK         0.0000 
     33 N33        -2.2118   44.5646   21.6798 N.2       1 UNK         0.0000 
     34 C34        -0.3406   48.0464   19.8855 C.3       1 UNK         0.0000 
     35 H35        -1.2811   51.2423   30.7173 H         1 UNK         0.0000 
     36 H36         0.3835   51.6969   30.3742 H         1 UNK         0.0000 
     37 H37        -0.8824   52.9073   30.2957 H         1 UNK         0.0000 
     38 H38        -1.9368   51.6432   28.3589 H         1 UNK         0.0000 
     39 H39        -0.6218   50.4963   28.3855 H         1 UNK         0.0000 
     40 H40         3.4913   53.8827   28.8290 H         1 UNK         0.0000 
     41 H41         4.2421   52.4719   28.1985 H         1 UNK         0.0000 
     42 H42         6.0559   53.9401   28.6972 H         1 UNK         0.0000 
     43 H43         5.2614   55.3047   27.9758 H         1 UNK         0.0000 
     44 H44         6.3506   52.8968   26.4810 H         1 UNK         0.0000 
     45 H45         7.0792   54.4757   26.4981 H         1 UNK         0.0000 
     46 H46         5.6879   53.9281   24.4118 H         1 UNK         0.0000 
     47 H47         5.3187   55.4427   25.1689 H         1 UNK         0.0000 
     48 H48         1.9096   51.1291   24.5103 H         1 UNK         0.0000 
     49 H49         0.4617   48.9357   25.8187 H         1 UNK         0.0000 
     50 H50        -1.2769   48.8628   25.5725 H         1 UNK         0.0000 
     51 H51        -0.2064   47.7345   24.7448 H         1 UNK         0.0000 
     52 H52        -0.3600   45.4032   19.0283 H         1 UNK         0.0000 
     53 H53         0.1625   47.8186   18.9455 H         1 UNK         0.0000 
     54 H54        -1.1014   48.8002   19.6830 H         1 UNK         0.0000 
     55 H55         0.4013   48.4670   20.5647 H         1 UNK         0.0000 
@<TRIPOS>BOND
     1    1    2 1    
     2    1   35 1    
     3    1   36 1    
     4    1   37 1    
     5    2    3 1    
     6    2   38 1    
     7    2   39 1    
     8    3    4 1    
     9    4    5 2    
    10    4    6 1    
    11    6    7 1    
    12    6   12 1    
    13    6    8 1    
    14    8    9 1    
    15    8   10 1    
    16    8   17 1    
    17   10   11 1    
    18   11   16 1    
    19   11   12 2    
    20   12   13 1    
    21   13   14 1    
    22   13   40 1    
    23   13   41 1    
    24   14   15 1    
    25   14   42 1    
    26   14   43 1    
    27   15   16 1    
    28   15   44 1    
    29   15   45 1    
    30   16   46 1    
    31   16   47 1    
    32   17   18 am   BACKBONE|DICT|INTERRES
    33   17   48 1    
    34   18   19 2    
    35   18   20 1    
    36   20   21 1    
    37   20   22 1    
    38   20   23 1    
    39   22   49 1    
    40   22   50 1    
    41   22   51 1    
    42   23   24 1    
    43   24   28 ar   
    44   24   25 ar   
    45   25   26 ar   
    46   26   27 ar   
    47   27   33 ar   
    48   27   28 ar   
    49   28   29 ar   
    50   29   30 ar   
    51   29   34 1    
    52   30   31 ar   
    53   30   52 1    
    54   31   32 2    
    55   31   33 ar   
    56   34   53 1    
    57   34   54 1    
    58   34   55 1    
@<TRIPOS>SUBSTRUCTURE
     1 UNK         1 GROUP             0       ****    0 ROOT    
