ZINC13621509_5294
                    3D
 Schrodinger Suite 2024-2.
 51 53  0  0  1  0            999 V2000
    2.1732   52.7590   25.7504 C   0  0  0  0  0  0
    2.7236   53.7892   26.6409 N   0  0  0  0  0  0
    4.0062   54.2884   26.2607 C   0  0  0  0  0  0
    4.2893   54.4966   24.8982 C   0  0  0  0  0  0
    5.5561   54.8929   24.4885 C   0  0  0  0  0  0
    6.5536   55.0957   25.4316 C   0  0  0  0  0  0
    6.3025   54.8960   26.7885 C   0  0  0  0  0  0
    5.0337   54.4963   27.2012 C   0  0  0  0  0  0
    2.0877   54.1972   27.7939 C   0  0  0  0  0  0
    2.4659   55.1943   28.4226 O   0  0  0  0  0  0
    0.9672   53.3779   28.4346 C   0  0  0  0  0  0
    0.9114   53.3180   29.8381 C   0  0  0  0  0  0
   -0.0026   52.4967   30.4954 C   0  0  0  0  0  0
   -0.8727   51.6970   29.7599 C   0  0  0  0  0  0
   -0.8936   51.7930   28.3694 C   0  0  0  0  0  0
   -0.0084   52.6592   27.7176 C   0  0  0  0  0  0
   -1.7154   50.8967   27.6810 N   0  0  0  0  0  0
   -2.5818   51.0325   26.6365 C   0  0  0  0  0  0
   -2.9648   52.4934   25.8803 S   0  0  0  0  0  0
   -3.0888   49.7940   26.3528 N   0  0  0  0  0  0
   -3.9901   49.3268   25.4589 C   0  0  0  0  0  0
   -4.4437   49.9523   24.4969 O   0  0  0  0  0  0
   -4.3800   47.8802   25.6786 C   0  0  0  0  0  0
   -4.5069   47.0429   24.5611 C   0  0  0  0  0  0
   -4.8084   45.6913   24.7105 C   0  0  0  0  0  0
   -5.0101   45.1606   25.9808 C   0  0  0  0  0  0
   -4.8976   45.9787   27.1002 C   0  0  0  0  0  0
   -4.5846   47.3445   26.9701 C   0  0  0  0  0  0
   -4.4958   48.1934   28.0610 O   0  0  0  0  0  0
   -4.4829   47.6635   29.3817 C   0  0  0  0  0  0
   -4.9114   44.5631   23.1815 Br  0  0  0  0  0  0
    1.9035   51.8619   26.3101 H   0  0  0  0  0  0
    1.3130   53.1420   25.2017 H   0  0  0  0  0  0
    2.8907   52.4230   25.0025 H   0  0  0  0  0  0
    3.5310   54.3527   24.1437 H   0  0  0  0  0  0
    5.7689   55.0361   23.4398 H   0  0  0  0  0  0
    7.5232   55.4086   25.0846 H   0  0  0  0  0  0
    7.0842   55.0454   27.5199 H   0  0  0  0  0  0
    4.8672   54.3206   28.2553 H   0  0  0  0  0  0
    1.6074   53.8814   30.4408 H   0  0  0  0  0  0
   -0.0090   52.4421   31.5746 H   0  0  0  0  0  0
   -1.5296   51.0113   30.2793 H   0  0  0  0  0  0
   -0.0834   52.7143   26.6473 H   0  0  0  0  0  0
   -1.6756   49.9638   28.0830 H   0  0  0  0  0  0
   -2.8038   49.0850   27.0210 H   0  0  0  0  0  0
   -4.3530   47.4316   23.5634 H   0  0  0  0  0  0
   -5.2504   44.1152   26.1035 H   0  0  0  0  0  0
   -5.0585   45.5334   28.0686 H   0  0  0  0  0  0
   -4.2904   48.4753   30.0856 H   0  0  0  0  0  0
   -5.4439   47.2205   29.6440 H   0  0  0  0  0  0
   -3.6923   46.9225   29.5137 H   0  0  0  0  0  0
  1  2  1  0  0  0
  1 32  1  0  0  0
  1 33  1  0  0  0
  1 34  1  0  0  0
  2  3  1  0  0  0
  2  9  1  0  0  0
  3  8  2  0  0  0
  3  4  1  0  0  0
  4  5  2  0  0  0
  4 35  1  0  0  0
  5  6  1  0  0  0
  5 36  1  0  0  0
  6  7  2  0  0  0
  6 37  1  0  0  0
  7  8  1  0  0  0
  7 38  1  0  0  0
  8 39  1  0  0  0
  9 10  2  0  0  0
  9 11  1  0  0  0
 11 16  2  0  0  0
 11 12  1  0  0  0
 12 13  2  0  0  0
 12 40  1  0  0  0
 13 14  1  0  0  0
 13 41  1  0  0  0
 14 15  2  0  0  0
 14 42  1  0  0  0
 15 16  1  0  0  0
 15 17  1  0  0  0
 16 43  1  0  0  0
 17 18  1  0  0  0
 17 44  1  0  0  0
 18 19  2  0  0  0
 18 20  1  0  0  0
 20 21  1  0  0  0
 20 45  1  0  0  0
 21 22  2  0  0  0
 21 23  1  0  0  0
 23 28  2  0  0  0
 23 24  1  0  0  0
 24 25  2  0  0  0
 24 46  1  0  0  0
 25 26  1  0  0  0
 25 31  1  0  0  0
 26 27  2  0  0  0
 26 47  1  0  0  0
 27 28  1  0  0  0
 27 48  1  0  0  0
 28 29  1  0  0  0
 29 30  1  0  0  0
 30 49  1  0  0  0
 30 50  1  0  0  0
 30 51  1  0  0  0
M  END
> <i_i_glide_confnum>
134

> <i_i_glide_lignum>
5295

> <i_i_glide_posenum>
231

> <i_i_glide_rotatable_bonds>
9

> <i_m_Source_File_Index>
3962

> <b_m_subgroup_collapsed>
0

> <r_i_docking_score>
-5.26065

> <r_i_glide_ecoul>
-7.04828

> <r_i_glide_eff_state_penalty>
0

> <r_i_glide_einternal>
8.90871

> <r_i_glide_emodel>
-54.2171

> <r_i_glide_energy>
-43.9652

> <r_i_glide_erotb>
0.6572

> <r_i_glide_esite>
-0.26449

> <r_i_glide_evdw>
-36.9169

> <r_i_glide_gscore>
-5.26065

> <r_i_glide_hbond>
-0.304

> <r_i_glide_ligand_efficiency>
-0.169698

> <r_i_glide_ligand_efficiency_ln>
-1.18644

> <r_i_glide_ligand_efficiency_sa>
-0.533087

> <r_i_glide_lipo>
-2.2192

> <r_i_glide_metal>
0

> <r_i_glide_rewards>
-0.227071

> <s_i_glide_gridfile>
wee1_glide-grid

> <s_m_Source_File>
wee1_decoys_glide_SP.sdf

> <s_m_Source_Path>
/Users/zhangxujun/Desktop

> <s_m_entry_id>
4237

> <s_m_entry_name>
wee1_decoys_glide_SP.3962

> <s_m_subgroup_title>
wee1_decoys_glide_SP

> <s_m_subgroupid>
wee1_decoys_glide_SP


$$$$
