@<TRIPOS>MOLECULE
ZINC66198462_2384
54   56    1
SMALL
USER_CHARGES


@<TRIPOS>ATOM
      1 C1          4.7025   54.3582   29.5691 C.3       1 UNK         0.0000 
      2 C2          4.9434   54.4375   28.0819 C.ar      1 UNK         0.0000 
      3 C3          6.2484   54.4957   27.5855 C.ar      1 UNK         0.0000 
      4 C4          6.4644   54.6449   26.2194 C.ar      1 UNK         0.0000 
      5 C5          5.3731   54.7392   25.3544 C.ar      1 UNK         0.0000 
      6 C6          4.0716   54.6513   25.8575 C.ar      1 UNK         0.0000 
      7 C7          3.8546   54.4965   27.2184 C.ar      1 UNK         0.0000 
      8 C8          5.5261   54.8963   23.9083 C.2       1 UNK         0.0000 
      9 C9          6.6124   55.2901   23.2046 C.2       1 UNK         0.0000 
     10 C10         6.6610   55.3284   21.7533 C.2       1 UNK         0.0000 
     11 O11         7.4119   56.0965   21.1545 O.2       1 UNK         0.0000 
     12 N12         5.8076   54.4499   21.1794 N.am      1 UNK         0.0000 
     13 C13         5.5081   54.0538   19.9028 C.2       1 UNK         0.0000 
     14 S14         6.2724   54.5105   18.4950 S.2       1 UNK         0.0000 
     15 N15         4.4982   53.1317   19.8232 N.pl3     1 UNK         0.0000 
     16 C16         3.5913   52.7437   20.8354 C.ar      1 UNK         0.0000 
     17 C17         3.0104   53.6949   21.6816 C.ar      1 UNK         0.0000 
     18 C18         2.1464   53.3208   22.6985 C.ar      1 UNK         0.0000 
     19 C19         1.8496   51.9716   22.9022 C.ar      1 UNK         0.0000 
     20 C20         2.4064   51.0023   22.0473 C.ar      1 UNK         0.0000 
     21 C21         3.2677   51.3951   21.0105 C.ar      1 UNK         0.0000 
     22 C22         2.1131   49.5305   22.2517 C.3       1 UNK         0.0000 
     23 N23         1.0692   51.5989   24.0111 N.am      1 UNK         0.0000 
     24 C24        -0.1011   52.1595   24.3762 C.2       1 UNK         0.0000 
     25 O25        -0.7731   52.8981   23.6543 O.2       1 UNK         0.0000 
     26 C26        -0.5691   51.8341   25.7687 C.ar      1 UNK         0.0000 
     27 C27        -1.9257   51.5792   26.0060 C.ar      1 UNK         0.0000 
     28 C28        -2.3710   51.2985   27.2929 C.ar      1 UNK         0.0000 
     29 C29        -1.4644   51.3044   28.3499 C.ar      1 UNK         0.0000 
     30 C30        -0.1166   51.5805   28.1329 C.ar      1 UNK         0.0000 
     31 C31         0.3336   51.8354   26.8429 C.ar      1 UNK         0.0000 
     32 H32         5.4963   54.8987   30.0818 H         1 UNK         0.0000 
     33 H33         3.7630   54.8339   29.8528 H         1 UNK         0.0000 
     34 H34         4.6967   53.3172   29.8958 H         1 UNK         0.0000 
     35 H35         7.0917   54.4401   28.2574 H         1 UNK         0.0000 
     36 H36         7.4760   54.6726   25.8402 H         1 UNK         0.0000 
     37 H37         3.2184   54.7146   25.1992 H         1 UNK         0.0000 
     38 H38         2.8430   54.4486   27.5942 H         1 UNK         0.0000 
     39 H39         4.6355   54.6239   23.3739 H         1 UNK         0.0000 
     40 H40         7.5043   55.6112   23.7084 H         1 UNK         0.0000 
     41 H41         5.3163   53.9017   21.8658 H         1 UNK         0.0000 
     42 H42         4.3645   52.6888   18.9227 H         1 UNK         0.0000 
     43 H43         3.2003   54.7471   21.5332 H         1 UNK         0.0000 
     44 H44         1.7189   54.0853   23.3315 H         1 UNK         0.0000 
     45 H45         3.7013   50.6552   20.3509 H         1 UNK         0.0000 
     46 H46         1.0558   49.3219   22.0917 H         1 UNK         0.0000 
     47 H47         2.7082   48.8795   21.6094 H         1 UNK         0.0000 
     48 H48         2.3417   49.2953   23.2887 H         1 UNK         0.0000 
     49 H49         1.4394   50.8654   24.5982 H         1 UNK         0.0000 
     50 H50        -2.6362   51.5829   25.1907 H         1 UNK         0.0000 
     51 H51        -3.4107   51.0748   27.4753 H         1 UNK         0.0000 
     52 H52        -1.8062   51.0666   29.3466 H         1 UNK         0.0000 
     53 H53         0.5756   51.5764   28.9625 H         1 UNK         0.0000 
     54 H54         1.3811   52.0524   26.6897 H         1 UNK         0.0000 
@<TRIPOS>BOND
     1    1    2 1    
     2    1   32 1    
     3    1   33 1    
     4    1   34 1    
     5    2    7 ar   
     6    2    3 ar   
     7    3    4 ar   
     8    3   35 1    
     9    4    5 ar   
    10    4   36 1    
    11    5    6 ar   
    12    5    8 1    
    13    6    7 ar   
    14    6   37 1    
    15    7   38 1    
    16    8    9 2    
    17    8   39 1    
    18    9   10 1    
    19    9   40 1    
    20   10   11 2    
    21   10   12 am   BACKBONE|DICT|INTERRES
    22   12   13 am   BACKBONE|DICT|INTERRES
    23   12   41 1    
    24   13   14 2    
    25   13   15 1    
    26   15   16 1    
    27   15   42 1    
    28   16   21 ar   
    29   16   17 ar   
    30   17   18 ar   
    31   17   43 1    
    32   18   19 ar   
    33   18   44 1    
    34   19   20 ar   
    35   19   23 1    
    36   20   21 ar   
    37   20   22 1    
    38   21   45 1    
    39   22   46 1    
    40   22   47 1    
    41   22   48 1    
    42   23   24 am   BACKBONE|DICT|INTERRES
    43   23   49 1    
    44   24   25 2    
    45   24   26 1    
    46   26   31 ar   
    47   26   27 ar   
    48   27   28 ar   
    49   27   50 1    
    50   28   29 ar   
    51   28   51 1    
    52   29   30 ar   
    53   29   52 1    
    54   30   31 ar   
    55   30   53 1    
    56   31   54 1    
@<TRIPOS>SUBSTRUCTURE
     1 UNK         1 GROUP             0       ****    0 ROOT    
