@<TRIPOS>MOLECULE
ZINC21050860_3766
44   45    1
SMALL
USER_CHARGES


@<TRIPOS>ATOM
      1 C1          0.4731   52.6301   22.8408 C.3       1 UNK         0.0000 
      2 C2          0.2951   52.1598   24.2766 C.ar      1 UNK         0.0000 
      3 C3          1.1807   52.6664   25.2238 C.ar      1 UNK         0.0000 
      4 C4          1.0756   52.3393   26.5747 C.ar      1 UNK         0.0000 
      5 C5          0.0584   51.4647   26.9726 C.ar      1 UNK         0.0000 
      6 C6         -0.8431   50.9439   26.0361 C.ar      1 UNK         0.0000 
      7 C7         -0.7327   51.2874   24.6741 C.ar      1 UNK         0.0000 
      8 C8         -1.6896   50.7091   23.6269 C.3       1 UNK         0.0000 
      9 N9         -1.8596   50.0969   26.4817 N.pl3     1 UNK         0.0000 
     10 S10         2.1598   53.0920   27.8110 S.o2      1 UNK         0.0000 
     11 O11         1.4991   54.3410   28.2065 O.2       1 UNK         0.0000 
     12 O12         2.4227   52.0540   28.8160 O.2       1 UNK         0.0000 
     13 N13         3.7066   53.5449   27.0272 N.pl3     1 UNK         0.0000 
     14 C14         3.7261   54.6852   26.0802 C.3       1 UNK         0.0000 
     15 C15         4.4480   54.4405   24.7399 C.3       1 UNK         0.0000 
     16 C16         5.9804   54.3177   24.7718 C.3       1 UNK         0.0000 
     17 C17         6.7083   55.2085   25.7855 C.3       1 UNK         0.0000 
     18 C18         7.0827   54.5203   27.1245 C.3       1 UNK         0.0000 
     19 C19         5.9251   54.2040   28.0924 C.3       1 UNK         0.0000 
     20 C20         4.9880   53.0768   27.6132 C.3       1 UNK         0.0000 
     21 H21         1.2271   52.0319   22.3287 H         1 UNK         0.0000 
     22 H22        -0.4546   52.6032   22.2708 H         1 UNK         0.0000 
     23 H23         0.8047   53.6719   22.8449 H         1 UNK         0.0000 
     24 H24         1.9461   53.3247   24.8687 H         1 UNK         0.0000 
     25 H25        -0.0465   51.2041   28.0168 H         1 UNK         0.0000 
     26 H26        -2.2026   49.8080   23.9614 H         1 UNK         0.0000 
     27 H27        -1.1434   50.4138   22.7310 H         1 UNK         0.0000 
     28 H28        -2.4348   51.4516   23.3423 H         1 UNK         0.0000 
     29 H29        -1.6955   49.5533   27.3440 H         1 UNK         0.0000 
     30 H30        -2.4381   49.6700   25.7765 H         1 UNK         0.0000 
     31 H31         2.6988   54.8968   25.8441 H         1 UNK         0.0000 
     32 H32         4.0613   55.5847   26.5862 H         1 UNK         0.0000 
     33 H33         4.0333   53.5683   24.2342 H         1 UNK         0.0000 
     34 H34         4.2007   55.2814   24.0934 H         1 UNK         0.0000 
     35 H35         6.2779   53.2957   24.9390 H         1 UNK         0.0000 
     36 H36         6.3511   54.5417   23.7697 H         1 UNK         0.0000 
     37 H37         6.1244   56.0970   25.9749 H         1 UNK         0.0000 
     38 H38         7.6026   55.5620   25.2769 H         1 UNK         0.0000 
     39 H39         7.7909   55.1369   27.6801 H         1 UNK         0.0000 
     40 H40         7.6107   53.5919   26.9120 H         1 UNK         0.0000 
     41 H41         5.3765   55.1073   28.3601 H         1 UNK         0.0000 
     42 H42         6.3846   53.8735   29.0226 H         1 UNK         0.0000 
     43 H43         4.7783   52.3870   28.4294 H         1 UNK         0.0000 
     44 H44         5.4861   52.4796   26.8599 H         1 UNK         0.0000 
@<TRIPOS>BOND
     1    1    2 1    
     2    1   21 1    
     3    1   22 1    
     4    1   23 1    
     5    2    7 ar   
     6    2    3 ar   
     7    3    4 ar   
     8    3   24 1    
     9    4    5 ar   
    10    4   10 1    
    11    5    6 ar   
    12    5   25 1    
    13    6    7 ar   
    14    6    9 1    
    15    7    8 1    
    16    8   26 1    
    17    8   27 1    
    18    8   28 1    
    19    9   29 1    
    20    9   30 1    
    21   10   11 2    
    22   10   12 2    
    23   10   13 1    
    24   13   20 1    
    25   13   14 1    
    26   14   15 1    
    27   14   31 1    
    28   14   32 1    
    29   15   16 1    
    30   15   33 1    
    31   15   34 1    
    32   16   17 1    
    33   16   35 1    
    34   16   36 1    
    35   17   18 1    
    36   17   37 1    
    37   17   38 1    
    38   18   19 1    
    39   18   39 1    
    40   18   40 1    
    41   19   20 1    
    42   19   41 1    
    43   19   42 1    
    44   20   43 1    
    45   20   44 1    
@<TRIPOS>SUBSTRUCTURE
     1 UNK         1 GROUP             0       ****    0 ROOT    
