@<TRIPOS>MOLECULE
ZINC27549385_1108
69   72    1
SMALL
USER_CHARGES


@<TRIPOS>ATOM
      1 C1         10.8421   53.8433   16.8119 C.3       1 UNK         0.0000 
      2 C2          9.9971   54.4872   17.9190 C.3       1 UNK         0.0000 
      3 C3          9.7863   56.0044   17.7167 C.3       1 UNK         0.0000 
      4 C4          9.0794   56.7442   18.8818 C.3       1 UNK         0.0000 
      5 C5          7.7675   56.0945   19.2949 C.2       1 UNK         0.0000 
      6 N6          7.5365   55.6981   20.4859 N.2       1 UNK         0.0000 
      7 N7          6.2904   55.0618   20.5722 N.pl3     1 UNK         0.0000 
      8 C8          5.7744   54.4969   21.7894 C.2       1 UNK         0.0000 
      9 N9          6.4231   54.5949   22.8738 N.2       1 UNK         0.0000 
     10 C10         4.4667   53.8297   21.6270 C.2       1 UNK         0.0000 
     11 C11         3.7364   53.5524   22.7514 C.2       1 UNK         0.0000 
     12 C12         2.4300   52.8852   22.9539 C.ar      1 UNK         0.0000 
     13 C13         1.4393   53.5474   23.6818 C.ar      1 UNK         0.0000 
     14 C14         0.2239   52.9221   23.9374 C.ar      1 UNK         0.0000 
     15 C15        -0.0213   51.6283   23.4778 C.ar      1 UNK         0.0000 
     16 C16         0.9523   50.9486   22.7240 C.ar      1 UNK         0.0000 
     17 C17         2.1884   51.5791   22.5083 C.ar      1 UNK         0.0000 
     18 O18         0.6434   49.6927   22.2260 O.3       1 UNK         0.0000 
     19 C19         1.5541   49.0616   21.3255 C.3       1 UNK         0.0000 
     20 O20        -1.2550   51.0873   23.7488 O.3       1 UNK         0.0000 
     21 C21        -1.2687   49.9366   24.5948 C.3       1 UNK         0.0000 
     22 C22        -1.9367   50.2448   25.9448 C.3       1 UNK         0.0000 
     23 O23        -3.2055   50.8642   25.7365 O.3       1 UNK         0.0000 
     24 C24        -4.0635   51.0349   26.8048 C.ar      1 UNK         0.0000 
     25 C25        -3.8157   50.6032   28.1192 C.ar      1 UNK         0.0000 
     26 C26        -4.7695   50.7920   29.1241 C.ar      1 UNK         0.0000 
     27 C27        -5.9785   51.4235   28.8240 C.ar      1 UNK         0.0000 
     28 C28        -6.2294   51.8795   27.5264 C.ar      1 UNK         0.0000 
     29 C29        -5.2713   51.6789   26.5285 C.ar      1 UNK         0.0000 
     30 C30        -7.5364   52.5855   27.2011 C.3       1 UNK         0.0000 
     31 C31        -7.5509   54.0425   27.6838 C.3       1 UNK         0.0000 
     32 C32        -4.5000   50.2755   30.5263 C.3       1 UNK         0.0000 
     33 C33         3.9417   53.5405   20.2572 C.2       1 UNK         0.0000 
     34 O34         3.1063   52.6606   20.0823 O.2       1 UNK         0.0000 
     35 N35         4.4908   54.2967   19.2066 N.am      1 UNK         0.0000 
     36 C36         5.5794   54.9333   19.3635 C.2       1 UNK         0.0000 
     37 S37         6.4560   55.8013   18.0964 S.3       1 UNK         0.0000 
     38 H38        10.9619   52.7727   16.9906 H         1 UNK         0.0000 
     39 H39        11.8396   54.2863   16.7594 H         1 UNK         0.0000 
     40 H40        10.3692   53.9626   15.8351 H         1 UNK         0.0000 
     41 H41         9.0404   53.9696   17.9641 H         1 UNK         0.0000 
     42 H42        10.4764   54.3076   18.8812 H         1 UNK         0.0000 
     43 H43        10.7579   56.4759   17.5643 H         1 UNK         0.0000 
     44 H44         9.2371   56.1671   16.7897 H         1 UNK         0.0000 
     45 H45         9.7567   56.8108   19.7355 H         1 UNK         0.0000 
     46 H46         8.8905   57.7755   18.5843 H         1 UNK         0.0000 
     47 H47         7.2908   55.0941   22.7188 H         1 UNK         0.0000 
     48 H48         4.1635   53.8339   23.7031 H         1 UNK         0.0000 
     49 H49         1.6086   54.5470   24.0501 H         1 UNK         0.0000 
     50 H50        -0.5452   53.4391   24.4907 H         1 UNK         0.0000 
     51 H51         2.9807   51.0589   21.9886 H         1 UNK         0.0000 
     52 H52         1.0777   48.1893   20.8818 H         1 UNK         0.0000 
     53 H53         1.8403   49.7130   20.5001 H         1 UNK         0.0000 
     54 H54         2.4545   48.7294   21.8415 H         1 UNK         0.0000 
     55 H55        -1.8374   49.1602   24.0820 H         1 UNK         0.0000 
     56 H56        -0.2747   49.5156   24.7656 H         1 UNK         0.0000 
     57 H57        -2.0466   49.2993   26.4808 H         1 UNK         0.0000 
     58 H58        -1.2987   50.9002   26.5430 H         1 UNK         0.0000 
     59 H59        -2.8961   50.0965   28.3735 H         1 UNK         0.0000 
     60 H60        -6.7236   51.5648   29.5926 H         1 UNK         0.0000 
     61 H61        -5.4619   52.0189   25.5197 H         1 UNK         0.0000 
     62 H62        -7.7217   52.5483   26.1257 H         1 UNK         0.0000 
     63 H63        -8.3596   52.0302   27.6544 H         1 UNK         0.0000 
     64 H64        -8.4972   54.5259   27.4387 H         1 UNK         0.0000 
     65 H65        -7.4189   54.0917   28.7637 H         1 UNK         0.0000 
     66 H66        -6.7496   54.6235   27.2208 H         1 UNK         0.0000 
     67 H67        -5.4098   50.2193   31.1288 H         1 UNK         0.0000 
     68 H68        -4.0936   49.2621   30.4763 H         1 UNK         0.0000 
     69 H69        -3.7668   50.8964   31.0515 H         1 UNK         0.0000 
@<TRIPOS>BOND
     1    1    2 1    
     2    1   38 1    
     3    1   39 1    
     4    1   40 1    
     5    2    3 1    
     6    2   41 1    
     7    2   42 1    
     8    3    4 1    
     9    3   43 1    
    10    3   44 1    
    11    4    5 1    
    12    4   45 1    
    13    4   46 1    
    14    5   37 1    
    15    5    6 2    
    16    6    7 1    
    17    7   36 1    
    18    7    8 1    
    19    8    9 2    
    20    8   10 1    
    21    9   47 1    
    22   10   11 2    
    23   10   33 1    
    24   11   12 1    
    25   11   48 1    
    26   12   17 ar   
    27   12   13 ar   
    28   13   14 ar   
    29   13   49 1    
    30   14   15 ar   
    31   14   50 1    
    32   15   16 ar   
    33   15   20 1    
    34   16   17 ar   
    35   16   18 1    
    36   17   51 1    
    37   18   19 1    
    38   19   52 1    
    39   19   53 1    
    40   19   54 1    
    41   20   21 1    
    42   21   22 1    
    43   21   55 1    
    44   21   56 1    
    45   22   23 1    
    46   22   57 1    
    47   22   58 1    
    48   23   24 1    
    49   24   29 ar   
    50   24   25 ar   
    51   25   26 ar   
    52   25   59 1    
    53   26   27 ar   
    54   26   32 1    
    55   27   28 ar   
    56   27   60 1    
    57   28   29 ar   
    58   28   30 1    
    59   29   61 1    
    60   30   31 1    
    61   30   62 1    
    62   30   63 1    
    63   31   64 1    
    64   31   65 1    
    65   31   66 1    
    66   32   67 1    
    67   32   68 1    
    68   32   69 1    
    69   33   34 2    
    70   33   35 am   BACKBONE|DICT|INTERRES
    71   35   36 2    BACKBONE|DICT|INTERRES
    72   36   37 1    
@<TRIPOS>SUBSTRUCTURE
     1 UNK         1 GROUP             0       ****    0 ROOT    
