@<TRIPOS>MOLECULE
ZINC13206056_1988
65   69    1
SMALL
USER_CHARGES


@<TRIPOS>ATOM
      1 C1          5.9809   53.6527   18.4169 C.3       1 UNK         0.0000 
      2 C2          5.3613   53.6775   19.8012 C.ar      1 UNK         0.0000 
      3 C3          4.2517   52.8801   20.0780 C.ar      1 UNK         0.0000 
      4 C4          3.6713   52.9116   21.3425 C.ar      1 UNK         0.0000 
      5 C5          4.2113   53.7205   22.3491 C.ar      1 UNK         0.0000 
      6 C6          5.3403   54.4965   22.0708 C.ar      1 UNK         0.0000 
      7 C7          5.8977   54.4971   20.7950 C.ar      1 UNK         0.0000 
      8 C8          3.5186   53.8179   23.6740 C.ar      1 UNK         0.0000 
      9 N9          2.2117   53.8396   23.7814 N.2       1 UNK         0.0000 
     10 N10         1.9051   53.9968   25.1235 N.2       1 UNK         0.0000 
     11 C11         3.0316   54.0796   25.7840 C.ar      1 UNK         0.0000 
     12 N12         4.1032   53.8963   24.9303 N.pl3     1 UNK         0.0000 
     13 C13         5.5049   53.6980   25.3084 C.3       1 UNK         0.0000 
     14 C14         6.2179   54.9637   25.7780 C.2       1 UNK         0.0000 
     15 O15         7.1044   54.8072   26.6383 O.co2     1 UNK         0.0000 
     16 S16         3.1233   54.4536   27.5085 S.3       1 UNK         0.0000 
     17 C17         3.2752   52.7763   28.1911 C.3       1 UNK         0.0000 
     18 H18         3.5071   52.1005   27.3741 H         1 UNK         0.0000 
     19 C19         4.4489   52.6967   29.1894 C.3       1 UNK         0.0000 
     20 C20         1.9325   52.3239   28.7948 C.2       1 UNK         0.0000 
     21 O21         1.7617   52.3903   30.0172 O.2       1 UNK         0.0000 
     22 N22         1.0154   51.8763   27.9045 N.am      1 UNK         0.0000 
     23 C23        -0.3052   51.6965   28.1156 C.2       1 UNK         0.0000 
     24 O24        -0.9288   52.0969   29.0983 O.2       1 UNK         0.0000 
     25 N25        -0.8766   51.0486   27.0858 N.am      1 UNK         0.0000 
     26 C26        -2.2390   51.2022   26.5470 C.3       1 UNK         0.0000 
     27 C27        -3.3877   50.8478   27.5590 C.3       1 UNK         0.0000 
     28 C28        -4.7855   50.9807   26.8975 C.3       1 UNK         0.0000 
     29 C29        -4.9925   52.4338   26.4068 C.3       1 UNK         0.0000 
     30 C30        -3.8935   52.7984   25.3751 C.3       1 UNK         0.0000 
     31 C31        -2.4923   52.6539   26.0276 C.3       1 UNK         0.0000 
     32 C32        -3.9898   51.8320   24.1690 C.3       1 UNK         0.0000 
     33 C33        -3.7864   50.3739   24.6547 C.3       1 UNK         0.0000 
     34 C34        -4.8788   50.0128   25.6912 C.3       1 UNK         0.0000 
     35 C35        -2.3928   50.2427   25.3244 C.3       1 UNK         0.0000 
     36 H36         6.6453   52.7936   18.3093 H         1 UNK         0.0000 
     37 H37         6.5382   54.5670   18.2083 H         1 UNK         0.0000 
     38 H38         5.2047   53.5725   17.6549 H         1 UNK         0.0000 
     39 H39         3.8377   52.2423   19.3106 H         1 UNK         0.0000 
     40 H40         2.7915   52.3150   21.5332 H         1 UNK         0.0000 
     41 H41         5.7677   55.1402   22.8249 H         1 UNK         0.0000 
     42 H42         6.7575   55.1181   20.5871 H         1 UNK         0.0000 
     43 H43         5.5277   52.9517   26.1007 H         1 UNK         0.0000 
     44 H44         6.0549   53.2969   24.4602 H         1 UNK         0.0000 
     45 H45         4.5685   51.6932   29.5950 H         1 UNK         0.0000 
     46 H46         5.3906   52.9639   28.7078 H         1 UNK         0.0000 
     47 H47         4.3043   53.3773   30.0300 H         1 UNK         0.0000 
     48 H48         1.3345   51.7390   26.9590 H         1 UNK         0.0000 
     49 H49        -0.3089   50.3752   26.5949 H         1 UNK         0.0000 
     50 H50        -3.2904   49.8304   27.9395 H         1 UNK         0.0000 
     51 H51        -3.3420   51.4943   28.4351 H         1 UNK         0.0000 
     52 H52        -5.5571   50.7277   27.6270 H         1 UNK         0.0000 
     53 H53        -5.9818   52.5413   25.9589 H         1 UNK         0.0000 
     54 H54        -4.9749   53.1148   27.2558 H         1 UNK         0.0000 
     55 H55        -4.0363   53.8256   25.0349 H         1 UNK         0.0000 
     56 H56        -2.3949   53.3651   26.8467 H         1 UNK         0.0000 
     57 H57        -1.7200   52.9295   25.3062 H         1 UNK         0.0000 
     58 H58        -4.9605   51.9358   23.6825 H         1 UNK         0.0000 
     59 H59        -3.2445   52.0895   23.4161 H         1 UNK         0.0000 
     60 H60        -3.8497   49.6924   23.8051 H         1 UNK         0.0000 
     61 H61        -4.7578   48.9814   26.0248 H         1 UNK         0.0000 
     62 H62        -5.8681   50.0710   25.2361 H         1 UNK         0.0000 
     63 H63        -1.6148   50.4441   24.5854 H         1 UNK         0.0000 
     64 H64        -2.2364   49.2099   25.6439 H         1 UNK         0.0000 
     65 O65         5.9038   56.0624   25.2809 O.co2     1 UNK         0.0000 
@<TRIPOS>BOND
     1    1    2 1    
     2    1   36 1    
     3    1   37 1    
     4    1   38 1    
     5    2    7 ar   
     6    2    3 ar   
     7    3    4 ar   
     8    3   39 1    
     9    4    5 ar   
    10    4   40 1    
    11    5    6 ar   
    12    5    8 1    
    13    6    7 ar   
    14    6   41 1    
    15    7   42 1    
    16    8   12 ar   
    17    8    9 ar   
    18    9   10 ar   
    19   10   11 ar   
    20   11   12 ar   
    21   11   16 1    
    22   12   13 1    
    23   13   14 1    
    24   13   43 1    
    25   13   44 1    
    26   14   15 2    
    27   14   65 1    
    28   16   17 1    
    29   17   18 1    
    30   17   19 1    
    31   17   20 1    
    32   19   45 1    
    33   19   46 1    
    34   19   47 1    
    35   20   21 2    
    36   20   22 am   BACKBONE|DICT|INTERRES
    37   22   23 am   BACKBONE|DICT|INTERRES
    38   22   48 1    
    39   23   24 2    
    40   23   25 am   BACKBONE|DICT|INTERRES
    41   25   26 1    
    42   25   49 1    
    43   26   31 1    
    44   26   35 1    
    45   26   27 1    
    46   27   28 1    
    47   27   50 1    
    48   27   51 1    
    49   28   34 1    
    50   28   29 1    
    51   28   52 1    
    52   29   30 1    
    53   29   53 1    
    54   29   54 1    
    55   30   31 1    
    56   30   32 1    
    57   30   55 1    
    58   31   56 1    
    59   31   57 1    
    60   32   33 1    
    61   32   58 1    
    62   32   59 1    
    63   33   34 1    
    64   33   35 1    
    65   33   60 1    
    66   34   61 1    
    67   34   62 1    
    68   35   63 1    
    69   35   64 1    
@<TRIPOS>SUBSTRUCTURE
     1 UNK         1 GROUP             0       ****    0 ROOT    
