@<TRIPOS>MOLECULE
ZINC36596764_4643
63   66    1
SMALL
USER_CHARGES


@<TRIPOS>ATOM
      1 C1          3.4994   53.6928   22.0071 C.3       1 UNK         0.0000 
      2 C2          2.6172   53.5173   23.2176 C.2       1 UNK         0.0000 
      3 C3          2.7948   53.7241   24.5748 C.2       1 UNK         0.0000 
      4 C4          1.6040   53.3525   25.1965 C.2       1 UNK         0.0000 
      5 C5          0.7440   52.9155   24.2017 C.2       1 UNK         0.0000 
      6 O6          1.3624   53.0453   22.9981 O.3       1 UNK         0.0000 
      7 C7         -0.6841   52.3998   24.1863 C.3       1 UNK         0.0000 
      8 N8         -0.7883   50.9348   24.3897 N.am      1 UNK         0.0000 
      9 C9         -1.3007   50.4688   25.7182 C.3       1 UNK         0.0000 
     10 H10        -1.0878   49.3988   25.7863 H         1 UNK         0.0000 
     11 C11        -0.5405   51.1209   26.8644 C.ar      1 UNK         0.0000 
     12 C12         0.7640   50.6790   27.0857 C.ar      1 UNK         0.0000 
     13 C13         1.5806   51.2332   28.0848 C.ar      1 UNK         0.0000 
     14 C14         1.0314   52.1979   28.9056 C.ar      1 UNK         0.0000 
     15 C15        -0.2461   52.6301   28.7227 C.ar      1 UNK         0.0000 
     16 C16        -1.0613   52.1197   27.7063 C.ar      1 UNK         0.0000 
     17 O17        -0.4932   53.6107   29.6317 O.3       1 UNK         0.0000 
     18 C18         0.5521   53.5438   30.5594 C.3       1 UNK         0.0000 
     19 O19         1.6082   52.8656   29.9399 O.3       1 UNK         0.0000 
     20 C20        -2.8428   50.4898   25.8733 C.2       1 UNK         0.0000 
     21 O21        -3.5567   51.0127   25.0158 O.2       1 UNK         0.0000 
     22 N22        -3.2980   49.9099   26.9997 N.am      1 UNK         0.0000 
     23 C23        -4.6757   49.7853   27.4848 C.3       1 UNK         0.0000 
     24 C24        -5.4851   48.8250   26.5844 C.3       1 UNK         0.0000 
     25 C25        -5.3833   51.1619   27.5696 C.3       1 UNK         0.0000 
     26 C26        -4.6009   49.1951   28.9106 C.3       1 UNK         0.0000 
     27 C27        -0.7629   50.0605   23.3374 C.2       1 UNK         0.0000 
     28 O28        -1.1412   48.8893   23.4154 O.2       1 UNK         0.0000 
     29 C29        -0.1825   50.5223   22.0235 C.ar      1 UNK         0.0000 
     30 C30        -1.0241   51.1437   21.0928 C.ar      1 UNK         0.0000 
     31 C31        -0.5400   51.5785   19.8506 C.ar      1 UNK         0.0000 
     32 C32         0.8088   51.3603   19.5413 C.ar      1 UNK         0.0000 
     33 C33         1.6519   50.7298   20.4521 C.ar      1 UNK         0.0000 
     34 C34         1.1708   50.3102   21.6914 C.ar      1 UNK         0.0000 
     35 O35         1.9994   49.7543   22.4811 O.co2     1 UNK         0.0000 
     36 N36        -1.4355   52.2547   18.8842 N.pl3     1 UNK         0.0000 
     37 O37        -2.5908   52.4900   19.2280 O.co2     1 UNK         0.0000 
     38 O38        -0.9899   52.5832   17.7895 O.co2     1 UNK         0.0000 
     39 H39         4.5044   54.0064   22.2834 H         1 UNK         0.0000 
     40 H40         3.5960   52.7622   21.4483 H         1 UNK         0.0000 
     41 H41         3.1054   54.4412   21.3216 H         1 UNK         0.0000 
     42 H42         3.6865   54.0966   25.0571 H         1 UNK         0.0000 
     43 H43         1.3941   53.3953   26.2540 H         1 UNK         0.0000 
     44 H44        -1.1584   52.6804   23.2463 H         1 UNK         0.0000 
     45 H45        -1.2920   52.9039   24.9376 H         1 UNK         0.0000 
     46 H46         1.1202   49.8763   26.4587 H         1 UNK         0.0000 
     47 H47         2.5937   50.8990   28.2271 H         1 UNK         0.0000 
     48 H48        -2.0657   52.4790   27.5559 H         1 UNK         0.0000 
     49 H49         0.8507   54.5433   30.8758 H         1 UNK         0.0000 
     50 H50         0.2191   52.9818   31.4372 H         1 UNK         0.0000 
     51 H51        -2.6056   49.4404   27.5876 H         1 UNK         0.0000 
     52 H52        -5.0204   47.8378   26.5377 H         1 UNK         0.0000 
     53 H53        -6.5001   48.6902   26.9579 H         1 UNK         0.0000 
     54 H54        -5.5594   49.1989   25.5602 H         1 UNK         0.0000 
     55 H55        -4.8104   51.8697   28.1709 H         1 UNK         0.0000 
     56 H56        -5.5242   51.6083   26.5836 H         1 UNK         0.0000 
     57 H57        -6.3722   51.0741   28.0205 H         1 UNK         0.0000 
     58 H58        -4.0541   49.8560   29.5891 H         1 UNK         0.0000 
     59 H59        -5.5901   49.0363   29.3381 H         1 UNK         0.0000 
     60 H60        -4.0853   48.2309   28.9263 H         1 UNK         0.0000 
     61 H61        -2.0659   51.2925   21.3439 H         1 UNK         0.0000 
     62 H62         1.2156   51.6797   18.5922 H         1 UNK         0.0000 
     63 H63         2.6879   50.5703   20.1895 H         1 UNK         0.0000 
@<TRIPOS>BOND
     1    1    2 1    
     2    1   39 1    
     3    1   40 1    
     4    1   41 1    
     5    2    6 1    
     6    2    3 2    
     7    3    4 1    
     8    3   42 1    
     9    4    5 2    
    10    4   43 1    
    11    5    6 1    
    12    5    7 1    
    13    7    8 1    
    14    7   44 1    
    15    7   45 1    
    16    8    9 1    
    17    8   27 am   BACKBONE|DICT|INTERRES
    18    9   10 1    
    19    9   11 1    
    20    9   20 1    
    21   11   16 ar   
    22   11   12 ar   
    23   12   13 ar   
    24   12   46 1    
    25   13   14 ar   
    26   13   47 1    
    27   14   19 1    
    28   14   15 ar   
    29   15   16 ar   
    30   15   17 1    
    31   16   48 1    
    32   17   18 1    
    33   18   19 1    
    34   18   49 1    
    35   18   50 1    
    36   20   21 2    
    37   20   22 am   BACKBONE|DICT|INTERRES
    38   22   23 1    
    39   22   51 1    
    40   23   24 1    
    41   23   25 1    
    42   23   26 1    
    43   24   52 1    
    44   24   53 1    
    45   24   54 1    
    46   25   55 1    
    47   25   56 1    
    48   25   57 1    
    49   26   58 1    
    50   26   59 1    
    51   26   60 1    
    52   27   28 2    
    53   27   29 1    
    54   29   34 ar   
    55   29   30 ar   
    56   30   31 ar   
    57   30   61 1    
    58   31   32 ar   
    59   31   36 1    
    60   32   33 ar   
    61   32   62 1    
    62   33   34 ar   
    63   33   63 1    
    64   34   35 1    
    65   36   37 2    
    66   36   38 1    
@<TRIPOS>SUBSTRUCTURE
     1 UNK         1 GROUP             0       ****    0 ROOT    
