@<TRIPOS>MOLECULE
ZINC64623137_1210
60   64    1
SMALL
USER_CHARGES


@<TRIPOS>ATOM
      1 C1         -6.2776   53.5885   25.0086 C.3       1 UNK         0.0000 
      2 O2         -5.5953   52.9259   26.0703 O.3       1 UNK         0.0000 
      3 C3         -4.3224   52.4354   25.8508 C.ar      1 UNK         0.0000 
      4 C4         -3.5901   52.6447   24.6748 C.ar      1 UNK         0.0000 
      5 C5         -2.3107   52.1157   24.5408 C.ar      1 UNK         0.0000 
      6 C6         -1.7398   51.3573   25.5702 C.ar      1 UNK         0.0000 
      7 C7         -2.4658   51.1689   26.7511 C.ar      1 UNK         0.0000 
      8 C8         -3.7477   51.6960   26.8830 C.ar      1 UNK         0.0000 
      9 C9         -0.3019   50.8026   25.4830 C.3       1 UNK         0.0000 
     10 H10         0.0782   50.8933   26.5011 H         1 UNK         0.0000 
     11 C11        -0.2431   49.2592   25.2041 C.3       1 UNK         0.0000 
     12 H12         0.6591   48.8391   25.6549 H         1 UNK         0.0000 
     13 C13        -0.2831   48.9413   23.7369 C.2       1 UNK         0.0000 
     14 C14        -1.3141   48.1248   23.4731 C.2       1 UNK         0.0000 
     15 C15        -1.8148   47.5457   22.2202 C.2       1 UNK         0.0000 
     16 C16        -2.9045   46.7498   22.2141 C.2       1 UNK         0.0000 
     17 C17        -3.5574   46.4937   23.4940 C.2       1 UNK         0.0000 
     18 C18        -3.0926   47.0025   24.6660 C.2       1 UNK         0.0000 
     19 C19        -1.9650   47.8296   24.6737 C.2       1 UNK         0.0000 
     20 N20        -1.3667   48.4258   25.6817 N.pl3     1 UNK         0.0000 
     21 Cl21       -3.5102   46.0308   20.7195 Cl        1 UNK         0.0000 
     22 C22         0.7837   49.6151   22.9141 C.3       1 UNK         0.0000 
     23 C23         0.6380   51.1406   23.0870 C.3       1 UNK         0.0000 
     24 N24         0.6253   51.5114   24.5353 N.am      1 UNK         0.0000 
     25 C25         1.2365   52.6843   24.8821 C.2       1 UNK         0.0000 
     26 O26         1.7011   53.4631   24.0448 O.2       1 UNK         0.0000 
     27 N27         1.3877   52.8921   26.2125 N.am      1 UNK         0.0000 
     28 C28         2.4697   53.5029   26.8710 C.ar      1 UNK         0.0000 
     29 C29         2.3569   53.7073   28.2480 C.ar      1 UNK         0.0000 
     30 C30         3.4380   54.2065   28.9747 C.ar      1 UNK         0.0000 
     31 C31         4.6427   54.4961   28.3343 C.ar      1 UNK         0.0000 
     32 C32         4.7739   54.3113   26.9509 C.ar      1 UNK         0.0000 
     33 C33         3.6782   53.8146   26.2326 C.ar      1 UNK         0.0000 
     34 C34         6.0707   54.6106   26.2692 C.2       1 UNK         0.0000 
     35 O35         7.1035   54.8953   26.8761 O.2       1 UNK         0.0000 
     36 O36         5.9780   54.5793   24.9161 O.3       1 UNK         0.0000 
     37 C37         7.1044   54.8317   24.0954 C.3       1 UNK         0.0000 
     38 H38        -7.2708   53.8836   25.3469 H         1 UNK         0.0000 
     39 H39        -5.7560   54.4934   24.6930 H         1 UNK         0.0000 
     40 H40        -6.4064   52.9319   24.1462 H         1 UNK         0.0000 
     41 H41        -3.9924   53.2234   23.8589 H         1 UNK         0.0000 
     42 H42        -1.7768   52.3230   23.6306 H         1 UNK         0.0000 
     43 H43        -2.0440   50.6027   27.5708 H         1 UNK         0.0000 
     44 H44        -4.3007   51.5302   27.7955 H         1 UNK         0.0000 
     45 H45        -1.3230   47.7398   21.2776 H         1 UNK         0.0000 
     46 H46        -4.4518   45.8868   23.5058 H         1 UNK         0.0000 
     47 H47        -3.6227   46.7881   25.5839 H         1 UNK         0.0000 
     48 H48         1.7761   49.2962   23.2396 H         1 UNK         0.0000 
     49 H49         0.7112   49.3503   21.8589 H         1 UNK         0.0000 
     50 H50         1.5075   51.5628   22.5775 H         1 UNK         0.0000 
     51 H51        -0.2653   51.4761   22.5820 H         1 UNK         0.0000 
     52 H52         0.7793   52.3693   26.8227 H         1 UNK         0.0000 
     53 H53         1.4394   53.4649   28.7652 H         1 UNK         0.0000 
     54 H54         3.3481   54.3577   30.0388 H         1 UNK         0.0000 
     55 H55         5.4705   54.8733   28.9218 H         1 UNK         0.0000 
     56 H56         3.7877   53.6226   25.1765 H         1 UNK         0.0000 
     57 H57         6.8218   54.7674   23.0447 H         1 UNK         0.0000 
     58 H58         7.5044   55.8298   24.2779 H         1 UNK         0.0000 
     59 H59         7.8859   54.0944   24.2804 H         1 UNK         0.0000 
     60 H60        -1.6233   48.3540   26.6756 H         1 UNK         0.0000 
@<TRIPOS>BOND
     1    1    2 1    
     2    1   38 1    
     3    1   39 1    
     4    1   40 1    
     5    2    3 1    
     6    3    8 ar   
     7    3    4 ar   
     8    4    5 ar   
     9    4   41 1    
    10    5    6 ar   
    11    5   42 1    
    12    6    7 ar   
    13    6    9 1    
    14    7    8 ar   
    15    7   43 1    
    16    8   44 1    
    17    9   10 1    
    18    9   24 1    
    19    9   11 1    
    20   11   12 1    
    21   11   20 1    
    22   11   13 1    
    23   13   14 2    
    24   13   22 1    
    25   14   19 1    
    26   14   15 1    
    27   15   16 2    
    28   15   45 1    
    29   16   17 1    
    30   16   21 1    
    31   17   18 2    
    32   17   46 1    
    33   18   19 1    
    34   18   47 1    
    35   19   20 2    
    36   20   60 1    
    37   22   23 1    
    38   22   48 1    
    39   22   49 1    
    40   23   24 1    
    41   23   50 1    
    42   23   51 1    
    43   24   25 am   BACKBONE|DICT|INTERRES
    44   25   26 2    
    45   25   27 am   BACKBONE|DICT|INTERRES
    46   27   28 1    
    47   27   52 1    
    48   28   33 ar   
    49   28   29 ar   
    50   29   30 ar   
    51   29   53 1    
    52   30   31 ar   
    53   30   54 1    
    54   31   32 ar   
    55   31   55 1    
    56   32   33 ar   
    57   32   34 1    
    58   33   56 1    
    59   34   35 2    
    60   34   36 1    
    61   36   37 1    
    62   37   57 1    
    63   37   58 1    
    64   37   59 1    
@<TRIPOS>SUBSTRUCTURE
     1 UNK         1 GROUP             0       ****    0 ROOT    
