@<TRIPOS>MOLECULE
ZINC00669049_4261
56   59    1
SMALL
USER_CHARGES


@<TRIPOS>ATOM
      1 C1          0.1507   54.0792   30.8558 C.3       1 UNK         0.0000 
      2 C2          0.8257   52.7472   30.4437 C.3       1 UNK         0.0000 
      3 C3          1.3828   52.0973   31.7355 C.3       1 UNK         0.0000 
      4 C4         -0.2667   51.8130   29.8549 C.3       1 UNK         0.0000 
      5 C5          1.9859   52.9510   29.4001 C.3       1 UNK         0.0000 
      6 H6          2.4292   51.9625   29.2566 H         1 UNK         0.0000 
      7 C7          3.0980   53.9148   29.8855 C.3       1 UNK         0.0000 
      8 C8          4.3649   53.8593   29.0218 C.3       1 UNK         0.0000 
      9 C9          4.0097   53.8766   27.5302 C.2       1 UNK         0.0000 
     10 C10         2.6909   53.6543   27.1022 C.2       1 UNK         0.0000 
     11 S11         2.5371   53.6967   25.3854 S.3       1 UNK         0.0000 
     12 C12         4.2242   54.0951   25.2088 C.2       1 UNK         0.0000 
     13 C13         4.8954   54.1507   26.4469 C.2       1 UNK         0.0000 
     14 C14         6.3042   54.5139   26.5662 C.2       1 UNK         0.0000 
     15 O15         6.8987   55.1562   25.7018 O.2       1 UNK         0.0000 
     16 N16         6.9431   54.0941   27.6560 N.am      1 UNK         0.0000 
     17 N17         4.8260   54.2774   23.9673 N.am      1 UNK         0.0000 
     18 C18         4.3258   54.0957   22.7294 C.2       1 UNK         0.0000 
     19 O19         3.1825   53.7258   22.4611 O.2       1 UNK         0.0000 
     20 C20         5.3185   54.3946   21.7277 C.2       1 UNK         0.0000 
     21 C21         5.1307   54.1907   20.4075 C.2       1 UNK         0.0000 
     22 C22         6.1501   54.4847   19.3831 C.ar      1 UNK         0.0000 
     23 C23         6.1914   53.6988   18.2133 C.ar      1 UNK         0.0000 
     24 C24         7.2012   53.8761   17.2565 C.ar      1 UNK         0.0000 
     25 C25         8.1614   54.8496   17.5081 C.ar      1 UNK         0.0000 
     26 C26         8.1208   55.6260   18.6304 C.ar      1 UNK         0.0000 
     27 C27         7.1277   55.4776   19.5882 C.ar      1 UNK         0.0000 
     28 O28         9.1513   56.5092   18.6084 O.3       1 UNK         0.0000 
     29 C29         9.9840   56.0721   17.5684 C.3       1 UNK         0.0000 
     30 O30         9.2292   55.2155   16.7515 O.3       1 UNK         0.0000 
     31 C31         1.4889   53.4406   28.0129 C.3       1 UNK         0.0000 
     32 H32        -0.4957   53.9246   31.7181 H         1 UNK         0.0000 
     33 H33        -0.4592   54.4966   30.0553 H         1 UNK         0.0000 
     34 H34         0.8627   54.8436   31.1607 H         1 UNK         0.0000 
     35 H35         2.0866   51.2968   31.5304 H         1 UNK         0.0000 
     36 H36         1.9040   52.8181   32.3573 H         1 UNK         0.0000 
     37 H37         0.5923   51.6910   32.3650 H         1 UNK         0.0000 
     38 H38         0.1637   50.9437   29.3550 H         1 UNK         0.0000 
     39 H39        -0.9501   51.4450   30.6224 H         1 UNK         0.0000 
     40 H40        -0.8837   52.3221   29.1142 H         1 UNK         0.0000 
     41 H41         2.7259   54.9349   29.9882 H         1 UNK         0.0000 
     42 H42         3.4182   53.6207   30.8813 H         1 UNK         0.0000 
     43 H43         5.0038   54.7002   29.2956 H         1 UNK         0.0000 
     44 H44         4.9191   52.9487   29.2536 H         1 UNK         0.0000 
     45 H45         6.4590   53.5467   28.3493 H         1 UNK         0.0000 
     46 H46         7.9035   54.3564   27.8079 H         1 UNK         0.0000 
     47 H47         5.7965   54.5549   24.0263 H         1 UNK         0.0000 
     48 H48         6.2613   54.7865   22.0842 H         1 UNK         0.0000 
     49 H49         4.1883   53.7969   20.0468 H         1 UNK         0.0000 
     50 H50         5.4576   52.9193   18.0548 H         1 UNK         0.0000 
     51 H51         7.2324   53.2612   16.3692 H         1 UNK         0.0000 
     52 H52         7.1236   56.0998   20.4694 H         1 UNK         0.0000 
     53 H53        10.8248   55.5195   17.9950 H         1 UNK         0.0000 
     54 H54        10.3702   56.9170   16.9982 H         1 UNK         0.0000 
     55 H55         0.8059   52.7220   27.5598 H         1 UNK         0.0000 
     56 H56         0.9398   54.3774   28.1113 H         1 UNK         0.0000 
@<TRIPOS>BOND
     1    1    2 1    
     2    1   32 1    
     3    1   33 1    
     4    1   34 1    
     5    2    3 1    
     6    2    4 1    
     7    2    5 1    
     8    3   35 1    
     9    3   36 1    
    10    3   37 1    
    11    4   38 1    
    12    4   39 1    
    13    4   40 1    
    14    5    6 1    
    15    5   31 1    
    16    5    7 1    
    17    7    8 1    
    18    7   41 1    
    19    7   42 1    
    20    8    9 1    
    21    8   43 1    
    22    8   44 1    
    23    9   13 1    
    24    9   10 2    
    25   10   11 1    
    26   10   31 1    
    27   11   12 1    
    28   12   13 2    
    29   12   17 am   BACKBONE|DICT|INTERRES
    30   13   14 1    
    31   14   15 2    
    32   14   16 am   BACKBONE|DICT|INTERRES
    33   16   45 1    
    34   16   46 1    
    35   17   18 am   BACKBONE|DICT|INTERRES
    36   17   47 1    
    37   18   19 2    
    38   18   20 1    
    39   20   21 2    
    40   20   48 1    
    41   21   22 1    
    42   21   49 1    
    43   22   27 ar   
    44   22   23 ar   
    45   23   24 ar   
    46   23   50 1    
    47   24   25 ar   
    48   24   51 1    
    49   25   30 1    
    50   25   26 ar   
    51   26   27 ar   
    52   26   28 1    
    53   27   52 1    
    54   28   29 1    
    55   29   30 1    
    56   29   53 1    
    57   29   54 1    
    58   31   55 1    
    59   31   56 1    
@<TRIPOS>SUBSTRUCTURE
     1 UNK         1 GROUP             0       ****    0 ROOT    
