@<TRIPOS>MOLECULE
ZINC48289567_748
55   59    1
SMALL
USER_CHARGES


@<TRIPOS>ATOM
      1 C1          5.6068   54.4930   23.7514 C.ar      1 UNK         0.0000 
      2 C2          4.4581   54.0623   24.4157 C.ar      1 UNK         0.0000 
      3 C3          4.3254   54.2213   25.8089 C.ar      1 UNK         0.0000 
      4 C4          5.3755   54.8952   26.4561 C.ar      1 UNK         0.0000 
      5 N5          6.5061   55.3121   25.8309 N.ar      1 UNK         0.0000 
      6 C6          6.6085   55.1076   24.4963 C.ar      1 UNK         0.0000 
      7 C7          3.1047   53.7040   26.4985 C.ar      1 UNK         0.0000 
      8 N8          2.0735   53.3447   25.8714 N.2       1 UNK         0.0000 
      9 N9          1.1598   53.0463   26.7768 N.pl3     1 UNK         0.0000 
     10 C10         1.6069   53.2181   28.0487 C.ar      1 UNK         0.0000 
     11 S11         0.7472   53.0430   29.4791 S.2       1 UNK         0.0000 
     12 N12         2.9252   53.5364   27.8436 N.pl3     1 UNK         0.0000 
     13 C13         3.9280   53.6520   28.9182 C.3       1 UNK         0.0000 
     14 C14         4.1931   52.4519   29.8168 C.3       1 UNK         0.0000 
     15 C15         5.2401   52.8963   28.8314 C.3       1 UNK         0.0000 
     16 C16        -0.1859   52.7288   26.3042 C.3       1 UNK         0.0000 
     17 N17        -0.3319   51.2169   26.0379 N.4       1 UNK         0.0000 
     18 C18        -0.8920   50.7406   24.6772 C.3       1 UNK         0.0000 
     19 C19        -2.1570   51.5697   24.2755 C.3       1 UNK         0.0000 
     20 C20        -3.3760   51.3648   25.1963 C.3       1 UNK         0.0000 
     21 O21        -3.6730   49.9779   25.3101 O.3       1 UNK         0.0000 
     22 C22        -2.6168   49.2041   25.8685 C.3       1 UNK         0.0000 
     23 C23        -1.3601   49.2826   24.9658 C.3       1 UNK         0.0000 
     24 C24         0.2668   50.8601   23.6560 C.ar      1 UNK         0.0000 
     25 C25         1.0932   49.7617   23.3677 C.ar      1 UNK         0.0000 
     26 C26         2.1597   49.8845   22.4818 C.ar      1 UNK         0.0000 
     27 C27         2.4237   51.1110   21.8824 C.ar      1 UNK         0.0000 
     28 C28         1.6058   52.2077   22.1336 C.ar      1 UNK         0.0000 
     29 C29         0.5332   52.0815   23.0119 C.ar      1 UNK         0.0000 
     30 Br30        3.9389   51.2975   20.7470 Br        1 UNK         0.0000 
     31 H31         5.7139   54.3529   22.6857 H         1 UNK         0.0000 
     32 H32         3.6864   53.5748   23.8375 H         1 UNK         0.0000 
     33 H33         5.3504   55.1459   27.5035 H         1 UNK         0.0000 
     34 H34         7.5089   55.4637   24.0172 H         1 UNK         0.0000 
     35 H35         3.9382   54.6409   29.3798 H         1 UNK         0.0000 
     36 H36         4.3059   52.6396   30.8848 H         1 UNK         0.0000 
     37 H37         3.6565   51.5224   29.6230 H         1 UNK         0.0000 
     38 H38         5.4342   52.2951   27.9436 H         1 UNK         0.0000 
     39 H39         6.1373   53.4195   29.1624 H         1 UNK         0.0000 
     40 H40        -0.3765   53.2884   25.3849 H         1 UNK         0.0000 
     41 H41        -0.9631   52.9665   27.0313 H         1 UNK         0.0000 
     42 H42        -0.8892   50.8051   26.7747 H         1 UNK         0.0000 
     43 H43        -1.9676   52.6366   24.1886 H         1 UNK         0.0000 
     44 H44        -2.4544   51.2605   23.2719 H         1 UNK         0.0000 
     45 H45        -3.1793   51.7881   26.1828 H         1 UNK         0.0000 
     46 H46        -4.2491   51.8836   24.7988 H         1 UNK         0.0000 
     47 H47        -2.4012   49.5916   26.8674 H         1 UNK         0.0000 
     48 H48        -2.9484   48.1727   25.9960 H         1 UNK         0.0000 
     49 H49        -1.5954   48.7881   24.0222 H         1 UNK         0.0000 
     50 H50        -0.5726   48.6859   25.4307 H         1 UNK         0.0000 
     51 H51         0.9410   48.7994   23.8331 H         1 UNK         0.0000 
     52 H52         2.7950   49.0330   22.2843 H         1 UNK         0.0000 
     53 H53         1.8127   53.1575   21.6603 H         1 UNK         0.0000 
     54 H54        -0.0636   52.9605   23.1970 H         1 UNK         0.0000 
     55 H55         0.5823   50.7950   26.1250 H         1 UNK         0.0000 
@<TRIPOS>BOND
     1    1    6 ar   
     2    1    2 ar   
     3    1   31 1    
     4    2    3 ar   
     5    2   32 1    
     6    3    4 ar   
     7    3    7 1    
     8    4    5 ar   
     9    4   33 1    
    10    5    6 ar   
    11    6   34 1    
    12    7   12 ar   
    13    7    8 ar   
    14    8    9 ar   
    15    9   10 ar   
    16    9   16 1    
    17   10   11 2    
    18   10   12 ar   
    19   12   13 1    
    20   13   15 1    
    21   13   14 1    
    22   13   35 1    
    23   14   15 1    
    24   14   36 1    
    25   14   37 1    
    26   15   38 1    
    27   15   39 1    
    28   16   17 1    
    29   16   40 1    
    30   16   41 1    
    31   17   18 1    
    32   17   42 1    
    33   17   55 1    
    34   18   23 1    
    35   18   19 1    
    36   18   24 1    
    37   19   20 1    
    38   19   43 1    
    39   19   44 1    
    40   20   21 1    
    41   20   45 1    
    42   20   46 1    
    43   21   22 1    
    44   22   23 1    
    45   22   47 1    
    46   22   48 1    
    47   23   49 1    
    48   23   50 1    
    49   24   29 ar   
    50   24   25 ar   
    51   25   26 ar   
    52   25   51 1    
    53   26   27 ar   
    54   26   52 1    
    55   27   28 ar   
    56   27   30 1    
    57   28   29 ar   
    58   28   53 1    
    59   29   54 1    
@<TRIPOS>SUBSTRUCTURE
     1 UNK         1 GROUP             0       ****    0 ROOT    
