@<TRIPOS>MOLECULE
ZINC63531329_6074
62   65    1
SMALL
USER_CHARGES


@<TRIPOS>ATOM
      1 C1         -1.4467   47.5577   25.0172 C.3       1 UNK         0.0000 
      2 C2         -1.0432   48.9815   24.6818 C.ar      1 UNK         0.0000 
      3 C3          0.3050   49.2968   24.5108 C.ar      1 UNK         0.0000 
      4 C4          0.6825   50.6045   24.2179 C.ar      1 UNK         0.0000 
      5 C5         -0.2925   51.5995   24.1176 C.ar      1 UNK         0.0000 
      6 C6         -1.6443   51.2795   24.2468 C.ar      1 UNK         0.0000 
      7 C7         -2.0191   49.9692   24.5332 C.ar      1 UNK         0.0000 
      8 S8          0.1679   53.2898   23.8641 S.3       1 UNK         0.0000 
      9 C9          1.5038   53.4869   25.0409 C.2       1 UNK         0.0000 
     10 C10         1.5068   53.1566   26.3473 C.2       1 UNK         0.0000 
     11 C11         0.4990   52.4964   27.1890 C.2       1 UNK         0.0000 
     12 C12         0.7057   52.3241   28.5069 C.2       1 UNK         0.0000 
     13 C13         1.9676   52.7892   29.0950 C.2       1 UNK         0.0000 
     14 C14         2.9176   53.3645   28.3031 C.2       1 UNK         0.0000 
     15 C15         2.7034   53.5756   26.9318 C.2       1 UNK         0.0000 
     16 N16         3.4777   54.1498   26.0343 N.pl3     1 UNK         0.0000 
     17 C17         2.7767   54.2509   24.7231 C.3       1 UNK         0.0000 
     18 H18         2.5979   55.2968   24.4818 H         1 UNK         0.0000 
     19 C19         3.6226   53.6966   23.5640 C.2       1 UNK         0.0000 
     20 O20         3.1365   52.8975   22.7607 O.2       1 UNK         0.0000 
     21 N21         4.8978   54.1124   23.4899 N.am      1 UNK         0.0000 
     22 C22         5.8598   53.6828   22.4800 C.3       1 UNK         0.0000 
     23 C23         5.9050   54.6026   21.2695 C.ar      1 UNK         0.0000 
     24 C24         6.9855   55.4724   21.1019 C.ar      1 UNK         0.0000 
     25 C25         7.0767   56.2485   19.9512 C.ar      1 UNK         0.0000 
     26 C26         6.0890   56.1852   18.9708 C.ar      1 UNK         0.0000 
     27 C27         5.0181   55.2925   19.1338 C.ar      1 UNK         0.0000 
     28 C28         4.9347   54.4965   20.2724 C.ar      1 UNK         0.0000 
     29 O29         6.2526   57.0324   17.8918 O.3       1 UNK         0.0000 
     30 C30         5.2528   57.1252   16.8771 C.3       1 UNK         0.0000 
     31 C31         5.4287   58.4953   16.2118 C.3       1 UNK         0.0000 
     32 C32         5.4128   55.9752   15.8675 C.3       1 UNK         0.0000 
     33 O33         2.2366   52.7258   30.4304 O.3       1 UNK         0.0000 
     34 C34         1.1445   52.5887   31.3423 C.3       1 UNK         0.0000 
     35 H35        -0.8404   46.8472   24.4537 H         1 UNK         0.0000 
     36 H36        -1.2967   47.3620   26.0816 H         1 UNK         0.0000 
     37 H37        -2.4897   47.3652   24.7591 H         1 UNK         0.0000 
     38 H38         1.0626   48.5344   24.6177 H         1 UNK         0.0000 
     39 H39         1.7279   50.8431   24.0857 H         1 UNK         0.0000 
     40 H40        -2.3989   52.0467   24.1588 H         1 UNK         0.0000 
     41 H41        -3.0651   49.7273   24.6594 H         1 UNK         0.0000 
     42 H42        -0.4308   52.1286   26.7784 H         1 UNK         0.0000 
     43 H43        -0.0474   51.8158   29.0907 H         1 UNK         0.0000 
     44 H44         3.8301   53.7023   28.7703 H         1 UNK         0.0000 
     45 H45         5.2063   54.8474   24.1058 H         1 UNK         0.0000 
     46 H46         5.6386   52.6698   22.1322 H         1 UNK         0.0000 
     47 H47         6.8461   53.6246   22.9452 H         1 UNK         0.0000 
     48 H48         7.7667   55.5331   21.8458 H         1 UNK         0.0000 
     49 H49         7.9272   56.8966   19.8043 H         1 UNK         0.0000 
     50 H50         4.2410   55.1968   18.3918 H         1 UNK         0.0000 
     51 H51         4.1070   53.8074   20.3769 H         1 UNK         0.0000 
     52 H52         4.2503   57.1123   17.3104 H         1 UNK         0.0000 
     53 H53         4.6913   58.6589   15.4250 H         1 UNK         0.0000 
     54 H54         6.4214   58.5984   15.7711 H         1 UNK         0.0000 
     55 H55         5.3097   59.2967   16.9414 H         1 UNK         0.0000 
     56 H56         4.6666   56.0418   15.0741 H         1 UNK         0.0000 
     57 H57         6.3971   55.9985   15.4007 H         1 UNK         0.0000 
     58 H58         5.3001   55.0002   16.3391 H         1 UNK         0.0000 
     59 H59         1.5257   52.5197   32.3613 H         1 UNK         0.0000 
     60 H60         0.4847   53.4569   31.2987 H         1 UNK         0.0000 
     61 H61         0.5446   51.6968   31.1757 H         1 UNK         0.0000 
     62 H62         4.4037   54.5248   26.2207 H         1 UNK         0.0000 
@<TRIPOS>BOND
     1    1    2 1    
     2    1   35 1    
     3    1   36 1    
     4    1   37 1    
     5    2    7 ar   
     6    2    3 ar   
     7    3    4 ar   
     8    3   38 1    
     9    4    5 ar   
    10    4   39 1    
    11    5    6 ar   
    12    5    8 1    
    13    6    7 ar   
    14    6   40 1    
    15    7   41 1    
    16    8    9 1    
    17    9   17 1    
    18    9   10 2    
    19   10   15 1    
    20   10   11 1    
    21   11   12 2    
    22   11   42 1    
    23   12   13 1    
    24   12   43 1    
    25   13   14 2    
    26   13   33 1    
    27   14   15 1    
    28   14   44 1    
    29   15   16 2    
    30   16   17 1    
    31   16   62 1    
    32   17   18 1    
    33   17   19 1    
    34   19   20 2    
    35   19   21 am   BACKBONE|DICT|INTERRES
    36   21   22 1    
    37   21   45 1    
    38   22   23 1    
    39   22   46 1    
    40   22   47 1    
    41   23   28 ar   
    42   23   24 ar   
    43   24   25 ar   
    44   24   48 1    
    45   25   26 ar   
    46   25   49 1    
    47   26   27 ar   
    48   26   29 1    
    49   27   28 ar   
    50   27   50 1    
    51   28   51 1    
    52   29   30 1    
    53   30   31 1    
    54   30   32 1    
    55   30   52 1    
    56   31   53 1    
    57   31   54 1    
    58   31   55 1    
    59   32   56 1    
    60   32   57 1    
    61   32   58 1    
    62   33   34 1    
    63   34   59 1    
    64   34   60 1    
    65   34   61 1    
@<TRIPOS>SUBSTRUCTURE
     1 UNK         1 GROUP             0       ****    0 ROOT    
