@<TRIPOS>MOLECULE
ZINC54278072_1384
53   57    1
SMALL
USER_CHARGES


@<TRIPOS>ATOM
      1 C1         -2.8863   46.0965   26.2491 C.2       1 UNK         0.0000 
      2 C2         -2.4621   46.9858   25.3386 C.2       1 UNK         0.0000 
      3 C3         -2.9658   47.0462   23.9734 C.2       1 UNK         0.0000 
      4 C4         -2.5836   47.9947   23.0965 C.2       1 UNK         0.0000 
      5 O5         -3.0564   48.0705   21.9026 O.co2     1 UNK         0.0000 
      6 N6         -1.6593   49.0070   23.4746 N.pl3     1 UNK         0.0000 
      7 C7         -1.1623   49.0750   24.8333 C.2       1 UNK         0.0000 
      8 N8         -1.5441   47.9892   25.6817 N.pl3     1 UNK         0.0000 
      9 N9         -0.4607   50.0522   25.2706 N.2       1 UNK         0.0000 
     10 C10        -0.2097   51.1204   24.4933 C.cat     1 UNK         0.0000 
     11 N11        -0.6810   51.2270   23.2412 N.pl3     1 UNK         0.0000 
     12 C12        -1.1729   50.0433   22.5319 C.3       1 UNK         0.0000 
     13 H13        -2.0353   50.4135   21.9744 H         1 UNK         0.0000 
     14 C14        -0.1680   49.5390   21.5037 C.ar      1 UNK         0.0000 
     15 C15         1.1635   49.2970   21.8618 C.ar      1 UNK         0.0000 
     16 C16         2.0741   48.8977   20.8858 C.ar      1 UNK         0.0000 
     17 C17         1.6278   48.7370   19.5727 C.ar      1 UNK         0.0000 
     18 N18         0.3369   48.9434   19.2068 N.ar      1 UNK         0.0000 
     19 C19        -0.5376   49.3391   20.1679 C.ar      1 UNK         0.0000 
     20 N20         0.5337   52.1338   25.0014 N.pl3     1 UNK         0.0000 
     21 C21         0.7818   52.2956   26.4591 C.3       1 UNK         0.0000 
     22 C22         1.7643   53.4353   26.8455 C.3       1 UNK         0.0000 
     23 N23         2.8764   53.6183   25.8993 N.pl3     1 UNK         0.0000 
     24 C24         2.4217   53.6995   24.4973 C.3       1 UNK         0.0000 
     25 C25         0.9453   53.3302   24.2327 C.3       1 UNK         0.0000 
     26 C26         4.1931   53.9256   26.2725 C.ar      1 UNK         0.0000 
     27 C27         4.6743   53.6225   27.5588 C.ar      1 UNK         0.0000 
     28 C28         5.9999   53.8624   27.9038 C.ar      1 UNK         0.0000 
     29 C29         6.8664   54.4173   26.9728 C.ar      1 UNK         0.0000 
     30 C30         6.4176   54.7449   25.6963 C.ar      1 UNK         0.0000 
     31 C31         5.0912   54.4968   25.3514 C.ar      1 UNK         0.0000 
     32 H32        -2.4896   46.0951   27.2574 H         1 UNK         0.0000 
     33 H33        -3.6405   45.3613   26.0177 H         1 UNK         0.0000 
     34 H34        -3.7051   46.3256   23.6544 H         1 UNK         0.0000 
     35 H35         1.4948   49.4261   22.8833 H         1 UNK         0.0000 
     36 H36         3.1038   48.7247   21.1505 H         1 UNK         0.0000 
     37 H37         2.3126   48.4430   18.7866 H         1 UNK         0.0000 
     38 H38        -1.5572   49.4966   19.8454 H         1 UNK         0.0000 
     39 H39        -0.1785   52.4205   26.9602 H         1 UNK         0.0000 
     40 H40         1.1805   51.3451   26.8138 H         1 UNK         0.0000 
     41 H41         1.2327   54.3859   26.8813 H         1 UNK         0.0000 
     42 H42         2.1022   53.2629   27.8644 H         1 UNK         0.0000 
     43 H43         3.0378   52.9973   23.9329 H         1 UNK         0.0000 
     44 H44         2.5681   54.7186   24.1371 H         1 UNK         0.0000 
     45 H45         0.8289   53.1712   23.1628 H         1 UNK         0.0000 
     46 H46         0.2797   54.1546   24.4768 H         1 UNK         0.0000 
     47 H47         4.0536   53.1520   28.3022 H         1 UNK         0.0000 
     48 H48         6.3657   53.6007   28.8830 H         1 UNK         0.0000 
     49 H49         7.9005   54.5736   27.2545 H         1 UNK         0.0000 
     50 H50         7.0969   55.1678   24.9675 H         1 UNK         0.0000 
     51 H51         4.7808   54.7435   24.3466 H         1 UNK         0.0000 
     52 H52        -1.2954   48.0974   26.6627 H         1 UNK         0.0000 
     53 H53        -0.4391   52.0501   22.7143 H         1 UNK         0.0000 
@<TRIPOS>BOND
     1    1    2 2    
     2    1   32 1    
     3    1   33 1    
     4    2    8 1    
     5    2    3 1    
     6    3    4 2    
     7    3   34 1    
     8    4    5 1    
     9    4    6 1    
    10    6   12 1    
    11    6    7 1    
    12    7    8 1    
    13    7    9 2    
    14    8   52 1    
    15    9   10 1    
    16   10   11 ar   
    17   10   20 ar   
    18   11   12 1    
    19   11   53 1    
    20   12   13 1    
    21   12   14 1    
    22   14   19 ar   
    23   14   15 ar   
    24   15   16 ar   
    25   15   35 1    
    26   16   17 ar   
    27   16   36 1    
    28   17   18 ar   
    29   17   37 1    
    30   18   19 ar   
    31   19   38 1    
    32   20   25 1    
    33   20   21 1    
    34   21   22 1    
    35   21   39 1    
    36   21   40 1    
    37   22   23 1    
    38   22   41 1    
    39   22   42 1    
    40   23   24 1    
    41   23   26 1    
    42   24   25 1    
    43   24   43 1    
    44   24   44 1    
    45   25   45 1    
    46   25   46 1    
    47   26   31 ar   
    48   26   27 ar   
    49   27   28 ar   
    50   27   47 1    
    51   28   29 ar   
    52   28   48 1    
    53   29   30 ar   
    54   29   49 1    
    55   30   31 ar   
    56   30   50 1    
    57   31   51 1    
@<TRIPOS>SUBSTRUCTURE
     1 UNK         1 GROUP             0       ****    0 ROOT    
