@<TRIPOS>MOLECULE
ZINC25172389_707
63   67    1
SMALL
USER_CHARGES


@<TRIPOS>ATOM
      1 C1          5.4151   54.3745   25.7617 C.ar      1 UNK         0.0000 
      2 C2          4.0688   54.4967   25.4297 C.ar      1 UNK         0.0000 
      3 C3          3.6717   54.3798   24.0995 C.ar      1 UNK         0.0000 
      4 C4          4.6119   54.1201   23.0923 C.ar      1 UNK         0.0000 
      5 C5          5.9538   53.9401   23.4544 C.ar      1 UNK         0.0000 
      6 C6          6.3578   54.0967   24.7771 C.ar      1 UNK         0.0000 
      7 C7          4.1397   54.1388   21.6201 C.3       1 UNK         0.0000 
      8 C8          5.2148   54.3462   20.5097 C.ar      1 UNK         0.0000 
      9 C9          5.1598   53.6216   19.3044 C.ar      1 UNK         0.0000 
     10 C10         6.1530   53.7016   18.3289 C.ar      1 UNK         0.0000 
     11 C11         7.2425   54.5418   18.5684 C.ar      1 UNK         0.0000 
     12 C12         7.2824   55.3098   19.7599 C.ar      1 UNK         0.0000 
     13 C13         6.2623   55.2674   20.7164 C.ar      1 UNK         0.0000 
     14 N14         8.4837   55.9785   19.6784 N.pl3     1 UNK         0.0000 
     15 C15         9.0751   55.5956   18.4976 C.ar      1 UNK         0.0000 
     16 N16         8.3584   54.7524   17.8012 N.2       1 UNK         0.0000 
     17 N17         3.1023   53.1273   21.3555 N.am      1 UNK         0.0000 
     18 C18         3.2893   51.7980   21.2807 C.2       1 UNK         0.0000 
     19 O19         4.4089   51.2967   21.3351 O.2       1 UNK         0.0000 
     20 C20         2.0590   50.9451   21.0682 C.ar      1 UNK         0.0000 
     21 C21         2.1624   49.7470   20.3477 C.ar      1 UNK         0.0000 
     22 C22         1.0461   48.9413   20.1349 C.ar      1 UNK         0.0000 
     23 C23        -0.1953   49.3248   20.6335 C.ar      1 UNK         0.0000 
     24 C24        -0.3244   50.5131   21.3563 C.ar      1 UNK         0.0000 
     25 C25         0.8018   51.3168   21.5781 C.ar      1 UNK         0.0000 
     26 S26        -1.9419   51.0324   21.9397 S.o2      1 UNK         0.0000 
     27 O27        -1.9329   52.4967   21.9158 O.2       1 UNK         0.0000 
     28 O28        -2.9456   50.2851   21.1718 O.2       1 UNK         0.0000 
     29 N29        -2.0754   50.5469   23.6439 N.pl3     1 UNK         0.0000 
     30 C30        -1.2720   51.3127   24.6332 C.3       1 UNK         0.0000 
     31 C31        -0.4265   50.4666   25.6061 C.3       1 UNK         0.0000 
     32 C32         0.3411   49.2889   24.9822 C.3       1 UNK         0.0000 
     33 C33        -0.4956   48.0093   24.8077 C.3       1 UNK         0.0000 
     34 C34        -1.6374   48.0576   23.7818 C.3       1 UNK         0.0000 
     35 C35        -2.6384   49.2097   23.9565 C.3       1 UNK         0.0000 
     36 H36         5.7269   54.4768   26.7908 H         1 UNK         0.0000 
     37 H37         3.3369   54.7039   26.1969 H         1 UNK         0.0000 
     38 H38         2.6309   54.5189   23.8477 H         1 UNK         0.0000 
     39 H39         6.7034   53.7001   22.7179 H         1 UNK         0.0000 
     40 H40         7.3987   53.9844   25.0360 H         1 UNK         0.0000 
     41 H41         3.5677   55.0615   21.5644 H         1 UNK         0.0000 
     42 H42         4.3478   52.9409   19.1022 H         1 UNK         0.0000 
     43 H43         6.0950   53.0995   17.4335 H         1 UNK         0.0000 
     44 H44         6.3179   55.8641   21.6145 H         1 UNK         0.0000 
     45 H45        10.0508   55.9816   18.2331 H         1 UNK         0.0000 
     46 H46         2.2049   53.4956   21.0730 H         1 UNK         0.0000 
     47 H47         3.1046   49.4340   19.9243 H         1 UNK         0.0000 
     48 H48         1.1440   48.0286   19.5659 H         1 UNK         0.0000 
     49 H49        -1.0584   48.7025   20.4433 H         1 UNK         0.0000 
     50 H50         0.6907   52.2338   22.1398 H         1 UNK         0.0000 
     51 H51        -0.6993   52.0963   24.1366 H         1 UNK         0.0000 
     52 H52        -1.9885   51.8339   25.2696 H         1 UNK         0.0000 
     53 H53         0.2806   51.1336   26.1023 H         1 UNK         0.0000 
     54 H54        -1.0609   50.0881   26.4117 H         1 UNK         0.0000 
     55 H55         0.7995   49.5801   24.0363 H         1 UNK         0.0000 
     56 H56         1.1712   49.0368   25.6432 H         1 UNK         0.0000 
     57 H57        -0.8977   47.7167   25.7801 H         1 UNK         0.0000 
     58 H58         0.1806   47.2024   24.5234 H         1 UNK         0.0000 
     59 H59        -2.1866   47.1177   23.8453 H         1 UNK         0.0000 
     60 H60        -1.2249   48.0723   22.7745 H         1 UNK         0.0000 
     61 H61        -3.1219   49.2309   24.9344 H         1 UNK         0.0000 
     62 H62        -3.4535   49.0345   23.2538 H         1 UNK         0.0000 
     63 H63         8.9214   56.6067   20.3365 H         1 UNK         0.0000 
@<TRIPOS>BOND
     1    1    6 ar   
     2    1    2 ar   
     3    1   36 1    
     4    2    3 ar   
     5    2   37 1    
     6    3    4 ar   
     7    3   38 1    
     8    4    5 ar   
     9    4    7 1    
    10    5    6 ar   
    11    5   39 1    
    12    6   40 1    
    13    7    8 1    
    14    7   17 1    
    15    7   41 1    
    16    8   13 ar   
    17    8    9 ar   
    18    9   10 ar   
    19    9   42 1    
    20   10   11 ar   
    21   10   43 1    
    22   11   16 ar   
    23   11   12 ar   
    24   12   13 ar   
    25   12   14 ar   
    26   13   44 1    
    27   14   15 ar   
    28   14   63 1    
    29   15   16 ar   
    30   15   45 1    
    31   17   18 am   BACKBONE|DICT|INTERRES
    32   17   46 1    
    33   18   19 2    
    34   18   20 1    
    35   20   25 ar   
    36   20   21 ar   
    37   21   22 ar   
    38   21   47 1    
    39   22   23 ar   
    40   22   48 1    
    41   23   24 ar   
    42   23   49 1    
    43   24   25 ar   
    44   24   26 1    
    45   25   50 1    
    46   26   27 2    
    47   26   28 2    
    48   26   29 1    
    49   29   35 1    
    50   29   30 1    
    51   30   31 1    
    52   30   51 1    
    53   30   52 1    
    54   31   32 1    
    55   31   53 1    
    56   31   54 1    
    57   32   33 1    
    58   32   55 1    
    59   32   56 1    
    60   33   34 1    
    61   33   57 1    
    62   33   58 1    
    63   34   35 1    
    64   34   59 1    
    65   34   60 1    
    66   35   61 1    
    67   35   62 1    
@<TRIPOS>SUBSTRUCTURE
     1 UNK         1 GROUP             0       ****    0 ROOT    
