@<TRIPOS>MOLECULE
ZINC08920490_310
75   77    1
SMALL
USER_CHARGES


@<TRIPOS>ATOM
      1 C1          5.7814   51.3566   13.1631 C.3       1 UNK         0.0000 
      2 C2          5.7580   52.6611   13.9758 C.3       1 UNK         0.0000 
      3 C3          3.4203   52.4719   15.0076 C.3       1 UNK         0.0000 
      4 C4          2.6775   51.9918   16.2786 C.3       1 UNK         0.0000 
      5 C5          3.3050   52.5455   17.5696 C.2       1 UNK         0.0000 
      6 C6          4.4904   53.2967   17.5245 C.2       1 UNK         0.0000 
      7 S7          4.9706   53.8772   19.0752 S.3       1 UNK         0.0000 
      8 C8          3.6027   53.1025   19.8242 C.2       1 UNK         0.0000 
      9 C9          2.8245   52.3742   18.9011 C.2       1 UNK         0.0000 
     10 C10         1.6307   51.6301   19.2866 C.2       1 UNK         0.0000 
     11 O11         0.9590   51.9526   20.2706 O.2       1 UNK         0.0000 
     12 N12         1.3498   50.5580   18.5260 N.am      1 UNK         0.0000 
     13 C13         0.1971   49.6862   18.7204 C.3       1 UNK         0.0000 
     14 N14         3.3354   53.2092   21.1846 N.am      1 UNK         0.0000 
     15 C15         4.0951   53.7028   22.1816 C.2       1 UNK         0.0000 
     16 O16         5.2429   54.1319   22.0458 O.2       1 UNK         0.0000 
     17 C17         3.4392   53.6976   23.5461 C.ar      1 UNK         0.0000 
     18 C18         3.9889   54.4721   24.5753 C.ar      1 UNK         0.0000 
     19 C19         3.4116   54.4763   25.8383 C.ar      1 UNK         0.0000 
     20 C20         2.2812   53.6969   26.0941 C.ar      1 UNK         0.0000 
     21 C21         1.7279   52.9091   25.0863 C.ar      1 UNK         0.0000 
     22 C22         2.3020   52.9125   23.8195 C.ar      1 UNK         0.0000 
     23 S23         1.5360   53.7456   27.7264 S.o2      1 UNK         0.0000 
     24 O24         0.2565   53.0311   27.6497 O.2       1 UNK         0.0000 
     25 O25         1.5758   55.1457   28.1668 O.2       1 UNK         0.0000 
     26 N26         2.5794   52.8250   28.8166 N.pl3     1 UNK         0.0000 
     27 C27         3.9546   52.4967   28.3738 C.3       1 UNK         0.0000 
     28 C28         5.1322   53.3535   28.8814 C.3       1 UNK         0.0000 
     29 C29         6.2686   53.4672   27.8483 C.3       1 UNK         0.0000 
     30 C30         4.8096   54.7295   29.4855 C.3       1 UNK         0.0000 
     31 C31         2.3486   52.9832   30.2720 C.3       1 UNK         0.0000 
     32 C32         1.0300   52.3739   30.7706 C.3       1 UNK         0.0000 
     33 C33         1.2087   51.7878   32.1746 C.3       1 UNK         0.0000 
     34 C34        -0.1059   53.3988   30.8449 C.3       1 UNK         0.0000 
     35 C35         5.2800   53.6094   16.2689 C.3       1 UNK         0.0000 
     36 H36         6.4309   51.4588   12.2937 H         1 UNK         0.0000 
     37 H37         6.1634   50.5225   13.7533 H         1 UNK         0.0000 
     38 H38         4.7964   51.0782   12.7894 H         1 UNK         0.0000 
     39 H39         5.3273   53.5070   13.4352 H         1 UNK         0.0000 
     40 H40         6.7749   52.9139   14.2838 H         1 UNK         0.0000 
     41 H41         3.1468   53.4861   14.7099 H         1 UNK         0.0000 
     42 H42         3.2143   51.7890   14.1843 H         1 UNK         0.0000 
     43 H43         2.7104   50.9025   16.2952 H         1 UNK         0.0000 
     44 H44         1.6224   52.2572   16.2091 H         1 UNK         0.0000 
     45 H45         2.0676   50.2206   17.8963 H         1 UNK         0.0000 
     46 H46        -0.1017   49.2450   17.7694 H         1 UNK         0.0000 
     47 H47         0.4490   48.8771   19.4092 H         1 UNK         0.0000 
     48 H48        -0.6619   50.2258   19.1232 H         1 UNK         0.0000 
     49 H49         2.4389   52.8233   21.4439 H         1 UNK         0.0000 
     50 H50         4.8650   55.0807   24.4049 H         1 UNK         0.0000 
     51 H51         3.8347   55.0961   26.6146 H         1 UNK         0.0000 
     52 H52         0.8526   52.3034   25.2755 H         1 UNK         0.0000 
     53 H53         1.8462   52.2842   23.0671 H         1 UNK         0.0000 
     54 H54         3.9962   52.3927   27.2960 H         1 UNK         0.0000 
     55 H55         4.1016   51.4996   28.7818 H         1 UNK         0.0000 
     56 H56         5.5041   52.7314   29.6817 H         1 UNK         0.0000 
     57 H57         5.9857   54.0898   27.0019 H         1 UNK         0.0000 
     58 H58         6.5533   52.4966   27.4583 H         1 UNK         0.0000 
     59 H59         7.1618   53.9025   28.2942 H         1 UNK         0.0000 
     60 H60         4.1240   55.2967   28.8621 H         1 UNK         0.0000 
     61 H61         4.3830   54.6305   30.4800 H         1 UNK         0.0000 
     62 H62         5.7151   55.3162   29.6169 H         1 UNK         0.0000 
     63 H63         3.1942   52.5464   30.8053 H         1 UNK         0.0000 
     64 H64         2.3644   54.0501   30.4806 H         1 UNK         0.0000 
     65 H65         0.7145   51.5899   30.0812 H         1 UNK         0.0000 
     66 H66         1.3153   52.6024   32.8817 H         1 UNK         0.0000 
     67 H67         0.3331   51.2206   32.4818 H         1 UNK         0.0000 
     68 H68         2.0814   51.1456   32.2699 H         1 UNK         0.0000 
     69 H69         0.1451   54.2421   31.4876 H         1 UNK         0.0000 
     70 H70        -0.4072   53.7948   29.8801 H         1 UNK         0.0000 
     71 H71        -0.9655   52.8968   31.2809 H         1 UNK         0.0000 
     72 H72         5.0224   54.5672   15.8146 H         1 UNK         0.0000 
     73 H73         6.3578   53.5601   16.4392 H         1 UNK         0.0000 
     74 N74         4.9430   52.4709   15.2791 N.4       1 UNK         0.0000 
     75 H75         5.2019   51.5801   15.6878 H         1 UNK         0.0000 
@<TRIPOS>BOND
     1    1    2 1    
     2    1   36 1    
     3    1   37 1    
     4    1   38 1    
     5    2   39 1    
     6    2   40 1    
     7    2   74 1    
     8    3    4 1    
     9    3   41 1    
    10    3   42 1    
    11    3   74 1    
    12    4    5 1    
    13    4   43 1    
    14    4   44 1    
    15    5    9 1    
    16    5    6 2    
    17    6    7 1    
    18    6   35 1    
    19    7    8 1    
    20    8    9 2    
    21    8   14 am   BACKBONE|DICT|INTERRES
    22    9   10 1    
    23   10   11 2    
    24   10   12 am   BACKBONE|DICT|INTERRES
    25   12   13 1    
    26   12   45 1    
    27   13   46 1    
    28   13   47 1    
    29   13   48 1    
    30   14   15 am   BACKBONE|DICT|INTERRES
    31   14   49 1    
    32   15   16 2    
    33   15   17 1    
    34   17   22 ar   
    35   17   18 ar   
    36   18   19 ar   
    37   18   50 1    
    38   19   20 ar   
    39   19   51 1    
    40   20   21 ar   
    41   20   23 1    
    42   21   22 ar   
    43   21   52 1    
    44   22   53 1    
    45   23   24 2    
    46   23   25 2    
    47   23   26 1    
    48   26   27 1    
    49   26   31 1    
    50   27   28 1    
    51   27   54 1    
    52   27   55 1    
    53   28   29 1    
    54   28   30 1    
    55   28   56 1    
    56   29   57 1    
    57   29   58 1    
    58   29   59 1    
    59   30   60 1    
    60   30   61 1    
    61   30   62 1    
    62   31   32 1    
    63   31   63 1    
    64   31   64 1    
    65   32   33 1    
    66   32   34 1    
    67   32   65 1    
    68   33   66 1    
    69   33   67 1    
    70   33   68 1    
    71   34   69 1    
    72   34   70 1    
    73   34   71 1    
    74   35   72 1    
    75   35   73 1    
    76   35   74 1    
    77   74   75 1    
@<TRIPOS>SUBSTRUCTURE
     1 UNK         1 GROUP             0       ****    0 ROOT    
