ZINC10013734_5199
                    3D
 Schrodinger Suite 2024-2.
 67 71  0  0  1  0            999 V2000
    2.8390   54.2030   23.5214 C   0  0  0  0  0  0
    1.9285   52.9826   23.6412 C   0  0  0  0  0  0
    1.3263   52.4957   24.7686 C   0  0  0  0  0  0
    0.3382   51.2805   24.6653 C   0  0  2  0  0  0
    0.6904   50.4934   25.3378 H   0  0  0  0  0  0
    0.3548   50.6396   23.2502 C   0  0  0  0  0  0
    0.9535   51.2672   22.2031 C   0  0  0  0  0  0
    1.7010   52.4002   22.4153 N   0  0  0  0  0  0
    0.9911   50.7037   20.7821 C   0  0  0  0  0  0
    0.8847   49.1597   20.8162 C   0  0  1  0  0  0
    1.7687   48.7425   21.3074 H   0  0  0  0  0  0
   -0.3657   48.7634   21.6377 C   0  0  0  0  0  0
   -0.3320   49.3393   23.0601 C   0  0  0  0  0  0
   -0.8834   48.7374   23.9799 O   0  0  0  0  0  0
    0.8219   48.5782   19.4019 C   0  0  0  0  0  0
   -0.3017   48.7659   18.5895 C   0  0  0  0  0  0
   -0.3398   48.2204   17.3087 C   0  0  0  0  0  0
    0.7469   47.4872   16.8382 C   0  0  0  0  0  0
    1.8697   47.2971   17.6366 C   0  0  0  0  0  0
    1.9042   47.8401   18.9171 C   0  0  0  0  0  0
   -1.1005   51.5907   25.1172 C   0  0  0  0  0  0
   -1.8274   52.5859   24.4636 C   0  0  0  0  0  0
   -3.1203   52.8968   24.8724 C   0  0  0  0  0  0
   -3.7225   52.2246   25.9481 C   0  0  0  0  0  0
   -2.9810   51.2177   26.5900 C   0  0  0  0  0  0
   -1.6909   50.8965   26.1756 C   0  0  0  0  0  0
   -5.0370   52.5654   26.3760 N   0  0  0  0  0  0
   -5.6965   51.7567   27.4045 C   0  0  0  0  0  0
   -5.9197   53.3106   25.4793 C   0  0  0  0  0  0
    1.6451   53.0249   26.1045 C   0  0  0  0  0  0
    2.6704   53.6644   26.3408 O   0  0  0  0  0  0
    0.7378   52.7407   27.0605 N   0  0  0  0  0  0
    0.7250   53.0850   28.4212 C   0  0  0  0  0  0
    0.1415   52.1453   29.2764 C   0  0  0  0  0  0
   -0.0517   52.4446   30.6221 C   0  0  0  0  0  0
    0.3131   53.6875   31.1283 C   0  0  0  0  0  0
    0.8933   54.6333   30.2850 C   0  0  0  0  0  0
    1.0958   54.3442   28.9345 C   0  0  0  0  0  0
    1.5977   55.3182   28.1473 F   0  0  0  0  0  0
    2.5591   54.9858   24.2261 H   0  0  0  0  0  0
    3.8737   53.9157   23.7180 H   0  0  0  0  0  0
    2.7982   54.6600   22.5284 H   0  0  0  0  0  0
    2.0642   52.8754   21.6002 H   0  0  0  0  0  0
    0.1977   51.1841   20.2065 H   0  0  0  0  0  0
    1.9511   50.9149   20.3055 H   0  0  0  0  0  0
   -1.2633   49.1632   21.1678 H   0  0  0  0  0  0
   -0.4956   47.6847   21.7130 H   0  0  0  0  0  0
   -1.1458   49.3386   18.9416 H   0  0  0  0  0  0
   -1.2044   48.3688   16.6802 H   0  0  0  0  0  0
    0.7252   47.0727   15.8420 H   0  0  0  0  0  0
    2.7208   46.7492   17.2604 H   0  0  0  0  0  0
    2.7865   47.6996   19.5236 H   0  0  0  0  0  0
   -1.3814   53.1303   23.6443 H   0  0  0  0  0  0
   -3.6313   53.6823   24.3410 H   0  0  0  0  0  0
   -3.3849   50.6505   27.4141 H   0  0  0  0  0  0
   -1.1600   50.1040   26.6854 H   0  0  0  0  0  0
   -5.0754   51.6693   28.2975 H   0  0  0  0  0  0
   -6.6502   52.1883   27.7116 H   0  0  0  0  0  0
   -5.8823   50.7484   27.0309 H   0  0  0  0  0  0
   -6.0946   52.7433   24.5644 H   0  0  0  0  0  0
   -6.8895   53.5150   25.9350 H   0  0  0  0  0  0
   -5.4853   54.2676   25.1945 H   0  0  0  0  0  0
    0.0237   52.0831   26.7856 H   0  0  0  0  0  0
   -0.1794   51.1804   28.9059 H   0  0  0  0  0  0
   -0.4952   51.7081   31.2775 H   0  0  0  0  0  0
    0.1494   53.9105   32.1727 H   0  0  0  0  0  0
    1.1671   55.6045   30.6719 H   0  0  0  0  0  0
  1  2  1  0  0  0
  1 40  1  0  0  0
  1 41  1  0  0  0
  1 42  1  0  0  0
  2  8  1  0  0  0
  2  3  2  0  0  0
  3  4  1  0  0  0
  3 30  1  0  0  0
  4  5  1  0  0  0
  4  6  1  0  0  0
  4 21  1  0  0  0
  6 13  1  0  0  0
  6  7  2  0  0  0
  7  8  1  0  0  0
  7  9  1  0  0  0
  8 43  1  0  0  0
  9 10  1  0  0  0
  9 44  1  0  0  0
  9 45  1  0  0  0
 10 11  1  0  0  0
 10 12  1  0  0  0
 10 15  1  0  0  0
 12 13  1  0  0  0
 12 46  1  0  0  0
 12 47  1  0  0  0
 13 14  2  0  0  0
 15 20  2  0  0  0
 15 16  1  0  0  0
 16 17  2  0  0  0
 16 48  1  0  0  0
 17 18  1  0  0  0
 17 49  1  0  0  0
 18 19  2  0  0  0
 18 50  1  0  0  0
 19 20  1  0  0  0
 19 51  1  0  0  0
 20 52  1  0  0  0
 21 26  2  0  0  0
 21 22  1  0  0  0
 22 23  2  0  0  0
 22 53  1  0  0  0
 23 24  1  0  0  0
 23 54  1  0  0  0
 24 25  2  0  0  0
 24 27  1  0  0  0
 25 26  1  0  0  0
 25 55  1  0  0  0
 26 56  1  0  0  0
 27 28  1  0  0  0
 27 29  1  0  0  0
 28 57  1  0  0  0
 28 58  1  0  0  0
 28 59  1  0  0  0
 29 60  1  0  0  0
 29 61  1  0  0  0
 29 62  1  0  0  0
 30 31  2  0  0  0
 30 32  1  0  0  0
 32 33  1  0  0  0
 32 63  1  0  0  0
 33 38  2  0  0  0
 33 34  1  0  0  0
 34 35  2  0  0  0
 34 64  1  0  0  0
 35 36  1  0  0  0
 35 65  1  0  0  0
 36 37  2  0  0  0
 36 66  1  0  0  0
 37 38  1  0  0  0
 37 67  1  0  0  0
 38 39  1  0  0  0
M  END
> <i_i_glide_confnum>
98

> <i_i_glide_lignum>
5200

> <i_i_glide_posenum>
295

> <i_i_glide_rotatable_bonds>
6

> <i_m_Source_File_Index>
4060

> <b_m_subgroup_collapsed>
0

> <r_i_docking_score>
-4.27511

> <r_i_glide_ecoul>
-2.49968

> <r_i_glide_eff_state_penalty>
0

> <r_i_glide_einternal>
8.58574

> <r_i_glide_emodel>
-51.3452

> <r_i_glide_energy>
-44.2003

> <r_i_glide_erotb>
0.415022

> <r_i_glide_esite>
0

> <r_i_glide_evdw>
-41.7007

> <r_i_glide_gscore>
-4.27511

> <r_i_glide_hbond>
0

> <r_i_glide_ligand_efficiency>
-0.115543

> <r_i_glide_ligand_efficiency_ln>
-0.92717

> <r_i_glide_ligand_efficiency_sa>
-0.385016

> <r_i_glide_lipo>
-1.63389

> <r_i_glide_metal>
0

> <r_i_glide_rewards>
-0.596253

> <s_i_glide_gridfile>
wee1_glide-grid

> <s_m_Source_File>
wee1_decoys_glide_SP.sdf

> <s_m_Source_Path>
/Users/zhangxujun/Desktop

> <s_m_entry_id>
4335

> <s_m_entry_name>
wee1_decoys_glide_SP.4060

> <s_m_subgroup_title>
wee1_decoys_glide_SP

> <s_m_subgroupid>
wee1_decoys_glide_SP


$$$$
