@<TRIPOS>MOLECULE
ZINC00746682_5273
71   75    1
SMALL
USER_CHARGES


@<TRIPOS>ATOM
      1 C1          2.2547   49.2272   19.5696 C.3       1 UNK         0.0000 
      2 C2          1.5458   50.5389   19.9700 C.3       1 UNK         0.0000 
      3 H3          0.7354   50.6456   19.2479 H         1 UNK         0.0000 
      4 C4          0.8787   50.5162   21.3546 C.ar      1 UNK         0.0000 
      5 C5         -0.2810   51.2756   21.5591 C.ar      1 UNK         0.0000 
      6 C6         -0.9395   51.2409   22.7856 C.ar      1 UNK         0.0000 
      7 C7         -0.4415   50.4419   23.8119 C.ar      1 UNK         0.0000 
      8 C8          0.7173   49.6912   23.6283 C.ar      1 UNK         0.0000 
      9 C9          1.3758   49.7244   22.4022 C.ar      1 UNK         0.0000 
     10 N10         2.3938   51.7160   19.7600 N.am      1 UNK         0.0000 
     11 C11         3.5369   52.0153   20.4029 C.2       1 UNK         0.0000 
     12 O12         4.0397   51.3126   21.2822 O.2       1 UNK         0.0000 
     13 C13         4.1948   53.2967   19.9590 C.ar      1 UNK         0.0000 
     14 C14         4.4131   53.4796   18.5846 C.ar      1 UNK         0.0000 
     15 C15         5.1315   54.5819   18.1029 C.ar      1 UNK         0.0000 
     16 C16         5.7036   55.4693   19.0100 C.ar      1 UNK         0.0000 
     17 C17         5.5053   55.2931   20.3743 C.ar      1 UNK         0.0000 
     18 C18         4.7130   54.2505   20.8715 C.ar      1 UNK         0.0000 
     19 N19         4.5143   54.2432   22.2507 N.pl3     1 UNK         0.0000 
     20 C20         3.2153   53.9974   22.8899 C.3       1 UNK         0.0000 
     21 C21         3.0935   54.5851   24.3148 C.3       1 UNK         0.0000 
     22 N22         4.1510   54.0980   25.2171 N.pl3     1 UNK         0.0000 
     23 C23         5.4828   54.2765   24.6083 C.3       1 UNK         0.0000 
     24 C24         5.6391   53.9043   23.1220 C.3       1 UNK         0.0000 
     25 C25         4.0051   54.0324   26.6099 C.ar      1 UNK         0.0000 
     26 C26         5.0216   54.5492   27.4369 C.ar      1 UNK         0.0000 
     27 C27         4.9491   54.4798   28.8220 C.ar      1 UNK         0.0000 
     28 C28         3.8600   53.8652   29.4175 C.ar      1 UNK         0.0000 
     29 C29         2.8365   53.3463   28.6327 C.ar      1 UNK         0.0000 
     30 C30         2.8879   53.4213   27.2291 C.ar      1 UNK         0.0000 
     31 O31         1.8930   52.8820   26.4304 O.3       1 UNK         0.0000 
     32 C32         0.7691   52.2368   27.0200 C.3       1 UNK         0.0000 
     33 N33         5.3527   54.8235   16.7387 N.am      1 UNK         0.0000 
     34 C34         4.5410   54.5170   15.7014 C.2       1 UNK         0.0000 
     35 O35         3.4427   53.9747   15.8220 O.2       1 UNK         0.0000 
     36 C36         5.0067   54.8964   14.2824 C.3       1 UNK         0.0000 
     37 C37         4.7697   56.3329   13.8739 C.3       1 UNK         0.0000 
     38 C38         6.1916   55.8305   14.1045 C.3       1 UNK         0.0000 
     39 H39         1.5764   48.3751   19.6163 H         1 UNK         0.0000 
     40 H40         2.6413   49.2842   18.5504 H         1 UNK         0.0000 
     41 H41         3.1043   49.0165   20.2108 H         1 UNK         0.0000 
     42 H42        -0.6732   51.8891   20.7623 H         1 UNK         0.0000 
     43 H43        -1.8349   51.8244   22.9392 H         1 UNK         0.0000 
     44 H44        -0.9562   50.4025   24.7597 H         1 UNK         0.0000 
     45 H45         1.1015   49.0790   24.4320 H         1 UNK         0.0000 
     46 H46         2.2749   49.1373   22.2848 H         1 UNK         0.0000 
     47 H47         2.0325   52.4162   19.1321 H         1 UNK         0.0000 
     48 H48         4.0574   52.7346   17.8850 H         1 UNK         0.0000 
     49 H49         6.2866   56.3105   18.6616 H         1 UNK         0.0000 
     50 H50         5.9281   56.0157   21.0564 H         1 UNK         0.0000 
     51 H51         3.0629   52.9221   22.9770 H         1 UNK         0.0000 
     52 H52         2.4139   54.3813   22.2559 H         1 UNK         0.0000 
     53 H53         2.1058   54.3371   24.6936 H         1 UNK         0.0000 
     54 H54         3.1050   55.6791   24.2631 H         1 UNK         0.0000 
     55 H55         5.6971   55.3425   24.6795 H         1 UNK         0.0000 
     56 H56         6.2451   53.7475   25.1814 H         1 UNK         0.0000 
     57 H57         6.5841   54.2858   22.7330 H         1 UNK         0.0000 
     58 H58         5.6974   52.8181   23.0840 H         1 UNK         0.0000 
     59 H59         5.8898   55.0304   27.0135 H         1 UNK         0.0000 
     60 H60         5.7457   54.8929   29.4243 H         1 UNK         0.0000 
     61 H61         3.8143   53.7810   30.4897 H         1 UNK         0.0000 
     62 H62         2.0115   52.8706   29.1382 H         1 UNK         0.0000 
     63 H63         0.0869   51.9174   26.2336 H         1 UNK         0.0000 
     64 H64         1.0645   51.3511   27.5861 H         1 UNK         0.0000 
     65 H65         0.2151   52.9143   27.6726 H         1 UNK         0.0000 
     66 H66         6.1712   55.3657   16.5160 H         1 UNK         0.0000 
     67 H67         4.8481   54.1107   13.5429 H         1 UNK         0.0000 
     68 H68         4.4360   56.5302   12.8543 H         1 UNK         0.0000 
     69 H69         4.3262   57.0290   14.5911 H         1 UNK         0.0000 
     70 H70         6.7465   56.2159   14.9590 H         1 UNK         0.0000 
     71 H71         6.8403   55.6724   13.2400 H         1 UNK         0.0000 
@<TRIPOS>BOND
     1    1    2 1    
     2    1   39 1    
     3    1   40 1    
     4    1   41 1    
     5    2    3 1    
     6    2    4 1    
     7    2   10 1    
     8    4    9 ar   
     9    4    5 ar   
    10    5    6 ar   
    11    5   42 1    
    12    6    7 ar   
    13    6   43 1    
    14    7    8 ar   
    15    7   44 1    
    16    8    9 ar   
    17    8   45 1    
    18    9   46 1    
    19   10   11 am   BACKBONE|DICT|INTERRES
    20   10   47 1    
    21   11   12 2    
    22   11   13 1    
    23   13   18 ar   
    24   13   14 ar   
    25   14   15 ar   
    26   14   48 1    
    27   15   16 ar   
    28   15   33 1    
    29   16   17 ar   
    30   16   49 1    
    31   17   18 ar   
    32   17   50 1    
    33   18   19 1    
    34   19   24 1    
    35   19   20 1    
    36   20   21 1    
    37   20   51 1    
    38   20   52 1    
    39   21   22 1    
    40   21   53 1    
    41   21   54 1    
    42   22   23 1    
    43   22   25 1    
    44   23   24 1    
    45   23   55 1    
    46   23   56 1    
    47   24   57 1    
    48   24   58 1    
    49   25   30 ar   
    50   25   26 ar   
    51   26   27 ar   
    52   26   59 1    
    53   27   28 ar   
    54   27   60 1    
    55   28   29 ar   
    56   28   61 1    
    57   29   30 ar   
    58   29   62 1    
    59   30   31 1    
    60   31   32 1    
    61   32   63 1    
    62   32   64 1    
    63   32   65 1    
    64   33   34 am   BACKBONE|DICT|INTERRES
    65   33   66 1    
    66   34   35 2    
    67   34   36 1    
    68   36   38 1    
    69   36   37 1    
    70   36   67 1    
    71   37   38 1    
    72   37   68 1    
    73   37   69 1    
    74   38   70 1    
    75   38   71 1    
@<TRIPOS>SUBSTRUCTURE
     1 UNK         1 GROUP             0       ****    0 ROOT    
