@<TRIPOS>MOLECULE
ZINC14482279_424
58   61    1
SMALL
USER_CHARGES


@<TRIPOS>ATOM
      1 C1         10.7678   51.1608   16.4224 C.3       1 UNK         0.0000 
      2 C2          9.7557   52.2611   16.7086 C.ar      1 UNK         0.0000 
      3 C3          8.3968   51.9364   16.7301 C.ar      1 UNK         0.0000 
      4 C4          7.4393   52.9084   17.0098 C.ar      1 UNK         0.0000 
      5 C5          7.8342   54.2209   17.2716 C.ar      1 UNK         0.0000 
      6 C6          9.1915   54.5586   17.2496 C.ar      1 UNK         0.0000 
      7 C7         10.1583   53.5851   16.9649 C.ar      1 UNK         0.0000 
      8 C8         11.6295   53.9793   16.9415 C.3       1 UNK         0.0000 
      9 S9          6.5833   55.4641   17.5596 S.o2      1 UNK         0.0000 
     10 O10         5.7819   55.5311   16.3304 O.2       1 UNK         0.0000 
     11 O11         7.2197   56.6686   18.1066 O.2       1 UNK         0.0000 
     12 N12         5.4971   54.7910   18.7869 N.pl3     1 UNK         0.0000 
     13 C13         5.7186   54.7451   20.1701 C.ar      1 UNK         0.0000 
     14 C14         6.8362   55.3014   20.7994 C.ar      1 UNK         0.0000 
     15 C15         6.9536   55.2643   22.1890 C.ar      1 UNK         0.0000 
     16 C16         5.9698   54.6487   22.9782 C.ar      1 UNK         0.0000 
     17 C17         4.8713   54.0552   22.3302 C.ar      1 UNK         0.0000 
     18 C18         4.7461   54.1124   20.9439 C.ar      1 UNK         0.0000 
     19 C19         6.0898   54.6776   24.4919 C.2       1 UNK         0.0000 
     20 O20         7.1037   55.1212   25.0334 O.2       1 UNK         0.0000 
     21 N21         5.0109   54.2223   25.1674 N.am      1 UNK         0.0000 
     22 C22         4.7833   54.1114   26.5506 C.ar      1 UNK         0.0000 
     23 C23         5.6039   54.6657   27.5401 C.ar      1 UNK         0.0000 
     24 C24         5.2786   54.4958   28.8817 C.ar      1 UNK         0.0000 
     25 C25         4.1594   53.7579   29.2549 C.ar      1 UNK         0.0000 
     26 C26         3.3212   53.1933   28.2852 C.ar      1 UNK         0.0000 
     27 C27         3.6422   53.3954   26.9314 C.ar      1 UNK         0.0000 
     28 C28         2.1324   52.3622   28.7141 C.2       1 UNK         0.0000 
     29 O29         2.0498   51.9432   29.8695 O.2       1 UNK         0.0000 
     30 N30         1.1840   52.1479   27.7854 N.am      1 UNK         0.0000 
     31 C31        -0.0336   51.3646   27.9751 C.3       1 UNK         0.0000 
     32 C32        -1.0049   51.7207   29.0831 C.3       1 UNK         0.0000 
     33 C33        -1.3426   52.0311   27.6407 C.3       1 UNK         0.0000 
     34 H34        11.4615   51.0652   17.2569 H         1 UNK         0.0000 
     35 H35        10.2906   50.1913   16.2687 H         1 UNK         0.0000 
     36 H36        11.3502   51.3996   15.5335 H         1 UNK         0.0000 
     37 H37         8.0735   50.9243   16.5350 H         1 UNK         0.0000 
     38 H38         6.3922   52.6361   17.0220 H         1 UNK         0.0000 
     39 H39         9.4950   55.5792   17.4387 H         1 UNK         0.0000 
     40 H40        12.0644   53.7606   15.9654 H         1 UNK         0.0000 
     41 H41        11.7778   55.0403   17.1485 H         1 UNK         0.0000 
     42 H42        12.1861   53.4067   17.6819 H         1 UNK         0.0000 
     43 H43         4.6963   54.2934   18.4265 H         1 UNK         0.0000 
     44 H44         7.6227   55.7823   20.2397 H         1 UNK         0.0000 
     45 H45         7.8180   55.7264   22.6417 H         1 UNK         0.0000 
     46 H46         4.0820   53.5605   22.8755 H         1 UNK         0.0000 
     47 H47         3.8733   53.6802   20.4721 H         1 UNK         0.0000 
     48 H48         4.2569   53.8765   24.5973 H         1 UNK         0.0000 
     49 H49         6.4829   55.2446   27.3092 H         1 UNK         0.0000 
     50 H50         5.9058   54.9282   29.6478 H         1 UNK         0.0000 
     51 H51         3.9576   53.6236   30.3078 H         1 UNK         0.0000 
     52 H52         3.0239   52.9589   26.1583 H         1 UNK         0.0000 
     53 H53         1.4037   52.3837   26.8309 H         1 UNK         0.0000 
     54 H54         0.0666   50.3185   27.6797 H         1 UNK         0.0000 
     55 H55        -0.7628   52.5381   29.7633 H         1 UNK         0.0000 
     56 H56        -1.5245   50.9046   29.5881 H         1 UNK         0.0000 
     57 H57        -2.1042   51.4346   27.1374 H         1 UNK         0.0000 
     58 H58        -1.3124   53.0618   27.2862 H         1 UNK         0.0000 
@<TRIPOS>BOND
     1    1    2 1    
     2    1   34 1    
     3    1   35 1    
     4    1   36 1    
     5    2    7 ar   
     6    2    3 ar   
     7    3    4 ar   
     8    3   37 1    
     9    4    5 ar   
    10    4   38 1    
    11    5    6 ar   
    12    5    9 1    
    13    6    7 ar   
    14    6   39 1    
    15    7    8 1    
    16    8   40 1    
    17    8   41 1    
    18    8   42 1    
    19    9   10 2    
    20    9   11 2    
    21    9   12 1    
    22   12   13 1    
    23   12   43 1    
    24   13   18 ar   
    25   13   14 ar   
    26   14   15 ar   
    27   14   44 1    
    28   15   16 ar   
    29   15   45 1    
    30   16   17 ar   
    31   16   19 1    
    32   17   18 ar   
    33   17   46 1    
    34   18   47 1    
    35   19   20 2    
    36   19   21 am   BACKBONE|DICT|INTERRES
    37   21   22 1    
    38   21   48 1    
    39   22   27 ar   
    40   22   23 ar   
    41   23   24 ar   
    42   23   49 1    
    43   24   25 ar   
    44   24   50 1    
    45   25   26 ar   
    46   25   51 1    
    47   26   27 ar   
    48   26   28 1    
    49   27   52 1    
    50   28   29 2    
    51   28   30 am   BACKBONE|DICT|INTERRES
    52   30   31 1    
    53   30   53 1    
    54   31   33 1    
    55   31   32 1    
    56   31   54 1    
    57   32   33 1    
    58   32   55 1    
    59   32   56 1    
    60   33   57 1    
    61   33   58 1    
@<TRIPOS>SUBSTRUCTURE
     1 UNK         1 GROUP             0       ****    0 ROOT    
