@<TRIPOS>MOLECULE
ZINC03251520_2335
55   57    1
SMALL
USER_CHARGES


@<TRIPOS>ATOM
      1 C1          4.1486   52.6802   28.8425 C.3       1 UNK         0.0000 
      2 C2          4.1973   54.0960   28.2320 C.3       1 UNK         0.0000 
      3 C3          3.0991   54.9582   28.9149 C.3       1 UNK         0.0000 
      4 C4          5.5753   54.7115   28.6005 C.3       1 UNK         0.0000 
      5 C5          3.9686   54.0044   26.6985 C.ar      1 UNK         0.0000 
      6 C6          2.6873   53.7514   26.1928 C.ar      1 UNK         0.0000 
      7 C7          2.4523   53.6981   24.8226 C.ar      1 UNK         0.0000 
      8 C8          3.4997   53.8518   23.9095 C.ar      1 UNK         0.0000 
      9 C9          4.7851   54.0980   24.4075 C.ar      1 UNK         0.0000 
     10 C10         5.0139   54.1811   25.7799 C.ar      1 UNK         0.0000 
     11 C11         3.2421   53.7413   22.3877 C.3       1 UNK         0.0000 
     12 H12         2.4145   54.4329   22.2004 H         1 UNK         0.0000 
     13 C13         2.8799   52.2817   21.8952 C.3       1 UNK         0.0000 
     14 H14         3.5055   51.5783   22.4345 H         1 UNK         0.0000 
     15 C15         3.1815   52.0104   20.4080 C.2       1 UNK         0.0000 
     16 C16         2.7042   50.9639   19.7091 C.2       1 UNK         0.0000 
     17 N17         4.0238   52.8991   19.8107 N.am      1 UNK         0.0000 
     18 C18         4.7143   53.9235   20.3436 C.2       1 UNK         0.0000 
     19 O19         5.7354   54.3712   19.8296 O.2       1 UNK         0.0000 
     20 N20         4.3046   54.3343   21.5553 N.am      1 UNK         0.0000 
     21 C21         1.4257   51.9468   22.3012 C.2       1 UNK         0.0000 
     22 O22         0.4914   52.4961   21.7170 O.2       1 UNK         0.0000 
     23 N23         1.2740   51.0524   23.3012 N.am      1 UNK         0.0000 
     24 C24         0.1047   50.7257   24.0059 C.ar      1 UNK         0.0000 
     25 C25         0.1281   49.5368   24.7357 C.ar      1 UNK         0.0000 
     26 C26        -0.9700   49.1681   25.5084 C.ar      1 UNK         0.0000 
     27 C27        -2.0964   49.9909   25.5679 C.ar      1 UNK         0.0000 
     28 C28        -2.1366   51.1906   24.8480 C.ar      1 UNK         0.0000 
     29 C29        -1.0292   51.5515   24.0706 C.ar      1 UNK         0.0000 
     30 C30        -3.3737   52.0851   24.9334 C.3       1 UNK         0.0000 
     31 F31        -3.2744   53.1753   24.1645 F         1 UNK         0.0000 
     32 F32        -4.4518   51.4026   24.5409 F         1 UNK         0.0000 
     33 F33        -3.5539   52.4886   26.1937 F         1 UNK         0.0000 
     34 H34         4.2110   52.7053   29.9324 H         1 UNK         0.0000 
     35 H35         4.9928   52.0970   28.4850 H         1 UNK         0.0000 
     36 H36         3.2340   52.1473   28.5784 H         1 UNK         0.0000 
     37 H37         3.0332   55.9553   28.4838 H         1 UNK         0.0000 
     38 H38         2.1095   54.5070   28.8411 H         1 UNK         0.0000 
     39 H39         3.2944   55.0802   29.9810 H         1 UNK         0.0000 
     40 H40         5.7603   55.6569   28.0915 H         1 UNK         0.0000 
     41 H41         5.6609   54.8998   29.6719 H         1 UNK         0.0000 
     42 H42         6.3996   54.0460   28.3380 H         1 UNK         0.0000 
     43 H43         1.8527   53.5992   26.8584 H         1 UNK         0.0000 
     44 H44         1.4410   53.5410   24.4843 H         1 UNK         0.0000 
     45 H45         5.6277   54.2131   23.7427 H         1 UNK         0.0000 
     46 H46         6.0244   54.3617   26.1074 H         1 UNK         0.0000 
     47 H47         2.0448   50.2357   20.1557 H         1 UNK         0.0000 
     48 H48         2.9679   50.8129   18.6699 H         1 UNK         0.0000 
     49 H49         4.2847   52.7145   18.8539 H         1 UNK         0.0000 
     50 H50         4.6768   55.2203   21.8516 H         1 UNK         0.0000 
     51 H51         2.0952   50.5470   23.5899 H         1 UNK         0.0000 
     52 H52         0.9987   48.8954   24.7218 H         1 UNK         0.0000 
     53 H53        -0.9426   48.2520   26.0816 H         1 UNK         0.0000 
     54 H54        -2.9279   49.6939   26.1924 H         1 UNK         0.0000 
     55 H55        -1.0526   52.4916   23.5443 H         1 UNK         0.0000 
@<TRIPOS>BOND
     1    1    2 1    
     2    1   34 1    
     3    1   35 1    
     4    1   36 1    
     5    2    3 1    
     6    2    4 1    
     7    2    5 1    
     8    3   37 1    
     9    3   38 1    
    10    3   39 1    
    11    4   40 1    
    12    4   41 1    
    13    4   42 1    
    14    5   10 ar   
    15    5    6 ar   
    16    6    7 ar   
    17    6   43 1    
    18    7    8 ar   
    19    7   44 1    
    20    8    9 ar   
    21    8   11 1    
    22    9   10 ar   
    23    9   45 1    
    24   10   46 1    
    25   11   12 1    
    26   11   20 1    
    27   11   13 1    
    28   13   14 1    
    29   13   15 1    
    30   13   21 1    
    31   15   16 2    
    32   15   17 1    
    33   16   47 1    
    34   16   48 1    
    35   17   18 am   BACKBONE|DICT|INTERRES
    36   17   49 1    
    37   18   19 2    
    38   18   20 am   BACKBONE|DICT|INTERRES
    39   20   50 1    
    40   21   22 2    
    41   21   23 am   BACKBONE|DICT|INTERRES
    42   23   24 1    
    43   23   51 1    
    44   24   29 ar   
    45   24   25 ar   
    46   25   26 ar   
    47   25   52 1    
    48   26   27 ar   
    49   26   53 1    
    50   27   28 ar   
    51   27   54 1    
    52   28   29 ar   
    53   28   30 1    
    54   29   55 1    
    55   30   31 1    
    56   30   32 1    
    57   30   33 1    
@<TRIPOS>SUBSTRUCTURE
     1 UNK         1 GROUP             0       ****    0 ROOT    
