@<TRIPOS>MOLECULE
ZINC13397748_1942
56   59    1
SMALL
USER_CHARGES


@<TRIPOS>ATOM
      1 C1         -0.7802   50.8731   20.5423 C.ar      1 UNK         0.0000 
      2 C2         -1.6290   49.7883   20.3259 C.ar      1 UNK         0.0000 
      3 C3         -1.6653   48.7397   21.2455 C.ar      1 UNK         0.0000 
      4 C4         -0.8440   48.7715   22.3738 C.ar      1 UNK         0.0000 
      5 C5          0.0052   49.8522   22.5899 C.ar      1 UNK         0.0000 
      6 C6          0.0350   50.9223   21.6772 C.ar      1 UNK         0.0000 
      7 N7          0.8587   52.0604   21.8143 N.am      1 UNK         0.0000 
      8 C8          1.5373   52.4918   22.9018 C.2       1 UNK         0.0000 
      9 O9          1.4899   51.9507   24.0065 O.2       1 UNK         0.0000 
     10 C10         2.3505   53.7885   22.7051 C.3       1 UNK         0.0000 
     11 C11         3.5055   53.9918   23.6949 C.ar      1 UNK         0.0000 
     12 C12         4.8230   54.0968   23.2311 C.ar      1 UNK         0.0000 
     13 C13         5.8753   54.3155   24.1226 C.ar      1 UNK         0.0000 
     14 C14         5.6215   54.3874   25.4942 C.ar      1 UNK         0.0000 
     15 C15         4.3142   54.2620   25.9670 C.ar      1 UNK         0.0000 
     16 C16         3.2594   54.0968   25.0704 C.ar      1 UNK         0.0000 
     17 C17         4.2635   54.3864   27.4704 C.3       1 UNK         0.0000 
     18 C18         5.7334   54.4472   27.8935 C.3       1 UNK         0.0000 
     19 C19         6.5754   54.6633   26.6326 C.3       1 UNK         0.0000 
     20 S20        -2.7468   47.3319   20.9699 S.o2      1 UNK         0.0000 
     21 O21        -2.7687   46.5613   22.2189 O.2       1 UNK         0.0000 
     22 O22        -3.9912   47.8510   20.3909 O.2       1 UNK         0.0000 
     23 N23        -1.9295   46.3416   19.7462 N.pl3     1 UNK         0.0000 
     24 C24        -2.1421   46.7194   18.3262 C.3       1 UNK         0.0000 
     25 C25        -1.7254   45.5521   17.4040 C.3       1 UNK         0.0000 
     26 C26        -0.2704   45.1090   17.6773 C.3       1 UNK         0.0000 
     27 C27         0.0096   44.8220   19.1812 C.3       1 UNK         0.0000 
     28 H28         1.0931   44.7340   19.2961 H         1 UNK         0.0000 
     29 C29        -0.5300   45.9755   20.0815 C.3       1 UNK         0.0000 
     30 C30        -0.5311   43.4404   19.6443 C.2       1 UNK         0.0000 
     31 O31        -0.8957   43.2964   20.8365 O.co2     1 UNK         0.0000 
     32 H32        -0.7589   51.6738   19.8197 H         1 UNK         0.0000 
     33 H33        -2.2591   49.7640   19.4487 H         1 UNK         0.0000 
     34 H34        -0.8554   47.9588   23.0875 H         1 UNK         0.0000 
     35 H35         0.6347   49.8226   23.4663 H         1 UNK         0.0000 
     36 H36         0.9113   52.6498   20.9972 H         1 UNK         0.0000 
     37 H37         1.6652   54.6304   22.8116 H         1 UNK         0.0000 
     38 H38         2.7250   53.8300   21.6816 H         1 UNK         0.0000 
     39 H39         5.0301   54.0290   22.1728 H         1 UNK         0.0000 
     40 H40         6.8806   54.4195   23.7421 H         1 UNK         0.0000 
     41 H41         2.2459   54.0210   25.4400 H         1 UNK         0.0000 
     42 H42         3.7645   53.5406   27.9446 H         1 UNK         0.0000 
     43 H43         3.7482   55.2958   27.7771 H         1 UNK         0.0000 
     44 H44         5.9033   55.2224   28.6418 H         1 UNK         0.0000 
     45 H45         6.0147   53.5013   28.3617 H         1 UNK         0.0000 
     46 H46         6.9282   55.6934   26.6002 H         1 UNK         0.0000 
     47 H47         7.4432   54.0027   26.6344 H         1 UNK         0.0000 
     48 H48        -3.1879   46.9708   18.1561 H         1 UNK         0.0000 
     49 H49        -1.4780   47.5500   18.0816 H         1 UNK         0.0000 
     50 H50        -2.4021   44.7096   17.5527 H         1 UNK         0.0000 
     51 H51        -1.8335   45.8462   16.3574 H         1 UNK         0.0000 
     52 H52         0.0285   44.2814   17.0326 H         1 UNK         0.0000 
     53 H53         0.3528   45.9539   17.3841 H         1 UNK         0.0000 
     54 H54         0.1014   46.8345   19.8517 H         1 UNK         0.0000 
     55 H55        -0.4976   45.7167   21.1395 H         1 UNK         0.0000 
     56 O56        -0.4958   42.4958   18.8272 O.co2     1 UNK         0.0000 
@<TRIPOS>BOND
     1    1    6 ar   
     2    1    2 ar   
     3    1   32 1    
     4    2    3 ar   
     5    2   33 1    
     6    3    4 ar   
     7    3   20 1    
     8    4    5 ar   
     9    4   34 1    
    10    5    6 ar   
    11    5   35 1    
    12    6    7 1    
    13    7    8 am   BACKBONE|DICT|INTERRES
    14    7   36 1    
    15    8    9 2    
    16    8   10 1    
    17   10   11 1    
    18   10   37 1    
    19   10   38 1    
    20   11   16 ar   
    21   11   12 ar   
    22   12   13 ar   
    23   12   39 1    
    24   13   14 ar   
    25   13   40 1    
    26   14   19 1    
    27   14   15 ar   
    28   15   16 ar   
    29   15   17 1    
    30   16   41 1    
    31   17   18 1    
    32   17   42 1    
    33   17   43 1    
    34   18   19 1    
    35   18   44 1    
    36   18   45 1    
    37   19   46 1    
    38   19   47 1    
    39   20   21 2    
    40   20   22 2    
    41   20   23 1    
    42   23   29 1    
    43   23   24 1    
    44   24   25 1    
    45   24   48 1    
    46   24   49 1    
    47   25   26 1    
    48   25   50 1    
    49   25   51 1    
    50   26   27 1    
    51   26   52 1    
    52   26   53 1    
    53   27   28 1    
    54   27   29 1    
    55   27   30 1    
    56   29   54 1    
    57   29   55 1    
    58   30   31 2    
    59   30   56 1    
@<TRIPOS>SUBSTRUCTURE
     1 UNK         1 GROUP             0       ****    0 ROOT    
