@<TRIPOS>MOLECULE
ZINC44031187_4585
49   51    1
SMALL
USER_CHARGES


@<TRIPOS>ATOM
      1 C1          3.5491   57.0884   17.0085 C.3       1 UNK         0.0000 
      2 C2          5.0044   57.1084   16.5071 C.3       1 UNK         0.0000 
      3 C3          5.6222   58.5152   16.6419 C.3       1 UNK         0.0000 
      4 C4          5.8670   55.9766   17.1298 C.3       1 UNK         0.0000 
      5 C5          6.0568   56.0422   18.6554 C.2       1 UNK         0.0000 
      6 O6          6.6877   56.9812   19.1453 O.2       1 UNK         0.0000 
      7 N7          5.5054   55.0372   19.3724 N.am      1 UNK         0.0000 
      8 C8          5.5924   54.8319   20.7613 C.ar      1 UNK         0.0000 
      9 C9          4.5745   54.0952   21.3733 C.ar      1 UNK         0.0000 
     10 C10         4.6080   53.8584   22.7470 C.ar      1 UNK         0.0000 
     11 C11         5.6557   54.3643   23.5217 C.ar      1 UNK         0.0000 
     12 C12         6.6890   55.0700   22.8943 C.ar      1 UNK         0.0000 
     13 C13         6.6669   55.2967   21.5284 C.ar      1 UNK         0.0000 
     14 N14         5.6190   54.1165   24.9109 N.am      1 UNK         0.0000 
     15 C15         6.3186   54.7393   25.8902 C.2       1 UNK         0.0000 
     16 O16         7.0626   55.6967   25.7086 O.2       1 UNK         0.0000 
     17 N17         6.1941   54.2540   27.1366 N.am      1 UNK         0.0000 
     18 C18         5.3941   53.1190   27.6024 C.3       1 UNK         0.0000 
     19 C19         4.1655   53.5068   28.3965 C.2       1 UNK         0.0000 
     20 N20         3.7725   54.7407   28.5521 N.2       1 UNK         0.0000 
     21 C21         2.6422   54.8244   29.2906 C.ar      1 UNK         0.0000 
     22 C22         2.0276   56.0252   29.6579 C.ar      1 UNK         0.0000 
     23 C23         0.9111   55.9588   30.4817 C.ar      1 UNK         0.0000 
     24 C24         0.3730   54.7343   30.8825 C.ar      1 UNK         0.0000 
     25 C25         0.9493   53.5233   30.5049 C.ar      1 UNK         0.0000 
     26 C26         2.1105   53.5846   29.7277 C.ar      1 UNK         0.0000 
     27 S27         3.1488   52.2994   29.1603 S.3       1 UNK         0.0000 
     28 H28         3.5048   57.2721   18.0815 H         1 UNK         0.0000 
     29 H29         3.0732   56.1242   16.8175 H         1 UNK         0.0000 
     30 H30         2.9488   57.8583   16.5189 H         1 UNK         0.0000 
     31 H31         4.9623   56.9011   15.4348 H         1 UNK         0.0000 
     32 H32         5.6097   58.8753   17.6706 H         1 UNK         0.0000 
     33 H33         6.6559   58.5351   16.2977 H         1 UNK         0.0000 
     34 H34         5.0708   59.2489   16.0505 H         1 UNK         0.0000 
     35 H35         5.4407   55.0100   16.8564 H         1 UNK         0.0000 
     36 H36         6.8658   55.9966   16.6915 H         1 UNK         0.0000 
     37 H37         4.9100   54.3933   18.8738 H         1 UNK         0.0000 
     38 H38         3.7459   53.7202   20.7913 H         1 UNK         0.0000 
     39 H39         3.8059   53.2989   23.2052 H         1 UNK         0.0000 
     40 H40         7.5044   55.4759   23.4501 H         1 UNK         0.0000 
     41 H41         7.4958   55.8291   21.0870 H         1 UNK         0.0000 
     42 H42         4.9508   53.4242   25.2087 H         1 UNK         0.0000 
     43 H43         6.6856   54.7642   27.8585 H         1 UNK         0.0000 
     44 H44         5.0947   52.4966   26.7692 H         1 UNK         0.0000 
     45 H45         6.0452   52.4989   28.2151 H         1 UNK         0.0000 
     46 H46         2.4327   56.9746   29.3460 H         1 UNK         0.0000 
     47 H47         0.4452   56.8779   30.8094 H         1 UNK         0.0000 
     48 H48        -0.4949   54.7220   31.5226 H         1 UNK         0.0000 
     49 H49         0.5398   52.5802   30.8388 H         1 UNK         0.0000 
@<TRIPOS>BOND
     1    1    2 1    
     2    1   28 1    
     3    1   29 1    
     4    1   30 1    
     5    2    3 1    
     6    2    4 1    
     7    2   31 1    
     8    3   32 1    
     9    3   33 1    
    10    3   34 1    
    11    4    5 1    
    12    4   35 1    
    13    4   36 1    
    14    5    6 2    
    15    5    7 am   BACKBONE|DICT|INTERRES
    16    7    8 1    
    17    7   37 1    
    18    8   13 ar   
    19    8    9 ar   
    20    9   10 ar   
    21    9   38 1    
    22   10   11 ar   
    23   10   39 1    
    24   11   12 ar   
    25   11   14 1    
    26   12   13 ar   
    27   12   40 1    
    28   13   41 1    
    29   14   15 am   BACKBONE|DICT|INTERRES
    30   14   42 1    
    31   15   16 2    
    32   15   17 am   BACKBONE|DICT|INTERRES
    33   17   18 1    
    34   17   43 1    
    35   18   19 1    
    36   18   44 1    
    37   18   45 1    
    38   19   27 1    
    39   19   20 2    
    40   20   21 1    
    41   21   26 ar   
    42   21   22 ar   
    43   22   23 ar   
    44   22   46 1    
    45   23   24 ar   
    46   23   47 1    
    47   24   25 ar   
    48   24   48 1    
    49   25   26 ar   
    50   25   49 1    
    51   26   27 1    
@<TRIPOS>SUBSTRUCTURE
     1 UNK         1 GROUP             0       ****    0 ROOT    
