@<TRIPOS>MOLECULE
ZINC34900218_4133
73   77    1
SMALL
USER_CHARGES


@<TRIPOS>ATOM
      1 C1          4.2532   54.1571   29.2379 C.ar      1 UNK         0.0000 
      2 C2          5.3840   54.4919   28.5034 C.ar      1 UNK         0.0000 
      3 C3          5.3303   54.4974   27.1144 C.ar      1 UNK         0.0000 
      4 C4          4.1453   54.1753   26.4364 C.ar      1 UNK         0.0000 
      5 C5          3.0175   53.8335   27.2027 C.ar      1 UNK         0.0000 
      6 C6          3.0684   53.8282   28.5937 C.ar      1 UNK         0.0000 
      7 C7          4.0946   54.1394   24.9388 C.ar      1 UNK         0.0000 
      8 C8          2.8825   54.2694   24.2510 C.ar      1 UNK         0.0000 
      9 C9          2.8131   54.0803   22.8758 C.ar      1 UNK         0.0000 
     10 C10         3.9490   53.6868   22.1523 C.ar      1 UNK         0.0000 
     11 C11         5.1827   53.6972   22.8111 C.ar      1 UNK         0.0000 
     12 C12         5.2555   53.9289   24.1805 C.ar      1 UNK         0.0000 
     13 C13         3.9002   53.3057   20.6802 C.2       1 UNK         0.0000 
     14 O14         4.8425   53.6855   19.9783 O.2       1 UNK         0.0000 
     15 N15         2.8564   52.5723   20.1684 N.am      1 UNK         0.0000 
     16 C16         2.7955   52.3932   18.6910 C.3       1 UNK         0.0000 
     17 C17         2.3048   50.9731   18.3394 C.3       1 UNK         0.0000 
     18 C18         0.9991   50.6008   19.0322 C.3       1 UNK         0.0000 
     19 C19         1.2591   50.6825   20.5473 C.3       1 UNK         0.0000 
     20 H20         1.9996   49.9269   20.8233 H         1 UNK         0.0000 
     21 C21         1.7118   52.0965   20.9869 C.3       1 UNK         0.0000 
     22 C22        -0.0321   50.3689   21.3286 C.2       1 UNK         0.0000 
     23 O23        -1.1376   50.6834   20.8821 O.2       1 UNK         0.0000 
     24 N24         0.1286   49.7791   22.5245 N.am      1 UNK         0.0000 
     25 C25        -0.9518   49.4758   23.4721 C.3       1 UNK         0.0000 
     26 H26        -1.7277   48.9843   22.8787 H         1 UNK         0.0000 
     27 C27        -1.5851   50.7289   24.1386 C.3       1 UNK         0.0000 
     28 C28        -0.6076   51.4424   25.0943 C.3       1 UNK         0.0000 
     29 C29        -0.0698   50.4730   26.1636 C.3       1 UNK         0.0000 
     30 C30         0.5129   49.1917   25.5297 C.3       1 UNK         0.0000 
     31 C31        -0.4755   48.4808   24.5732 C.3       1 UNK         0.0000 
     32 H32         0.0801   47.6773   24.0822 H         1 UNK         0.0000 
     33 N33        -1.5753   47.8138   25.2817 N.am      1 UNK         0.0000 
     34 C34        -2.4026   46.8964   24.7468 C.2       1 UNK         0.0000 
     35 O35        -2.3058   46.4915   23.5866 O.2       1 UNK         0.0000 
     36 C36        -3.4955   46.3662   25.6399 C.ar      1 UNK         0.0000 
     37 C37        -4.7248   45.9769   25.0886 C.ar      1 UNK         0.0000 
     38 C38        -5.7357   45.4774   25.9097 C.ar      1 UNK         0.0000 
     39 C39        -5.5221   45.3698   27.2809 C.ar      1 UNK         0.0000 
     40 C40        -4.3067   45.7535   27.8362 C.ar      1 UNK         0.0000 
     41 C41        -3.2948   46.2360   27.0196 C.ar      1 UNK         0.0000 
     42 F42        -6.4965   44.8842   28.0826 F         1 UNK         0.0000 
     43 H43         4.3042   54.1497   30.3164 H         1 UNK         0.0000 
     44 H44         6.3042   54.7388   29.0087 H         1 UNK         0.0000 
     45 H45         6.2266   54.7660   26.5786 H         1 UNK         0.0000 
     46 H46         2.0921   53.5428   26.7290 H         1 UNK         0.0000 
     47 H47         2.1910   53.5590   29.1656 H         1 UNK         0.0000 
     48 H48         1.9677   54.4964   24.7772 H         1 UNK         0.0000 
     49 H49         1.8543   54.2006   22.3951 H         1 UNK         0.0000 
     50 H50         6.0917   53.4663   22.2775 H         1 UNK         0.0000 
     51 H51         6.2234   53.8415   24.6477 H         1 UNK         0.0000 
     52 H52         3.7824   52.4676   18.2275 H         1 UNK         0.0000 
     53 H53         2.1122   53.1366   18.2760 H         1 UNK         0.0000 
     54 H54         3.0890   50.2521   18.5888 H         1 UNK         0.0000 
     55 H55         2.1874   50.8951   17.2581 H         1 UNK         0.0000 
     56 H56         0.7456   49.5857   18.7152 H         1 UNK         0.0000 
     57 H57         0.2557   51.3295   18.6946 H         1 UNK         0.0000 
     58 H58         0.8955   52.8143   20.8723 H         1 UNK         0.0000 
     59 H59         2.0169   51.9519   22.0216 H         1 UNK         0.0000 
     60 H60         1.0678   49.6223   22.8565 H         1 UNK         0.0000 
     61 H61        -1.9353   51.4250   23.3774 H         1 UNK         0.0000 
     62 H62        -2.4787   50.4334   24.6934 H         1 UNK         0.0000 
     63 H63         0.2237   51.8622   24.5259 H         1 UNK         0.0000 
     64 H64        -1.1036   52.2864   25.5764 H         1 UNK         0.0000 
     65 H65         0.6929   50.9674   26.7662 H         1 UNK         0.0000 
     66 H66        -0.8704   50.2028   26.8553 H         1 UNK         0.0000 
     67 H67         0.8293   48.5030   26.3149 H         1 UNK         0.0000 
     68 H68         1.4203   49.4334   24.9766 H         1 UNK         0.0000 
     69 H69        -1.6959   48.0756   26.2559 H         1 UNK         0.0000 
     70 H70        -4.9069   46.0643   24.0268 H         1 UNK         0.0000 
     71 H71        -6.6838   45.1802   25.4881 H         1 UNK         0.0000 
     72 H72        -4.1246   45.6631   28.8944 H         1 UNK         0.0000 
     73 H73        -2.3509   46.4966   27.4791 H         1 UNK         0.0000 
@<TRIPOS>BOND
     1    1    6 ar   
     2    1    2 ar   
     3    1   43 1    
     4    2    3 ar   
     5    2   44 1    
     6    3    4 ar   
     7    3   45 1    
     8    4    5 ar   
     9    4    7 1    
    10    5    6 ar   
    11    5   46 1    
    12    6   47 1    
    13    7   12 ar   
    14    7    8 ar   
    15    8    9 ar   
    16    8   48 1    
    17    9   10 ar   
    18    9   49 1    
    19   10   11 ar   
    20   10   13 1    
    21   11   12 ar   
    22   11   50 1    
    23   12   51 1    
    24   13   14 2    
    25   13   15 am   BACKBONE|DICT|INTERRES
    26   15   21 1    
    27   15   16 1    
    28   16   17 1    
    29   16   52 1    
    30   16   53 1    
    31   17   18 1    
    32   17   54 1    
    33   17   55 1    
    34   18   19 1    
    35   18   56 1    
    36   18   57 1    
    37   19   20 1    
    38   19   21 1    
    39   19   22 1    
    40   21   58 1    
    41   21   59 1    
    42   22   23 2    
    43   22   24 am   BACKBONE|DICT|INTERRES
    44   24   25 1    
    45   24   60 1    
    46   25   26 1    
    47   25   31 1    
    48   25   27 1    
    49   27   28 1    
    50   27   61 1    
    51   27   62 1    
    52   28   29 1    
    53   28   63 1    
    54   28   64 1    
    55   29   30 1    
    56   29   65 1    
    57   29   66 1    
    58   30   31 1    
    59   30   67 1    
    60   30   68 1    
    61   31   32 1    
    62   31   33 1    
    63   33   34 am   BACKBONE|DICT|INTERRES
    64   33   69 1    
    65   34   35 2    
    66   34   36 1    
    67   36   41 ar   
    68   36   37 ar   
    69   37   38 ar   
    70   37   70 1    
    71   38   39 ar   
    72   38   71 1    
    73   39   40 ar   
    74   39   42 1    
    75   40   41 ar   
    76   40   72 1    
    77   41   73 1    
@<TRIPOS>SUBSTRUCTURE
     1 UNK         1 GROUP             0       ****    0 ROOT    
