@<TRIPOS>MOLECULE
ZINC60160282_4911
65   67    1
SMALL
USER_CHARGES


@<TRIPOS>ATOM
      1 C1         -1.9014   52.4603   26.6081 C.3       1 UNK         0.0000 
      2 C2         -0.7221   52.4841   27.6057 C.3       1 UNK         0.0000 
      3 C3         -0.8449   51.2959   28.5742 C.3       1 UNK         0.0000 
      4 C4          0.6880   52.6395   26.9377 C.3       1 UNK         0.0000 
      5 H5          0.9304   53.6962   26.9014 H         1 UNK         0.0000 
      6 C6          0.8265   52.1151   25.5038 C.ar      1 UNK         0.0000 
      7 C7          1.0796   53.0159   24.4658 C.ar      1 UNK         0.0000 
      8 C8          1.2367   52.5631   23.1611 C.ar      1 UNK         0.0000 
      9 C9          1.1448   51.1959   22.8602 C.ar      1 UNK         0.0000 
     10 C10         0.8718   50.3012   23.9058 C.ar      1 UNK         0.0000 
     11 C11         0.7040   50.7532   25.2121 C.ar      1 UNK         0.0000 
     12 C12         1.3315   50.6581   21.4180 C.3       1 UNK         0.0000 
     13 C13         1.4443   51.7817   20.3498 C.3       1 UNK         0.0000 
     14 C14         0.1263   49.7698   21.0151 C.3       1 UNK         0.0000 
     15 C15         2.6265   49.8168   21.3559 C.3       1 UNK         0.0000 
     16 N16         1.7936   52.0887   27.8670 N.4       1 UNK         0.0000 
     17 C17         2.5274   53.0974   28.7750 C.3       1 UNK         0.0000 
     18 C18         3.7556   53.5630   28.0261 C.2       1 UNK         0.0000 
     19 N19         4.9822   53.2945   28.4073 N.2       1 UNK         0.0000 
     20 N20         5.9470   53.6999   27.4923 N.2       1 UNK         0.0000 
     21 C21         5.4328   54.2497   26.4171 C.2       1 UNK         0.0000 
     22 S22         3.7046   54.4423   26.5314 S.3       1 UNK         0.0000 
     23 C23         6.0892   54.6928   25.2256 C.2       1 UNK         0.0000 
     24 O24         7.1042   55.3814   25.2909 O.2       1 UNK         0.0000 
     25 N25         5.4841   54.2456   24.1001 N.am      1 UNK         0.0000 
     26 C26         5.7703   54.4965   22.7488 C.ar      1 UNK         0.0000 
     27 C27         6.8254   55.2969   22.2968 C.ar      1 UNK         0.0000 
     28 C28         7.0165   55.4938   20.9330 C.ar      1 UNK         0.0000 
     29 C29         6.1492   54.9010   20.0034 C.ar      1 UNK         0.0000 
     30 C30         5.0984   54.1083   20.4608 C.ar      1 UNK         0.0000 
     31 C31         4.9103   53.9017   21.8233 C.ar      1 UNK         0.0000 
     32 O32         6.2624   55.0388   18.6352 O.3       1 UNK         0.0000 
     33 C33         7.3418   55.7933   18.0953 C.3       1 UNK         0.0000 
     34 H34        -1.9064   51.5472   26.0129 H         1 UNK         0.0000 
     35 H35        -2.8574   52.4964   27.1342 H         1 UNK         0.0000 
     36 H36        -1.8706   53.2967   25.9118 H         1 UNK         0.0000 
     37 H37        -0.8685   53.3743   28.2188 H         1 UNK         0.0000 
     38 H38        -0.4959   50.3905   28.0828 H         1 UNK         0.0000 
     39 H39        -0.2581   51.4371   29.4802 H         1 UNK         0.0000 
     40 H40        -1.8755   51.1292   28.8973 H         1 UNK         0.0000 
     41 H41         1.1634   54.0738   24.6621 H         1 UNK         0.0000 
     42 H42         1.4381   53.2973   22.3956 H         1 UNK         0.0000 
     43 H43         0.8042   49.2408   23.7177 H         1 UNK         0.0000 
     44 H44         0.5017   50.0345   25.9956 H         1 UNK         0.0000 
     45 H45         1.5459   51.3710   19.3431 H         1 UNK         0.0000 
     46 H46         2.3168   52.4156   20.5116 H         1 UNK         0.0000 
     47 H47         0.5630   52.4237   20.3433 H         1 UNK         0.0000 
     48 H48         0.0396   48.8770   21.6358 H         1 UNK         0.0000 
     49 H49        -0.8137   50.3155   21.0914 H         1 UNK         0.0000 
     50 H50         0.2151   49.4178   19.9848 H         1 UNK         0.0000 
     51 H51         2.6140   48.9798   22.0545 H         1 UNK         0.0000 
     52 H52         2.7857   49.3982   20.3611 H         1 UNK         0.0000 
     53 H53         3.5037   50.4227   21.5900 H         1 UNK         0.0000 
     54 H54         1.3577   51.3736   28.4345 H         1 UNK         0.0000 
     55 H55         1.8125   53.8798   29.0416 H         1 UNK         0.0000 
     56 H56         2.7650   52.5246   29.6719 H         1 UNK         0.0000 
     57 H57         4.6739   53.6632   24.2441 H         1 UNK         0.0000 
     58 H58         7.5052   55.7768   22.9797 H         1 UNK         0.0000 
     59 H59         7.8529   56.0964   20.6164 H         1 UNK         0.0000 
     60 H60         4.4287   53.6470   19.7486 H         1 UNK         0.0000 
     61 H61         4.0876   53.2814   22.1477 H         1 UNK         0.0000 
     62 H62         7.2801   55.7770   17.0057 H         1 UNK         0.0000 
     63 H63         7.3029   56.8352   18.4129 H         1 UNK         0.0000 
     64 H64         8.3065   55.3682   18.3743 H         1 UNK         0.0000 
     65 H65         2.4864   51.6284   27.2920 H         1 UNK         0.0000 
@<TRIPOS>BOND
     1    1    2 1    
     2    1   34 1    
     3    1   35 1    
     4    1   36 1    
     5    2    3 1    
     6    2    4 1    
     7    2   37 1    
     8    3   38 1    
     9    3   39 1    
    10    3   40 1    
    11    4    5 1    
    12    4    6 1    
    13    4   16 1    
    14    6   11 ar   
    15    6    7 ar   
    16    7    8 ar   
    17    7   41 1    
    18    8    9 ar   
    19    8   42 1    
    20    9   10 ar   
    21    9   12 1    
    22   10   11 ar   
    23   10   43 1    
    24   11   44 1    
    25   12   13 1    
    26   12   14 1    
    27   12   15 1    
    28   13   45 1    
    29   13   46 1    
    30   13   47 1    
    31   14   48 1    
    32   14   49 1    
    33   14   50 1    
    34   15   51 1    
    35   15   52 1    
    36   15   53 1    
    37   16   17 1    
    38   16   54 1    
    39   16   65 1    
    40   17   18 1    
    41   17   55 1    
    42   17   56 1    
    43   18   22 1    
    44   18   19 2    
    45   19   20 1    
    46   20   21 2    
    47   21   22 1    
    48   21   23 1    
    49   23   24 2    
    50   23   25 am   BACKBONE|DICT|INTERRES
    51   25   26 1    
    52   25   57 1    
    53   26   31 ar   
    54   26   27 ar   
    55   27   28 ar   
    56   27   58 1    
    57   28   29 ar   
    58   28   59 1    
    59   29   30 ar   
    60   29   32 1    
    61   30   31 ar   
    62   30   60 1    
    63   31   61 1    
    64   32   33 1    
    65   33   62 1    
    66   33   63 1    
    67   33   64 1    
@<TRIPOS>SUBSTRUCTURE
     1 UNK         1 GROUP             0       ****    0 ROOT    
