@<TRIPOS>MOLECULE
ZINC09018874_3358
58   62    1
SMALL
USER_CHARGES


@<TRIPOS>ATOM
      1 C1          6.7586   53.7892   27.1799 C.3       1 UNK         0.0000 
      2 C2          5.6952   54.8472   27.5094 C.3       1 UNK         0.0000 
      3 O3          4.3902   54.2816   27.4695 O.3       1 UNK         0.0000 
      4 C4          3.7022   54.1576   26.3125 C.2       1 UNK         0.0000 
      5 O5          4.0899   54.6118   25.2347 O.2       1 UNK         0.0000 
      6 C6          2.4278   53.4185   26.4642 C.2       1 UNK         0.0000 
      7 C7          1.7484   53.1138   27.6938 C.2       1 UNK         0.0000 
      8 C8          0.5370   52.4350   27.4935 C.2       1 UNK         0.0000 
      9 S9          0.2332   52.0959   25.8408 S.3       1 UNK         0.0000 
     10 C10         1.7075   52.8943   25.3612 C.2       1 UNK         0.0000 
     11 N11         2.0987   52.9712   24.0151 N.am      1 UNK         0.0000 
     12 C12         1.6137   52.2790   22.9551 C.2       1 UNK         0.0000 
     13 O13         0.7619   51.3897   23.0379 O.2       1 UNK         0.0000 
     14 C14         2.2009   52.6214   21.5684 C.3       1 UNK         0.0000 
     15 H15         2.3520   53.6977   21.5432 H         1 UNK         0.0000 
     16 C16         1.2162   52.2908   20.4240 C.3       1 UNK         0.0000 
     17 S17         3.8108   51.8135   21.2819 S.3       1 UNK         0.0000 
     18 C18         4.8798   53.1544   21.6980 C.ar      1 UNK         0.0000 
     19 N19         5.4575   53.2989   22.8702 N.2       1 UNK         0.0000 
     20 N20         6.2841   54.4231   22.8269 N.2       1 UNK         0.0000 
     21 C21         6.1739   54.8966   21.6158 C.ar      1 UNK         0.0000 
     22 N22         5.2987   54.1530   20.8460 N.pl3     1 UNK         0.0000 
     23 C23         5.0726   54.4844   19.4945 C.ar      1 UNK         0.0000 
     24 C24         5.7452   55.5425   18.9712 C.ar      1 UNK         0.0000 
     25 C25         6.6949   56.3491   19.7384 C.ar      1 UNK         0.0000 
     26 O26         7.3158   57.3040   19.2823 O.2       1 UNK         0.0000 
     27 N27         6.8549   55.9557   21.0297 N.pl3     1 UNK         0.0000 
     28 H28         7.5540   56.4568   21.5538 H         1 UNK         0.0000 
     29 C29         5.3581   55.7379   17.5183 C.3       1 UNK         0.0000 
     30 C30         4.5445   54.4816   17.1929 C.3       1 UNK         0.0000 
     31 C31         4.1320   53.8317   18.5106 C.3       1 UNK         0.0000 
     32 C32        -0.4128   51.9590   28.5844 C.3       1 UNK         0.0000 
     33 C33        -0.1307   52.7403   29.8769 C.3       1 UNK         0.0000 
     34 C34         1.3684   52.7425   30.1997 C.3       1 UNK         0.0000 
     35 C35         2.2180   53.4568   29.1213 C.3       1 UNK         0.0000 
     36 H36         7.7590   54.2039   27.2934 H         1 UNK         0.0000 
     37 H37         6.6763   52.9269   27.8427 H         1 UNK         0.0000 
     38 H38         6.6603   53.4328   26.1523 H         1 UNK         0.0000 
     39 H39         5.7781   55.6967   26.8322 H         1 UNK         0.0000 
     40 H40         5.8651   55.2299   28.5163 H         1 UNK         0.0000 
     41 H41         2.9234   53.5360   23.8521 H         1 UNK         0.0000 
     42 H42         0.2551   52.7811   20.5667 H         1 UNK         0.0000 
     43 H43         1.5996   52.6162   19.4591 H         1 UNK         0.0000 
     44 H44         1.0378   51.2160   20.3500 H         1 UNK         0.0000 
     45 H45         4.7612   56.6445   17.4136 H         1 UNK         0.0000 
     46 H46         6.2184   55.8392   16.8539 H         1 UNK         0.0000 
     47 H47         5.1571   53.7851   16.6152 H         1 UNK         0.0000 
     48 H48         3.6763   54.7131   16.5691 H         1 UNK         0.0000 
     49 H49         4.2133   52.7428   18.4675 H         1 UNK         0.0000 
     50 H50         3.1064   54.0924   18.7671 H         1 UNK         0.0000 
     51 H51        -0.2649   50.8965   28.7630 H         1 UNK         0.0000 
     52 H52        -1.4539   52.0745   28.2848 H         1 UNK         0.0000 
     53 H53        -0.6902   52.2932   30.7021 H         1 UNK         0.0000 
     54 H54        -0.4941   53.7643   29.7830 H         1 UNK         0.0000 
     55 H55         1.7061   51.7086   30.3014 H         1 UNK         0.0000 
     56 H56         1.5354   53.2047   31.1731 H         1 UNK         0.0000 
     57 H57         2.1739   54.5359   29.2707 H         1 UNK         0.0000 
     58 H58         3.2541   53.1600   29.2773 H         1 UNK         0.0000 
@<TRIPOS>BOND
     1    1    2 1    
     2    1   36 1    
     3    1   37 1    
     4    1   38 1    
     5    2    3 1    
     6    2   39 1    
     7    2   40 1    
     8    3    4 1    
     9    4    5 2    
    10    4    6 1    
    11    6   10 2    
    12    6    7 1    
    13    7   35 1    
    14    7    8 2    
    15    8    9 1    
    16    8   32 1    
    17    9   10 1    
    18   10   11 am   BACKBONE|DICT|INTERRES
    19   11   12 am   BACKBONE|DICT|INTERRES
    20   11   41 1    
    21   12   13 2    
    22   12   14 1    
    23   14   15 1    
    24   14   16 1    
    25   14   17 1    
    26   16   42 1    
    27   16   43 1    
    28   16   44 1    
    29   17   18 1    
    30   18   22 ar   
    31   18   19 ar   
    32   19   20 ar   
    33   20   21 ar   
    34   21   27 ar   
    35   21   22 ar   
    36   22   23 ar   
    37   23   31 1    
    38   23   24 ar   
    39   24   25 ar   
    40   24   29 1    
    41   25   26 2    
    42   25   27 ar   
    43   27   28 1    
    44   29   30 1    
    45   29   45 1    
    46   29   46 1    
    47   30   31 1    
    48   30   47 1    
    49   30   48 1    
    50   31   49 1    
    51   31   50 1    
    52   32   33 1    
    53   32   51 1    
    54   32   52 1    
    55   33   34 1    
    56   33   53 1    
    57   33   54 1    
    58   34   35 1    
    59   34   55 1    
    60   34   56 1    
    61   35   57 1    
    62   35   58 1    
@<TRIPOS>SUBSTRUCTURE
     1 UNK         1 GROUP             0       ****    0 ROOT    
