ZINC20616199_5434
                    3D
 Schrodinger Suite 2024-2.
 68 72  0  0  1  0            999 V2000
    3.7832   53.0059   29.4332 C   0  0  0  0  0  0
    4.7882   53.3347   28.3194 C   0  0  0  0  0  0
    4.0399   53.6444   27.1521 O   0  0  0  0  0  0
    4.6903   53.8791   25.9569 C   0  0  0  0  0  0
    6.0844   53.8010   25.7960 C   0  0  0  0  0  0
    6.6758   54.1001   24.5674 C   0  0  0  0  0  0
    5.8956   54.4737   23.4691 C   0  0  0  0  0  0
    4.5053   54.4990   23.6232 C   0  0  0  0  0  0
    3.9000   54.2260   24.8482 C   0  0  0  0  0  0
    2.3943   54.4481   24.9895 C   0  0  0  0  0  0
    1.3968   53.4452   24.3908 N   0  3  1  0  0  0
    1.3317   53.4701   22.8506 C   0  0  0  0  0  0
    0.2121   52.4926   22.4406 C   0  0  1  0  0  0
    0.0747   52.5717   21.3600 H   0  0  0  0  0  0
    0.6959   51.0722   22.7565 C   0  0  0  0  0  0
    0.7564   50.9496   24.2845 C   0  0  1  0  0  0
    1.1927   49.9749   24.5169 H   0  0  0  0  0  0
    1.6382   52.0512   24.9655 C   0  0  0  0  0  0
   -0.6895   50.9585   24.8000 C   0  0  0  0  0  0
   -1.1134   50.0794   25.7354 C   0  0  0  0  0  0
   -2.4966   50.1275   26.1597 C   0  0  0  0  0  0
   -3.3125   51.0641   25.6374 C   0  0  0  0  0  0
   -2.8648   52.0496   24.6651 C   0  0  0  0  0  0
   -3.6270   52.9473   24.2949 O   0  0  0  0  0  0
   -1.5622   51.8995   24.2248 N   0  0  0  0  0  0
   -1.1442   52.8331   23.1509 C   0  0  0  0  0  0
    6.5360   54.8705   22.2113 C   0  0  0  0  0  0
    5.8717   55.2561   21.1848 N   0  0  0  0  0  0
    6.4502   55.7021   20.0142 N   0  0  0  0  0  0
    7.7414   55.9678   19.6911 C   0  0  0  0  0  0
    8.7166   55.6812   20.3815 O   0  0  0  0  0  0
    7.9346   56.7015   18.3845 C   0  0  0  0  0  0
    7.1598   57.8528   18.1481 C   0  0  0  0  0  0
    7.3771   58.6488   17.0277 C   0  0  0  0  0  0
    8.3757   58.3134   16.1232 C   0  0  0  0  0  0
    9.1486   57.1748   16.3334 C   0  0  0  0  0  0
    8.9386   56.3380   17.4438 C   0  0  0  0  0  0
    9.7661   55.1019   17.5501 N   0  3  0  0  0  0
   10.8858   55.1120   17.0461 O   0  0  0  0  0  0
    9.2840   54.0983   18.0657 O   0  5  0  0  0  0
    4.2862   52.7195   30.3572 H   0  0  0  0  0  0
    3.1393   53.8596   29.6460 H   0  0  0  0  0  0
    3.1452   52.1743   29.1383 H   0  0  0  0  0  0
    5.4372   52.4761   28.1522 H   0  0  0  0  0  0
    5.4118   54.1834   28.6048 H   0  0  0  0  0  0
    6.7262   53.5240   26.6190 H   0  0  0  0  0  0
    7.7523   54.0505   24.4695 H   0  0  0  0  0  0
    3.8853   54.8049   22.7908 H   0  0  0  0  0  0
    2.0929   54.4957   26.0373 H   0  0  0  0  0  0
    2.0880   55.3292   24.4542 H   0  0  0  0  0  0
    1.1067   54.4976   22.5617 H   0  0  0  0  0  0
    2.3142   53.1849   22.4643 H   0  0  0  0  0  0
    0.0243   50.3233   22.3278 H   0  0  0  0  0  0
    1.6791   50.8820   22.3172 H   0  0  0  0  0  0
    2.7050   51.9472   24.7844 H   0  0  0  0  0  0
    1.4409   52.1092   26.0384 H   0  0  0  0  0  0
   -0.4524   49.3461   26.1783 H   0  0  0  0  0  0
   -2.8652   49.4059   26.8769 H   0  0  0  0  0  0
   -4.3476   51.0998   25.9414 H   0  0  0  0  0  0
   -1.1394   53.8199   23.6254 H   0  0  0  0  0  0
   -1.9274   52.8946   22.3925 H   0  0  0  0  0  0
    7.6195   54.8107   22.2412 H   0  0  0  0  0  0
    5.7585   55.9398   19.3173 H   0  0  0  0  0  0
    6.4015   58.1758   18.8478 H   0  0  0  0  0  0
    6.7829   59.5427   16.8741 H   0  0  0  0  0  0
    8.5471   58.9316   15.2542 H   0  0  0  0  0  0
    9.9052   56.9295   15.6009 H   0  0  0  0  0  0
    0.4706   53.7143   24.6945 H   0  0  0  0  0  0
  1  2  1  0  0  0
  1 41  1  0  0  0
  1 42  1  0  0  0
  1 43  1  0  0  0
  2  3  1  0  0  0
  2 44  1  0  0  0
  2 45  1  0  0  0
  3  4  1  0  0  0
  4  9  2  0  0  0
  4  5  1  0  0  0
  5  6  2  0  0  0
  5 46  1  0  0  0
  6  7  1  0  0  0
  6 47  1  0  0  0
  7  8  2  0  0  0
  7 27  1  0  0  0
  8  9  1  0  0  0
  8 48  1  0  0  0
  9 10  1  0  0  0
 10 11  1  0  0  0
 10 49  1  0  0  0
 10 50  1  0  0  0
 11 18  1  0  0  0
 11 12  1  0  0  0
 11 68  1  0  0  0
 12 13  1  0  0  0
 12 51  1  0  0  0
 12 52  1  0  0  0
 13 14  1  0  0  0
 13 26  1  0  0  0
 13 15  1  0  0  0
 15 16  1  0  0  0
 15 53  1  0  0  0
 15 54  1  0  0  0
 16 17  1  0  0  0
 16 18  1  0  0  0
 16 19  1  0  0  0
 18 55  1  0  0  0
 18 56  1  0  0  0
 19 25  1  0  0  0
 19 20  2  0  0  0
 20 21  1  0  0  0
 20 57  1  0  0  0
 21 22  2  0  0  0
 21 58  1  0  0  0
 22 23  1  0  0  0
 22 59  1  0  0  0
 23 24  2  0  0  0
 23 25  1  0  0  0
 25 26  1  0  0  0
 26 60  1  0  0  0
 26 61  1  0  0  0
 27 28  2  0  0  0
 27 62  1  0  0  0
 28 29  1  0  0  0
 29 30  1  0  0  0
 29 63  1  0  0  0
 30 31  2  0  0  0
 30 32  1  0  0  0
 32 37  2  0  0  0
 32 33  1  0  0  0
 33 34  2  0  0  0
 33 64  1  0  0  0
 34 35  1  0  0  0
 34 65  1  0  0  0
 35 36  2  0  0  0
 35 66  1  0  0  0
 36 37  1  0  0  0
 36 67  1  0  0  0
 37 38  1  0  0  0
 38 39  2  0  0  0
 38 40  1  0  0  0
M  CHG  3  11   1  38   1  40  -1
M  END
> <i_i_glide_confnum>
79

> <i_i_glide_lignum>
5435

> <i_i_glide_posenum>
271

> <i_i_glide_rotatable_bonds>
9

> <i_m_Source_File_Index>
1618

> <b_m_subgroup_collapsed>
0

> <r_i_docking_score>
-4.52053

> <r_i_glide_ecoul>
-1.28496

> <r_i_glide_eff_state_penalty>
0

> <r_i_glide_einternal>
11.2224

> <r_i_glide_emodel>
-44.9086

> <r_i_glide_energy>
-37.9854

> <r_i_glide_erotb>
0.538462

> <r_i_glide_esite>
-0.00317765

> <r_i_glide_evdw>
-36.7004

> <r_i_glide_gscore>
-4.52053

> <r_i_glide_hbond>
0

> <r_i_glide_ligand_efficiency>
-0.118961

> <r_i_glide_ligand_efficiency_ln>
-0.974758

> <r_i_glide_ligand_efficiency_sa>
-0.399945

> <r_i_glide_lipo>
-2.34839

> <r_i_glide_metal>
0

> <r_i_glide_rewards>
-0.679649

> <s_i_glide_gridfile>
wee1_glide-grid

> <s_m_Source_File>
wee1_decoys_glide_SP.sdf

> <s_m_Source_Path>
/Users/zhangxujun/Desktop

> <s_m_entry_id>
1893

> <s_m_entry_name>
wee1_decoys_glide_SP.1618

> <s_m_subgroup_title>
wee1_decoys_glide_SP

> <s_m_subgroupid>
wee1_decoys_glide_SP


$$$$
