ZINC39578198_5057
                    3D
 Schrodinger Suite 2024-2.
 51 53  0  0  1  0            999 V2000
    1.8917   53.8735   24.5759 C   0  0  0  0  0  0
    3.2860   54.2345   25.1603 C   0  0  1  0  0  0
    3.2831   55.3149   25.2820 H   0  0  0  0  0  0
    3.5106   53.6977   26.5988 C   0  0  0  0  0  0
    2.5375   52.8968   27.2299 C   0  0  0  0  0  0
    2.7046   52.4322   28.5308 C   0  0  0  0  0  0
    3.8582   52.7456   29.2378 C   0  0  0  0  0  0
    4.8300   53.5514   28.6455 C   0  0  0  0  0  0
    4.6662   54.0291   27.3420 C   0  0  0  0  0  0
    5.9307   55.0257   26.7010 Cl  0  0  0  0  0  0
    4.0755   52.1098   30.8288 Cl  0  0  0  0  0  0
    4.4196   53.9608   24.2514 N   0  0  0  0  0  0
    4.4834   54.1883   22.9251 C   0  0  0  0  0  0
    3.5038   54.4967   22.2526 O   0  0  0  0  0  0
    5.8852   54.1468   22.2780 C   0  0  0  0  0  0
    5.8348   54.4971   20.8311 N   0  0  0  0  0  0
    5.3347   53.6611   19.8916 C   0  0  0  0  0  0
    4.8532   52.5415   20.0805 O   0  0  0  0  0  0
    5.5602   54.3449   18.5421 C   0  0  1  0  0  0
    6.3788   55.4424   18.9925 N   0  0  0  0  0  0
    6.3949   55.6206   20.3160 C   0  0  0  0  0  0
    6.7031   56.6613   20.8929 O   0  0  0  0  0  0
    6.3939   53.4073   17.6342 C   0  0  0  0  0  0
    4.2452   54.7846   17.8542 C   0  0  0  0  0  0
    4.0064   56.1217   17.5031 C   0  0  0  0  0  0
    2.8169   56.4892   16.8815 C   0  0  0  0  0  0
    1.8329   55.5406   16.6129 C   0  0  0  0  0  0
    2.0692   54.1996   16.9456 C   0  0  0  0  0  0
    3.2641   53.8282   17.5567 C   0  0  0  0  0  0
    0.6773   56.0083   16.0172 O   0  0  0  0  0  0
   -0.5098   55.2191   16.0443 C   0  0  0  0  0  0
   -0.4297   54.1337   15.2735 F   0  0  0  0  0  0
   -0.8985   54.9108   17.2837 F   0  0  0  0  0  0
    1.1043   54.0966   25.2870 H   0  0  0  0  0  0
    1.6283   54.4598   23.6978 H   0  0  0  0  0  0
    1.8278   52.8183   24.3076 H   0  0  0  0  0  0
    1.6335   52.5918   26.7273 H   0  0  0  0  0  0
    1.9443   51.8079   28.9779 H   0  0  0  0  0  0
    5.7237   53.8087   29.1942 H   0  0  0  0  0  0
    5.2884   53.7526   24.7210 H   0  0  0  0  0  0
    6.5405   54.8326   22.8174 H   0  0  0  0  0  0
    6.2967   53.1466   22.4131 H   0  0  0  0  0  0
    7.0347   55.8939   18.3728 H   0  0  0  0  0  0
    5.8478   52.4967   17.3889 H   0  0  0  0  0  0
    6.6308   53.8937   16.6873 H   0  0  0  0  0  0
    7.3416   53.1060   18.0829 H   0  0  0  0  0  0
    4.7343   56.8934   17.7048 H   0  0  0  0  0  0
    2.6468   57.5250   16.6234 H   0  0  0  0  0  0
    1.3379   53.4322   16.7469 H   0  0  0  0  0  0
    3.4236   52.7875   17.8067 H   0  0  0  0  0  0
   -1.3175   55.8166   15.6215 H   0  0  0  0  0  0
  1  2  1  0  0  0
  1 34  1  0  0  0
  1 35  1  0  0  0
  1 36  1  0  0  0
  2  3  1  0  0  0
  2  4  1  0  0  0
  2 12  1  0  0  0
  4  9  2  0  0  0
  4  5  1  0  0  0
  5  6  2  0  0  0
  5 37  1  0  0  0
  6  7  1  0  0  0
  6 38  1  0  0  0
  7  8  2  0  0  0
  7 11  1  0  0  0
  8  9  1  0  0  0
  8 39  1  0  0  0
  9 10  1  0  0  0
 12 13  1  0  0  0
 12 40  1  0  0  0
 13 14  2  0  0  0
 13 15  1  0  0  0
 15 16  1  0  0  0
 15 41  1  0  0  0
 15 42  1  0  0  0
 16 21  1  0  0  0
 16 17  1  0  0  0
 17 18  2  0  0  0
 17 19  1  0  0  0
 19 20  1  0  0  0
 19 23  1  0  0  0
 19 24  1  0  0  0
 20 21  1  0  0  0
 20 43  1  0  0  0
 21 22  2  0  0  0
 23 44  1  0  0  0
 23 45  1  0  0  0
 23 46  1  0  0  0
 24 29  2  0  0  0
 24 25  1  0  0  0
 25 26  2  0  0  0
 25 47  1  0  0  0
 26 27  1  0  0  0
 26 48  1  0  0  0
 27 28  2  0  0  0
 27 30  1  0  0  0
 28 29  1  0  0  0
 28 49  1  0  0  0
 29 50  1  0  0  0
 30 31  1  0  0  0
 31 32  1  0  0  0
 31 33  1  0  0  0
 31 51  1  0  0  0
M  END
> <i_i_glide_confnum>
20

> <i_i_glide_lignum>
5058

> <i_i_glide_posenum>
128

> <i_i_glide_rotatable_bonds>
8

> <i_m_Source_File_Index>
4150

> <b_m_subgroup_collapsed>
0

> <r_i_docking_score>
-5.64406

> <r_i_glide_ecoul>
-3.2616

> <r_i_glide_eff_state_penalty>
0

> <r_i_glide_einternal>
6.35137

> <r_i_glide_emodel>
-55.5086

> <r_i_glide_energy>
-42.5083

> <r_i_glide_erotb>
0.515585

> <r_i_glide_esite>
-0.040602

> <r_i_glide_evdw>
-39.2467

> <r_i_glide_gscore>
-5.64406

> <r_i_glide_hbond>
-0.32

> <r_i_glide_ligand_efficiency>
-0.176377

> <r_i_glide_ligand_efficiency_ln>
-1.26386

> <r_i_glide_ligand_efficiency_sa>
-0.559962

> <r_i_glide_lipo>
-2.69107

> <r_i_glide_metal>
0

> <r_i_glide_rewards>
-0.656394

> <s_i_glide_gridfile>
wee1_glide-grid

> <s_m_Source_File>
wee1_decoys_glide_SP.sdf

> <s_m_Source_Path>
/Users/zhangxujun/Desktop

> <s_m_entry_id>
4425

> <s_m_entry_name>
wee1_decoys_glide_SP.4150

> <s_m_subgroup_title>
wee1_decoys_glide_SP

> <s_m_subgroupid>
wee1_decoys_glide_SP


$$$$
