@<TRIPOS>MOLECULE
ZINC63514848_356
63   67    1
SMALL
USER_CHARGES


@<TRIPOS>ATOM
      1 C1          5.3850   58.4973   16.6072 C.3       1 UNK         0.0000 
      2 C2          6.5734   58.4433   17.5869 C.3       1 UNK         0.0000 
      3 H3          6.5187   59.2674   18.3014 H         1 UNK         0.0000 
      4 C4          6.7607   57.1087   18.3007 C.2       1 UNK         0.0000 
      5 C5          8.0170   56.6872   18.0377 C.2       1 UNK         0.0000 
      6 C6          8.7822   55.5177   18.5153 C.2       1 UNK         0.0000 
      7 C7         10.0353   55.2857   18.0809 C.2       1 UNK         0.0000 
      8 C8         10.6222   56.2300   17.1443 C.2       1 UNK         0.0000 
      9 C9          9.9506   57.3315   16.7199 C.2       1 UNK         0.0000 
     10 C10         8.6454   57.5825   17.1635 C.2       1 UNK         0.0000 
     11 N11         7.8539   58.5869   16.8785 N.pl3     1 UNK         0.0000 
     12 C12         5.6502   56.5270   19.1633 C.3       1 UNK         0.0000 
     13 C13         5.4454   54.9952   19.1303 C.3       1 UNK         0.0000 
     14 N14         4.6979   54.4963   20.2861 N.am      1 UNK         0.0000 
     15 C15         5.1491   54.4845   21.5614 C.2       1 UNK         0.0000 
     16 O16         6.2768   54.9166   21.8038 O.2       1 UNK         0.0000 
     17 C17         4.2075   54.0214   22.6023 C.2       1 UNK         0.0000 
     18 C18         3.0907   53.3177   22.2486 C.2       1 UNK         0.0000 
     19 C19         1.9492   52.8361   23.0761 C.ar      1 UNK         0.0000 
     20 C20         2.0267   52.5549   24.4581 C.ar      1 UNK         0.0000 
     21 C21         0.8929   52.2140   25.2084 C.ar      1 UNK         0.0000 
     22 C22        -0.3194   52.1404   24.5376 C.ar      1 UNK         0.0000 
     23 C23        -0.4085   52.3657   23.1966 C.ar      1 UNK         0.0000 
     24 C24         0.7046   52.7044   22.4347 C.ar      1 UNK         0.0000 
     25 O25        -1.7098   52.2809   22.8103 O.3       1 UNK         0.0000 
     26 C26        -2.4077   51.7984   23.9300 C.3       1 UNK         0.0000 
     27 O27        -1.5575   51.8989   25.0399 O.3       1 UNK         0.0000 
     28 N28         4.3928   54.3676   23.9259 N.am      1 UNK         0.0000 
     29 C29         5.4852   54.2197   24.7197 C.2       1 UNK         0.0000 
     30 O30         6.6251   53.9927   24.3128 O.2       1 UNK         0.0000 
     31 C31         5.2372   54.2915   26.2144 C.ar      1 UNK         0.0000 
     32 C32         6.3103   54.0942   27.0971 C.ar      1 UNK         0.0000 
     33 C33         6.1123   54.0966   28.4744 C.ar      1 UNK         0.0000 
     34 C34         4.8390   54.3055   28.9957 C.ar      1 UNK         0.0000 
     35 C35         3.7437   54.4932   28.1483 C.ar      1 UNK         0.0000 
     36 C36         3.9572   54.4969   26.7599 C.ar      1 UNK         0.0000 
     37 N37         2.3849   54.6560   28.7127 N.pl3     1 UNK         0.0000 
     38 O38         2.2780   54.9094   29.9087 O.co2     1 UNK         0.0000 
     39 O39         1.4232   54.5107   27.9650 O.co2     1 UNK         0.0000 
     40 H40         4.4268   58.4547   17.1254 H         1 UNK         0.0000 
     41 H41         5.3873   59.4363   16.0479 H         1 UNK         0.0000 
     42 H42         5.4126   57.6796   15.8855 H         1 UNK         0.0000 
     43 H43         8.4073   54.8348   19.2613 H         1 UNK         0.0000 
     44 H44        10.6101   54.4521   18.4623 H         1 UNK         0.0000 
     45 H45        11.6264   56.0489   16.7894 H         1 UNK         0.0000 
     46 H46        10.4424   58.0016   16.0288 H         1 UNK         0.0000 
     47 H47         4.7051   56.9904   18.8820 H         1 UNK         0.0000 
     48 H48         5.8632   56.8740   20.1749 H         1 UNK         0.0000 
     49 H49         6.3848   54.4498   19.1126 H         1 UNK         0.0000 
     50 H50         4.9427   54.7045   18.2104 H         1 UNK         0.0000 
     51 H51         3.7582   54.1780   20.1026 H         1 UNK         0.0000 
     52 H52         2.9613   53.0391   21.2110 H         1 UNK         0.0000 
     53 H53         2.9717   52.5750   24.9739 H         1 UNK         0.0000 
     54 H54         0.9672   52.0200   26.2671 H         1 UNK         0.0000 
     55 H55         0.6017   52.9111   21.3786 H         1 UNK         0.0000 
     56 H56        -2.6637   50.7479   23.7751 H         1 UNK         0.0000 
     57 H57        -3.3137   52.3849   24.0975 H         1 UNK         0.0000 
     58 H58         3.5286   54.4052   24.4381 H         1 UNK         0.0000 
     59 H59         7.3096   53.9220   26.7264 H         1 UNK         0.0000 
     60 H60         6.9544   53.9532   29.1372 H         1 UNK         0.0000 
     61 H61         4.7046   54.3094   30.0682 H         1 UNK         0.0000 
     62 H62         3.1019   54.6537   26.1233 H         1 UNK         0.0000 
     63 H63         8.0758   59.3677   16.2647 H         1 UNK         0.0000 
@<TRIPOS>BOND
     1    1    2 1    
     2    1   40 1    
     3    1   41 1    
     4    1   42 1    
     5    2    3 1    
     6    2   11 1    
     7    2    4 1    
     8    4    5 2    
     9    4   12 1    
    10    5   10 1    
    11    5    6 1    
    12    6    7 2    
    13    6   43 1    
    14    7    8 1    
    15    7   44 1    
    16    8    9 2    
    17    8   45 1    
    18    9   10 1    
    19    9   46 1    
    20   10   11 2    
    21   11   63 1    
    22   12   13 1    
    23   12   47 1    
    24   12   48 1    
    25   13   14 1    
    26   13   49 1    
    27   13   50 1    
    28   14   15 am   BACKBONE|DICT|INTERRES
    29   14   51 1    
    30   15   16 2    
    31   15   17 1    
    32   17   18 2    
    33   17   28 1    
    34   18   19 1    
    35   18   52 1    
    36   19   24 ar   
    37   19   20 ar   
    38   20   21 ar   
    39   20   53 1    
    40   21   22 ar   
    41   21   54 1    
    42   22   27 1    
    43   22   23 ar   
    44   23   24 ar   
    45   23   25 1    
    46   24   55 1    
    47   25   26 1    
    48   26   27 1    
    49   26   56 1    
    50   26   57 1    
    51   28   29 am   BACKBONE|DICT|INTERRES
    52   28   58 1    
    53   29   30 2    
    54   29   31 1    
    55   31   36 ar   
    56   31   32 ar   
    57   32   33 ar   
    58   32   59 1    
    59   33   34 ar   
    60   33   60 1    
    61   34   35 ar   
    62   34   61 1    
    63   35   36 ar   
    64   35   37 1    
    65   36   62 1    
    66   37   38 2    
    67   37   39 1    
@<TRIPOS>SUBSTRUCTURE
     1 UNK         1 GROUP             0       ****    0 ROOT    
