@<TRIPOS>MOLECULE
ZINC09088216_715
64   69    1
SMALL
USER_CHARGES


@<TRIPOS>ATOM
      1 C1         -2.0628   48.9311   19.1536 C.3       1 UNK         0.0000 
      2 C2         -3.3873   48.1851   19.4523 C.3       1 UNK         0.0000 
      3 C3         -4.5572   48.8837   18.7166 C.3       1 UNK         0.0000 
      4 C4         -3.2830   46.7411   18.8898 C.3       1 UNK         0.0000 
      5 C5         -3.7181   48.1529   20.9751 C.2       1 UNK         0.0000 
      6 O6         -4.2098   47.1476   21.4929 O.2       1 UNK         0.0000 
      7 C7         -3.4968   49.4604   21.7918 C.3       1 UNK         0.0000 
      8 H8         -3.7371   50.3124   21.1541 H         1 UNK         0.0000 
      9 C9         -2.0951   49.5051   22.4736 C.3       1 UNK         0.0000 
     10 H10        -1.4672   48.7394   22.0156 H         1 UNK         0.0000 
     11 C11        -2.2927   49.2239   24.0282 C.3       1 UNK         0.0000 
     12 C12        -1.8293   50.2898   24.9968 C.ar      1 UNK         0.0000 
     13 C13        -2.3274   51.5635   25.2840 C.ar      1 UNK         0.0000 
     14 C14        -1.6950   52.3462   26.2504 C.ar      1 UNK         0.0000 
     15 C15        -0.5636   51.8668   26.9174 C.ar      1 UNK         0.0000 
     16 C16        -0.0720   50.5911   26.6328 C.ar      1 UNK         0.0000 
     17 C17        -0.7274   49.8127   25.6813 C.ar      1 UNK         0.0000 
     18 N18        -0.4939   48.4972   25.3230 N.am      1 UNK         0.0000 
     19 C19        -1.3775   48.0368   24.4240 C.2       1 UNK         0.0000 
     20 O20        -1.4323   46.8966   23.9679 O.2       1 UNK         0.0000 
     21 C21        -3.7878   48.7841   24.1377 C.3       1 UNK         0.0000 
     22 H22        -3.9242   47.7416   23.8435 H         1 UNK         0.0000 
     23 C23        -5.9086   49.3779   22.8604 C.2       1 UNK         0.0000 
     24 C24        -6.6289   49.1444   23.9721 C.2       1 UNK         0.0000 
     25 C25        -6.0246   49.0459   25.3115 C.ar      1 UNK         0.0000 
     26 C26        -4.6251   48.9214   25.4321 C.ar      1 UNK         0.0000 
     27 C27        -4.0842   48.8520   26.7236 C.ar      1 UNK         0.0000 
     28 C28        -4.8881   48.9468   27.8570 C.ar      1 UNK         0.0000 
     29 C29        -6.2647   49.1010   27.7197 C.ar      1 UNK         0.0000 
     30 C30        -6.8328   49.1525   26.4482 C.ar      1 UNK         0.0000 
     31 C31        -1.4080   50.8647   22.1379 C.2       1 UNK         0.0000 
     32 O32        -2.0959   51.8914   22.1337 O.2       1 UNK         0.0000 
     33 C33         0.0385   50.8584   21.7431 C.ar      1 UNK         0.0000 
     34 C34         0.9173   49.8190   22.0928 C.ar      1 UNK         0.0000 
     35 C35         2.2465   49.8816   21.6683 C.ar      1 UNK         0.0000 
     36 C36         2.6795   50.9739   20.9154 C.ar      1 UNK         0.0000 
     37 C37         1.7611   51.9814   20.6207 C.ar      1 UNK         0.0000 
     38 N38         0.4655   51.9338   21.0219 N.ar      1 UNK         0.0000 
     39 H39        -1.2141   48.4897   19.6783 H         1 UNK         0.0000 
     40 H40        -1.8243   48.8923   18.0895 H         1 UNK         0.0000 
     41 H41        -2.1098   49.9896   19.4115 H         1 UNK         0.0000 
     42 H42        -5.5169   48.4020   18.9150 H         1 UNK         0.0000 
     43 H43        -4.6506   49.9347   18.9947 H         1 UNK         0.0000 
     44 H44        -4.4125   48.8630   17.6352 H         1 UNK         0.0000 
     45 H45        -4.1982   46.1667   19.0449 H         1 UNK         0.0000 
     46 H46        -3.0960   46.7451   17.8148 H         1 UNK         0.0000 
     47 H47        -2.4627   46.1876   19.3501 H         1 UNK         0.0000 
     48 H48        -3.1971   51.9502   24.7740 H         1 UNK         0.0000 
     49 H49        -2.0882   53.3233   26.4820 H         1 UNK         0.0000 
     50 H50        -0.0807   52.4742   27.6685 H         1 UNK         0.0000 
     51 H51         0.7773   50.2083   27.1786 H         1 UNK         0.0000 
     52 H52         0.1528   47.8857   25.8085 H         1 UNK         0.0000 
     53 H53        -6.3378   49.4940   21.8744 H         1 UNK         0.0000 
     54 H54        -7.7001   49.0359   23.8712 H         1 UNK         0.0000 
     55 H55        -3.0232   48.7182   26.8760 H         1 UNK         0.0000 
     56 H56        -4.4311   48.8959   28.8363 H         1 UNK         0.0000 
     57 H57        -6.8899   49.1775   28.5974 H         1 UNK         0.0000 
     58 H58        -7.9025   49.2737   26.3528 H         1 UNK         0.0000 
     59 H59         0.6060   48.9720   22.6831 H         1 UNK         0.0000 
     60 H60         2.9340   49.0865   21.9189 H         1 UNK         0.0000 
     61 H61         3.7007   51.0388   20.5665 H         1 UNK         0.0000 
     62 H62         2.0543   52.8511   20.0481 H         1 UNK         0.0000 
     63 N63        -4.4577   49.5883   22.9952 N.4       1 UNK         0.0000 
     64 H64        -4.3568   50.5522   23.2832 H         1 UNK         0.0000 
@<TRIPOS>BOND
     1    1    2 1    
     2    1   39 1    
     3    1   40 1    
     4    1   41 1    
     5    2    3 1    
     6    2    4 1    
     7    2    5 1    
     8    3   42 1    
     9    3   43 1    
    10    3   44 1    
    11    4   45 1    
    12    4   46 1    
    13    4   47 1    
    14    5    6 2    
    15    5    7 1    
    16    7    8 1    
    17    7    9 1    
    18    7   63 1    
    19    9   10 1    
    20    9   11 1    
    21    9   31 1    
    22   11   19 1    
    23   11   12 1    
    24   11   21 1    
    25   12   17 ar   
    26   12   13 ar   
    27   13   14 ar   
    28   13   48 1    
    29   14   15 ar   
    30   14   49 1    
    31   15   16 ar   
    32   15   50 1    
    33   16   17 ar   
    34   16   51 1    
    35   17   18 1    
    36   18   19 am   BACKBONE|DICT|INTERRES
    37   18   52 1    
    38   19   20 2    
    39   21   22 1    
    40   21   26 1    
    41   21   63 1    
    42   23   24 2    
    43   23   53 1    
    44   23   63 1    
    45   24   25 1    
    46   24   54 1    
    47   25   30 ar   
    48   25   26 ar   
    49   26   27 ar   
    50   27   28 ar   
    51   27   55 1    
    52   28   29 ar   
    53   28   56 1    
    54   29   30 ar   
    55   29   57 1    
    56   30   58 1    
    57   31   32 2    
    58   31   33 1    
    59   33   38 ar   
    60   33   34 ar   
    61   34   35 ar   
    62   34   59 1    
    63   35   36 ar   
    64   35   60 1    
    65   36   37 ar   
    66   36   61 1    
    67   37   38 ar   
    68   37   62 1    
    69   63   64 1    
@<TRIPOS>SUBSTRUCTURE
     1 UNK         1 GROUP             0       ****    0 ROOT    
