@<TRIPOS>MOLECULE
ZINC12470086_3710
56   60    1
SMALL
USER_CHARGES


@<TRIPOS>ATOM
      1 C1          6.7634   54.2746   27.6983 C.3       1 UNK         0.0000 
      2 C2          5.2801   53.9743   27.5754 C.ar      1 UNK         0.0000 
      3 C3          4.5666   53.5882   28.7106 C.ar      1 UNK         0.0000 
      4 C4          3.1989   53.2471   28.6467 C.ar      1 UNK         0.0000 
      5 C5          2.4960   52.8462   29.8068 C.ar      1 UNK         0.0000 
      6 C6          1.1547   52.4944   29.7314 C.ar      1 UNK         0.0000 
      7 C7          0.4758   52.5040   28.5188 C.ar      1 UNK         0.0000 
      8 C8          1.1453   52.9151   27.3570 C.ar      1 UNK         0.0000 
      9 C9          2.5186   53.2994   27.3920 C.ar      1 UNK         0.0000 
     10 N10         3.2234   53.7041   26.2898 N.pl3     1 UNK         0.0000 
     11 C11         4.5900   54.0557   26.3531 C.ar      1 UNK         0.0000 
     12 N12         5.0263   54.4227   25.1292 N.2       1 UNK         0.0000 
     13 N13         3.9507   54.3061   24.2773 N.2       1 UNK         0.0000 
     14 C14         2.8930   53.8829   24.9368 C.ar      1 UNK         0.0000 
     15 S15         1.3451   53.6956   24.1006 S.3       1 UNK         0.0000 
     16 C16         1.2292   51.8763   24.1003 C.3       1 UNK         0.0000 
     17 C17         1.5250   51.2234   22.7451 C.2       1 UNK         0.0000 
     18 O18         2.4862   51.6123   22.0833 O.2       1 UNK         0.0000 
     19 N19         0.6766   50.2336   22.3880 N.am      1 UNK         0.0000 
     20 C20         0.6679   49.4436   21.2346 C.2       1 UNK         0.0000 
     21 C21        -0.3200   48.4944   20.8795 C.2       1 UNK         0.0000 
     22 C22         0.0368   47.7799   19.7005 C.2       1 UNK         0.0000 
     23 C23         1.2446   48.2254   19.1446 C.2       1 UNK         0.0000 
     24 S24         1.9518   49.5050   20.0549 S.3       1 UNK         0.0000 
     25 C25         1.8689   47.7238   17.8486 C.3       1 UNK         0.0000 
     26 C26         1.1534   46.4369   17.3885 C.3       1 UNK         0.0000 
     27 C27        -0.3728   46.5372   17.5306 C.3       1 UNK         0.0000 
     28 C28        -0.7986   46.6953   19.0059 C.3       1 UNK         0.0000 
     29 C29        -1.4991   48.1736   21.6712 C.2       1 UNK         0.0000 
     30 O30        -1.9505   47.0333   21.7540 O.2       1 UNK         0.0000 
     31 N31        -2.0712   49.1928   22.3152 N.am      1 UNK         0.0000 
     32 O32        -0.8411   52.0915   28.5564 O.3       1 UNK         0.0000 
     33 C33        -1.5381   51.8637   27.3351 C.3       1 UNK         0.0000 
     34 H34         7.1457   54.0931   28.7035 H         1 UNK         0.0000 
     35 H35         7.3259   53.6463   27.0081 H         1 UNK         0.0000 
     36 H36         6.9577   55.3125   27.4314 H         1 UNK         0.0000 
     37 H37         5.0649   53.5342   29.6707 H         1 UNK         0.0000 
     38 H38         3.0094   52.8030   30.7550 H         1 UNK         0.0000 
     39 H39         0.6330   52.1831   30.6259 H         1 UNK         0.0000 
     40 H40         0.5974   52.9435   26.4385 H         1 UNK         0.0000 
     41 H41         0.2204   51.6202   24.4245 H         1 UNK         0.0000 
     42 H42         1.9044   51.4569   24.8402 H         1 UNK         0.0000 
     43 H43        -0.0626   50.0199   23.0406 H         1 UNK         0.0000 
     44 H44         2.9366   47.5372   17.9715 H         1 UNK         0.0000 
     45 H45         1.7719   48.4873   17.0758 H         1 UNK         0.0000 
     46 H46         1.5041   45.5906   17.9772 H         1 UNK         0.0000 
     47 H47         1.4242   46.2187   16.3543 H         1 UNK         0.0000 
     48 H48        -0.8472   45.6516   17.1047 H         1 UNK         0.0000 
     49 H49        -0.7371   47.3839   16.9441 H         1 UNK         0.0000 
     50 H50        -1.8637   46.9251   19.0492 H         1 UNK         0.0000 
     51 H51        -0.6735   45.7483   19.5326 H         1 UNK         0.0000 
     52 H52        -1.8145   50.1428   22.0984 H         1 UNK         0.0000 
     53 H53        -2.8740   49.0076   22.8973 H         1 UNK         0.0000 
     54 H54        -2.5272   51.4659   27.5584 H         1 UNK         0.0000 
     55 H55        -1.6712   52.7876   26.7686 H         1 UNK         0.0000 
     56 H56        -1.0257   51.1278   26.7125 H         1 UNK         0.0000 
@<TRIPOS>BOND
     1    1    2 1    
     2    1   34 1    
     3    1   35 1    
     4    1   36 1    
     5    2   11 ar   
     6    2    3 ar   
     7    3    4 ar   
     8    3   37 1    
     9    4    9 ar   
    10    4    5 ar   
    11    5    6 ar   
    12    5   38 1    
    13    6    7 ar   
    14    6   39 1    
    15    7    8 ar   
    16    7   32 1    
    17    8    9 ar   
    18    8   40 1    
    19    9   10 ar   
    20   10   14 ar   
    21   10   11 ar   
    22   11   12 ar   
    23   12   13 ar   
    24   13   14 ar   
    25   14   15 1    
    26   15   16 1    
    27   16   17 1    
    28   16   41 1    
    29   16   42 1    
    30   17   18 2    
    31   17   19 am   BACKBONE|DICT|INTERRES
    32   19   20 am   BACKBONE|DICT|INTERRES
    33   19   43 1    
    34   20   24 1    
    35   20   21 2    
    36   21   22 1    
    37   21   29 1    
    38   22   28 1    
    39   22   23 2    
    40   23   24 1    
    41   23   25 1    
    42   25   26 1    
    43   25   44 1    
    44   25   45 1    
    45   26   27 1    
    46   26   46 1    
    47   26   47 1    
    48   27   28 1    
    49   27   48 1    
    50   27   49 1    
    51   28   50 1    
    52   28   51 1    
    53   29   30 2    
    54   29   31 am   BACKBONE|DICT|INTERRES
    55   31   52 1    
    56   31   53 1    
    57   32   33 1    
    58   33   54 1    
    59   33   55 1    
    60   33   56 1    
@<TRIPOS>SUBSTRUCTURE
     1 UNK         1 GROUP             0       ****    0 ROOT    
