@<TRIPOS>MOLECULE
ZINC16613956_3418
63   67    1
SMALL
USER_CHARGES


@<TRIPOS>ATOM
      1 C1          6.2113   54.0970   25.6310 C.3       1 UNK         0.0000 
      2 C2          5.5926   54.2908   24.2454 C.2       1 UNK         0.0000 
      3 C3          4.2865   54.0733   23.8786 C.2       1 UNK         0.0000 
      4 C4          3.8959   54.1833   22.3559 C.3       1 UNK         0.0000 
      5 H5          3.1261   54.9531   22.2830 H         1 UNK         0.0000 
      6 N6          5.0559   54.7084   21.5541 N.pl3     1 UNK         0.0000 
      7 C7          4.8506   54.6709   20.0902 C.3       1 UNK         0.0000 
      8 C8          5.6685   55.7319   19.3365 C.3       1 UNK         0.0000 
      9 C9          7.1730   55.5774   19.5440 C.3       1 UNK         0.0000 
     10 S10         7.6612   55.6967   21.2815 S.3       1 UNK         0.0000 
     11 C11         6.3044   54.8967   22.1625 C.2       1 UNK         0.0000 
     12 N12         6.5740   54.6862   23.3873 N.2       1 UNK         0.0000 
     13 C13         3.2549   52.9090   21.7639 C.ar      1 UNK         0.0000 
     14 C14         4.0508   51.8967   21.2245 C.ar      1 UNK         0.0000 
     15 C15         3.4606   50.8293   20.5623 C.ar      1 UNK         0.0000 
     16 C16         2.0769   50.6958   20.5224 C.ar      1 UNK         0.0000 
     17 C17         1.2686   51.6920   21.0818 C.ar      1 UNK         0.0000 
     18 C18         1.8608   52.8012   21.6813 C.ar      1 UNK         0.0000 
     19 N19         1.5807   49.5454   19.8859 N.am      1 UNK         0.0000 
     20 C20         0.4869   48.8384   20.2298 C.2       1 UNK         0.0000 
     21 O21        -0.3063   49.1665   21.1129 O.2       1 UNK         0.0000 
     22 N22         0.4141   47.6935   19.5194 N.am      1 UNK         0.0000 
     23 C23        -0.5130   46.6448   19.6671 C.ar      1 UNK         0.0000 
     24 C24        -1.8157   46.8144   20.1662 C.ar      1 UNK         0.0000 
     25 C25        -2.6665   45.7178   20.3038 C.ar      1 UNK         0.0000 
     26 C26        -2.2268   44.4430   19.9477 C.ar      1 UNK         0.0000 
     27 C27        -0.9405   44.2652   19.4405 C.ar      1 UNK         0.0000 
     28 C28        -0.0959   45.3654   19.2816 C.ar      1 UNK         0.0000 
     29 F29        -0.5112   43.0233   19.1147 F         1 UNK         0.0000 
     30 C30         3.2182   53.7267   24.8309 C.2       1 UNK         0.0000 
     31 O31         2.2494   53.0508   24.4964 O.2       1 UNK         0.0000 
     32 N32         3.3391   54.2155   26.0906 N.am      1 UNK         0.0000 
     33 C33         2.5207   53.9785   27.2206 C.ar      1 UNK         0.0000 
     34 C34         1.6313   52.8970   27.3405 C.ar      1 UNK         0.0000 
     35 C35         0.8555   52.7501   28.4882 C.ar      1 UNK         0.0000 
     36 C36         0.9636   53.6776   29.5210 C.ar      1 UNK         0.0000 
     37 C37         1.8549   54.7421   29.4227 C.ar      1 UNK         0.0000 
     38 C38         2.6429   54.8784   28.2830 C.ar      1 UNK         0.0000 
     39 H39         6.1603   55.0230   26.2044 H         1 UNK         0.0000 
     40 H40         5.7216   53.2986   26.1881 H         1 UNK         0.0000 
     41 H41         7.2569   53.7997   25.5711 H         1 UNK         0.0000 
     42 H42         5.2190   53.6996   19.7623 H         1 UNK         0.0000 
     43 H43         3.7965   54.7240   19.8133 H         1 UNK         0.0000 
     44 H44         5.4379   55.6731   18.2721 H         1 UNK         0.0000 
     45 H45         5.3587   56.7304   19.6463 H         1 UNK         0.0000 
     46 H46         7.5316   54.6157   19.1770 H         1 UNK         0.0000 
     47 H47         7.7160   56.3495   18.9996 H         1 UNK         0.0000 
     48 H48         5.1280   51.9621   21.2643 H         1 UNK         0.0000 
     49 H49         4.0850   50.0968   20.0822 H         1 UNK         0.0000 
     50 H50         0.1923   51.6303   21.0379 H         1 UNK         0.0000 
     51 H51         1.2333   53.5825   22.0823 H         1 UNK         0.0000 
     52 H52         2.1993   49.1458   19.1967 H         1 UNK         0.0000 
     53 H53         1.1707   47.5102   18.8780 H         1 UNK         0.0000 
     54 H54        -2.1852   47.7899   20.4445 H         1 UNK         0.0000 
     55 H55        -3.6659   45.8601   20.6893 H         1 UNK         0.0000 
     56 H56        -2.8841   43.5945   20.0581 H         1 UNK         0.0000 
     57 H57         0.8971   45.2103   18.8858 H         1 UNK         0.0000 
     58 H58         4.1049   54.8508   26.2452 H         1 UNK         0.0000 
     59 H59         1.5319   52.1507   26.5675 H         1 UNK         0.0000 
     60 H60         0.1733   51.9170   28.5728 H         1 UNK         0.0000 
     61 H61         0.3539   53.5639   30.4060 H         1 UNK         0.0000 
     62 H62         1.9351   55.4598   30.2267 H         1 UNK         0.0000 
     63 H63         3.3413   55.6967   28.2314 H         1 UNK         0.0000 
@<TRIPOS>BOND
     1    1    2 1    
     2    1   39 1    
     3    1   40 1    
     4    1   41 1    
     5    2   12 1    
     6    2    3 2    
     7    3    4 1    
     8    3   30 1    
     9    4    5 1    
    10    4    6 1    
    11    4   13 1    
    12    6   11 1    
    13    6    7 1    
    14    7    8 1    
    15    7   42 1    
    16    7   43 1    
    17    8    9 1    
    18    8   44 1    
    19    8   45 1    
    20    9   10 1    
    21    9   46 1    
    22    9   47 1    
    23   10   11 1    
    24   11   12 2    
    25   13   18 ar   
    26   13   14 ar   
    27   14   15 ar   
    28   14   48 1    
    29   15   16 ar   
    30   15   49 1    
    31   16   17 ar   
    32   16   19 1    
    33   17   18 ar   
    34   17   50 1    
    35   18   51 1    
    36   19   20 am   BACKBONE|DICT|INTERRES
    37   19   52 1    
    38   20   21 2    
    39   20   22 am   BACKBONE|DICT|INTERRES
    40   22   23 1    
    41   22   53 1    
    42   23   28 ar   
    43   23   24 ar   
    44   24   25 ar   
    45   24   54 1    
    46   25   26 ar   
    47   25   55 1    
    48   26   27 ar   
    49   26   56 1    
    50   27   28 ar   
    51   27   29 1    
    52   28   57 1    
    53   30   31 2    
    54   30   32 am   BACKBONE|DICT|INTERRES
    55   32   33 1    
    56   32   58 1    
    57   33   38 ar   
    58   33   34 ar   
    59   34   35 ar   
    60   34   59 1    
    61   35   36 ar   
    62   35   60 1    
    63   36   37 ar   
    64   36   61 1    
    65   37   38 ar   
    66   37   62 1    
    67   38   63 1    
@<TRIPOS>SUBSTRUCTURE
     1 UNK         1 GROUP             0       ****    0 ROOT    
