@<TRIPOS>MOLECULE
ZINC39639445_1322
66   69    1
SMALL
USER_CHARGES


@<TRIPOS>ATOM
      1 C1          5.5645   54.3806   20.6399 C.3       1 UNK         0.0000 
      2 C2          5.5472   54.3878   22.1576 C.ar      1 UNK         0.0000 
      3 C3          4.3632   54.0954   22.8296 C.ar      1 UNK         0.0000 
      4 C4          4.3365   54.0972   24.2204 C.ar      1 UNK         0.0000 
      5 C5          5.4933   54.3764   24.9659 C.ar      1 UNK         0.0000 
      6 C6          6.6751   54.6712   24.2737 C.ar      1 UNK         0.0000 
      7 C7          6.7041   54.6790   22.8818 C.ar      1 UNK         0.0000 
      8 C8          5.4709   54.3362   26.5117 C.3       1 UNK         0.0000 
      9 H9          5.2085   55.3507   26.8168 H         1 UNK         0.0000 
     10 C10         6.8270   54.0615   27.1853 C.3       1 UNK         0.0000 
     11 N11         4.4832   53.4144   27.0776 N.am      1 UNK         0.0000 
     12 C12         3.2163   53.7312   27.3814 C.2       1 UNK         0.0000 
     13 O13         2.7993   54.8817   27.2822 O.2       1 UNK         0.0000 
     14 C14         2.3296   52.5908   27.9409 C.3       1 UNK         0.0000 
     15 H15         2.9896   51.8279   28.3557 H         1 UNK         0.0000 
     16 C16         1.5475   51.9394   26.7845 C.3       1 UNK         0.0000 
     17 N17         0.2103   52.4978   26.8364 N.am      1 UNK         0.0000 
     18 C18         0.0677   53.4137   27.9767 C.3       1 UNK         0.0000 
     19 C19         1.2184   53.0268   28.9313 C.3       1 UNK         0.0000 
     20 C20         0.8258   51.7937   29.7905 C.3       1 UNK         0.0000 
     21 C21        -0.4087   52.0917   30.6562 C.3       1 UNK         0.0000 
     22 N22        -0.0723   53.2637   31.6062 N.4       1 UNK         0.0000 
     23 C23         0.4348   54.5199   30.8798 C.3       1 UNK         0.0000 
     24 C24         1.6184   54.1058   29.9830 C.3       1 UNK         0.0000 
     25 C25        -0.7468   52.0434   25.9864 C.2       1 UNK         0.0000 
     26 O26        -0.4850   51.1985   25.1244 O.2       1 UNK         0.0000 
     27 C27        -2.1884   52.6049   26.0423 C.3       1 UNK         0.0000 
     28 C28        -2.7013   52.8980   24.6062 C.3       1 UNK         0.0000 
     29 C29        -4.1663   53.3617   24.6891 C.3       1 UNK         0.0000 
     30 O30        -4.9624   52.3563   25.3154 O.3       1 UNK         0.0000 
     31 C31        -4.5772   52.0211   26.6489 C.3       1 UNK         0.0000 
     32 C32        -3.1050   51.5582   26.7194 C.3       1 UNK         0.0000 
     33 H33         5.1894   53.4271   20.2652 H         1 UNK         0.0000 
     34 H34         4.9103   55.1599   20.2492 H         1 UNK         0.0000 
     35 H35         6.5660   54.5253   20.2342 H         1 UNK         0.0000 
     36 H36         3.4615   53.8755   22.2752 H         1 UNK         0.0000 
     37 H37         3.3979   53.8741   24.7026 H         1 UNK         0.0000 
     38 H38         7.5865   54.8972   24.7998 H         1 UNK         0.0000 
     39 H39         7.6277   54.9095   22.3716 H         1 UNK         0.0000 
     40 H40         7.5048   54.8954   27.0340 H         1 UNK         0.0000 
     41 H41         6.7214   53.9570   28.2665 H         1 UNK         0.0000 
     42 H42         7.2924   53.1501   26.8099 H         1 UNK         0.0000 
     43 H43         4.7641   52.4440   27.1197 H         1 UNK         0.0000 
     44 H44         2.0281   52.0973   25.8158 H         1 UNK         0.0000 
     45 H45         1.4956   50.8645   26.9704 H         1 UNK         0.0000 
     46 H46        -0.8956   53.4259   28.4548 H         1 UNK         0.0000 
     47 H47         0.3046   54.4332   27.6819 H         1 UNK         0.0000 
     48 H48         0.5697   50.9348   29.1614 H         1 UNK         0.0000 
     49 H49         1.6680   51.4601   30.3951 H         1 UNK         0.0000 
     50 H50        -1.2952   52.3562   30.0897 H         1 UNK         0.0000 
     51 H51        -0.6899   51.2541   31.2804 H         1 UNK         0.0000 
     52 H52        -0.8862   53.4376   32.1857 H         1 UNK         0.0000 
     53 H53        -0.4155   54.8974   30.3171 H         1 UNK         0.0000 
     54 H54         0.7086   55.2420   31.6514 H         1 UNK         0.0000 
     55 H55         2.4751   53.7548   30.5542 H         1 UNK         0.0000 
     56 H56         1.9524   55.0257   29.5071 H         1 UNK         0.0000 
     57 H57        -2.1622   53.5297   26.6145 H         1 UNK         0.0000 
     58 H58        -2.1415   53.6902   24.1026 H         1 UNK         0.0000 
     59 H59        -2.7262   51.9924   23.9961 H         1 UNK         0.0000 
     60 H60        -4.2315   54.2952   25.2525 H         1 UNK         0.0000 
     61 H61        -4.5612   53.5634   23.6960 H         1 UNK         0.0000 
     62 H62        -4.7202   52.8961   27.2804 H         1 UNK         0.0000 
     63 H63        -5.2412   51.2434   27.0283 H         1 UNK         0.0000 
     64 H64        -3.0795   50.6038   26.1873 H         1 UNK         0.0000 
     65 H65        -2.8570   51.4224   27.7732 H         1 UNK         0.0000 
     66 H66         0.6286   52.9366   32.2565 H         1 UNK         0.0000 
@<TRIPOS>BOND
     1    1    2 1    
     2    1   33 1    
     3    1   34 1    
     4    1   35 1    
     5    2    7 ar   
     6    2    3 ar   
     7    3    4 ar   
     8    3   36 1    
     9    4    5 ar   
    10    4   37 1    
    11    5    6 ar   
    12    5    8 1    
    13    6    7 ar   
    14    6   38 1    
    15    7   39 1    
    16    8    9 1    
    17    8   10 1    
    18    8   11 1    
    19   10   40 1    
    20   10   41 1    
    21   10   42 1    
    22   11   12 am   BACKBONE|DICT|INTERRES
    23   11   43 1    
    24   12   13 2    
    25   12   14 1    
    26   14   15 1    
    27   14   19 1    
    28   14   16 1    
    29   16   17 1    
    30   16   44 1    
    31   16   45 1    
    32   17   18 1    
    33   17   25 am   BACKBONE|DICT|INTERRES
    34   18   19 1    
    35   18   46 1    
    36   18   47 1    
    37   19   24 1    
    38   19   20 1    
    39   20   21 1    
    40   20   48 1    
    41   20   49 1    
    42   21   22 1    
    43   21   50 1    
    44   21   51 1    
    45   22   23 1    
    46   22   52 1    
    47   22   66 1    
    48   23   24 1    
    49   23   53 1    
    50   23   54 1    
    51   24   55 1    
    52   24   56 1    
    53   25   26 2    
    54   25   27 1    
    55   27   32 1    
    56   27   28 1    
    57   27   57 1    
    58   28   29 1    
    59   28   58 1    
    60   28   59 1    
    61   29   30 1    
    62   29   60 1    
    63   29   61 1    
    64   30   31 1    
    65   31   32 1    
    66   31   62 1    
    67   31   63 1    
    68   32   64 1    
    69   32   65 1    
@<TRIPOS>SUBSTRUCTURE
     1 UNK         1 GROUP             0       ****    0 ROOT    
