@<TRIPOS>MOLECULE
ZINC43424803_6163
38   40    1
SMALL
USER_CHARGES


@<TRIPOS>ATOM
      1 C1         -0.0413   51.2047   27.5854 C.ar      1 UNK         0.0000 
      2 C2          0.8427   52.2508   27.8138 C.ar      1 UNK         0.0000 
      3 C3          1.4707   52.9136   26.7503 C.ar      1 UNK         0.0000 
      4 C4          1.1796   52.4967   25.4286 C.ar      1 UNK         0.0000 
      5 C5          0.3044   51.4256   25.2111 C.ar      1 UNK         0.0000 
      6 C6         -0.2947   50.7791   26.2874 C.ar      1 UNK         0.0000 
      7 N7         -1.1383   49.6964   26.0817 N.pl3     1 UNK         0.0000 
      8 C8          1.7117   53.1731   24.2473 C.1       1 UNK         0.0000 
      9 N9          2.1268   53.7085   23.3090 N.1       1 UNK         0.0000 
     10 N10         2.3821   53.9258   27.0355 N.pl3     1 UNK         0.0000 
     11 C11         2.1016   54.9249   28.0817 C.3       1 UNK         0.0000 
     12 C12         2.8902   54.7198   29.3878 C.3       1 UNK         0.0000 
     13 O13         4.2785   54.6165   29.1021 O.3       1 UNK         0.0000 
     14 C14         4.5674   53.5148   28.2454 C.3       1 UNK         0.0000 
     15 H15         4.2390   52.5795   28.7049 H         1 UNK         0.0000 
     16 C16         3.8342   53.6967   26.8766 C.3       1 UNK         0.0000 
     17 H17         3.9703   52.7380   26.3821 H         1 UNK         0.0000 
     18 C18         4.4914   54.7172   25.9237 C.3       1 UNK         0.0000 
     19 C19         6.0179   54.5685   25.8102 C.3       1 UNK         0.0000 
     20 C20         6.6813   54.5557   27.1938 C.3       1 UNK         0.0000 
     21 C21         6.1019   53.4462   28.0817 C.3       1 UNK         0.0000 
     22 H22        -0.5088   50.7069   28.4230 H         1 UNK         0.0000 
     23 H23         1.0408   52.5329   28.8355 H         1 UNK         0.0000 
     24 H24         0.0788   51.0920   24.2070 H         1 UNK         0.0000 
     25 H25        -1.2956   49.1380   26.9381 H         1 UNK         0.0000 
     26 H26        -1.0182   49.1880   25.2199 H         1 UNK         0.0000 
     27 H27         2.3318   55.9103   27.6817 H         1 UNK         0.0000 
     28 H28         1.0311   54.9643   28.2888 H         1 UNK         0.0000 
     29 H29         2.7123   55.5564   30.0638 H         1 UNK         0.0000 
     30 H30         2.5462   53.8216   29.9023 H         1 UNK         0.0000 
     31 H31         4.0486   54.6829   24.9305 H         1 UNK         0.0000 
     32 H32         4.2970   55.6967   26.3258 H         1 UNK         0.0000 
     33 H33         6.4261   55.3818   25.2082 H         1 UNK         0.0000 
     34 H34         6.2579   53.6476   25.2773 H         1 UNK         0.0000 
     35 H35         6.5362   55.5209   27.6817 H         1 UNK         0.0000 
     36 H36         7.7578   54.4230   27.0974 H         1 UNK         0.0000 
     37 H37         6.5945   53.4527   29.0514 H         1 UNK         0.0000 
     38 H38         6.3587   52.4967   27.6178 H         1 UNK         0.0000 
@<TRIPOS>BOND
     1    1    6 ar   
     2    1    2 ar   
     3    1   22 1    
     4    2    3 ar   
     5    2   23 1    
     6    3    4 ar   
     7    3   10 1    
     8    4    5 ar   
     9    4    8 1    
    10    5    6 ar   
    11    5   24 1    
    12    6    7 1    
    13    7   25 1    
    14    7   26 1    
    15    8    9 3    
    16   10   16 1    
    17   10   11 1    
    18   11   12 1    
    19   11   27 1    
    20   11   28 1    
    21   12   13 1    
    22   12   29 1    
    23   12   30 1    
    24   13   14 1    
    25   14   15 1    
    26   14   21 1    
    27   14   16 1    
    28   16   17 1    
    29   16   18 1    
    30   18   19 1    
    31   18   31 1    
    32   18   32 1    
    33   19   20 1    
    34   19   33 1    
    35   19   34 1    
    36   20   21 1    
    37   20   35 1    
    38   20   36 1    
    39   21   37 1    
    40   21   38 1    
@<TRIPOS>SUBSTRUCTURE
     1 UNK         1 GROUP             0       ****    0 ROOT    
