@<TRIPOS>MOLECULE
ZINC36507945_5753
84   86    1
SMALL
USER_CHARGES


@<TRIPOS>ATOM
      1 C1          5.6492   53.3859   27.4803 C.3       1 UNK         0.0000 
      2 C2          4.4099   54.2835   27.4205 C.3       1 UNK         0.0000 
      3 C3          4.0669   54.7790   26.0026 C.3       1 UNK         0.0000 
      4 C4          3.2497   53.8062   25.1234 C.3       1 UNK         0.0000 
      5 C5          2.6328   54.5328   23.9134 C.3       1 UNK         0.0000 
      6 C6          1.9046   53.6714   22.8530 C.3       1 UNK         0.0000 
      7 N7          2.6135   52.5320   22.1939 N.am      1 UNK         0.0000 
      8 C8          2.0027   51.1365   22.2817 C.3       1 UNK         0.0000 
      9 H9          2.6807   50.6209   22.9611 H         1 UNK         0.0000 
     10 C10         0.6501   51.0548   23.0104 C.ar      1 UNK         0.0000 
     11 C11         0.6125   50.4239   24.2611 C.ar      1 UNK         0.0000 
     12 C12        -0.5738   50.3044   24.9822 C.ar      1 UNK         0.0000 
     13 C13        -1.7576   50.8062   24.4515 C.ar      1 UNK         0.0000 
     14 C14        -1.7547   51.4067   23.1950 C.ar      1 UNK         0.0000 
     15 C15        -0.5692   51.5225   22.4618 C.ar      1 UNK         0.0000 
     16 C16        -0.6588   52.1414   21.0721 C.3       1 UNK         0.0000 
     17 C17         2.0148   50.2441   20.9810 C.2       1 UNK         0.0000 
     18 O18         2.8767   50.3911   20.1228 O.2       1 UNK         0.0000 
     19 N19         1.0280   49.3303   20.8400 N.am      1 UNK         0.0000 
     20 C20         0.7631   48.4462   19.6989 C.3       1 UNK         0.0000 
     21 C21        -0.5513   47.6924   19.9958 C.3       1 UNK         0.0000 
     22 C22         1.9035   47.4250   19.5300 C.3       1 UNK         0.0000 
     23 C23         0.5704   49.2344   18.3781 C.3       1 UNK         0.0000 
     24 C24         3.8998   52.7023   21.7349 C.2       1 UNK         0.0000 
     25 O25         4.7041   51.7747   21.6199 O.2       1 UNK         0.0000 
     26 C26         4.4357   54.0980   21.3014 C.3       1 UNK         0.0000 
     27 H27         3.6684   54.8705   21.3445 H         1 UNK         0.0000 
     28 C28         5.6761   54.4963   22.1372 C.3       1 UNK         0.0000 
     29 C29         6.4434   55.4567   21.2515 C.3       1 UNK         0.0000 
     30 C30         6.2647   54.8393   19.8741 C.3       1 UNK         0.0000 
     31 N31         4.9578   54.1669   19.9123 N.am      1 UNK         0.0000 
     32 C32         4.2932   53.6707   18.7778 C.2       1 UNK         0.0000 
     33 O33         3.1376   53.2432   18.7539 O.2       1 UNK         0.0000 
     34 O34         5.1060   53.6949   17.6957 O.3       1 UNK         0.0000 
     35 C35         4.7564   53.0043   16.4990 C.3       1 UNK         0.0000 
     36 C36         5.9951   52.6687   15.6723 C.ar      1 UNK         0.0000 
     37 C37         5.8592   52.4886   14.2940 C.ar      1 UNK         0.0000 
     38 C38         6.9664   52.1462   13.5210 C.ar      1 UNK         0.0000 
     39 C39         8.2094   51.9810   14.1305 C.ar      1 UNK         0.0000 
     40 C40         8.3539   52.1535   15.5047 C.ar      1 UNK         0.0000 
     41 C41         7.2475   52.4968   16.2769 C.ar      1 UNK         0.0000 
     42 H42         5.8574   53.0686   28.5006 H         1 UNK         0.0000 
     43 H43         5.5027   52.4967   26.8797 H         1 UNK         0.0000 
     44 H44         6.5338   53.9002   27.1076 H         1 UNK         0.0000 
     45 H45         4.5889   55.1466   28.0636 H         1 UNK         0.0000 
     46 H46         3.5528   53.7666   27.8557 H         1 UNK         0.0000 
     47 H47         4.9781   55.0736   25.4816 H         1 UNK         0.0000 
     48 H48         3.5044   55.6972   26.1111 H         1 UNK         0.0000 
     49 H49         2.4540   53.3421   25.7070 H         1 UNK         0.0000 
     50 H50         3.8980   52.9981   24.7898 H         1 UNK         0.0000 
     51 H51         3.3692   55.1756   23.4507 H         1 UNK         0.0000 
     52 H52         1.9020   55.2594   24.2656 H         1 UNK         0.0000 
     53 H53         1.5215   54.3314   22.0818 H         1 UNK         0.0000 
     54 H54         1.0130   53.3271   23.3637 H         1 UNK         0.0000 
     55 H55         1.5044   49.9952   24.6847 H         1 UNK         0.0000 
     56 H56        -0.5781   49.8168   25.9465 H         1 UNK         0.0000 
     57 H57        -2.6772   50.7138   25.0086 H         1 UNK         0.0000 
     58 H58        -2.6883   51.7663   22.7906 H         1 UNK         0.0000 
     59 H59         0.1108   52.8950   20.9146 H         1 UNK         0.0000 
     60 H60        -0.5392   51.3900   20.2960 H         1 UNK         0.0000 
     61 H61        -1.6233   52.6193   20.9078 H         1 UNK         0.0000 
     62 H62         0.3565   49.2741   21.5917 H         1 UNK         0.0000 
     63 H63        -1.3884   48.3830   20.1083 H         1 UNK         0.0000 
     64 H64        -0.8113   47.0057   19.1883 H         1 UNK         0.0000 
     65 H65        -0.4953   47.1049   20.9132 H         1 UNK         0.0000 
     66 H66         2.8293   47.9060   19.2110 H         1 UNK         0.0000 
     67 H67         2.1165   46.9095   20.4680 H         1 UNK         0.0000 
     68 H68         1.6626   46.6745   18.7739 H         1 UNK         0.0000 
     69 H69         1.4714   49.7757   18.0855 H         1 UNK         0.0000 
     70 H70         0.3280   48.5689   17.5484 H         1 UNK         0.0000 
     71 H71        -0.2367   49.9620   18.4558 H         1 UNK         0.0000 
     72 H72         5.4554   54.9271   23.1086 H         1 UNK         0.0000 
     73 H73         6.3041   53.6293   22.3387 H         1 UNK         0.0000 
     74 H74         5.9632   56.4355   21.2815 H         1 UNK         0.0000 
     75 H75         7.4867   55.5808   21.5401 H         1 UNK         0.0000 
     76 H76         6.3254   55.6001   19.0937 H         1 UNK         0.0000 
     77 H77         7.0382   54.0974   19.6791 H         1 UNK         0.0000 
     78 H78         4.2385   52.0711   16.7275 H         1 UNK         0.0000 
     79 H79         4.0791   53.6314   15.9166 H         1 UNK         0.0000 
     80 H80         4.8946   52.6046   13.8203 H         1 UNK         0.0000 
     81 H81         6.8615   52.0025   12.4552 H         1 UNK         0.0000 
     82 H82         9.0670   51.7104   13.5319 H         1 UNK         0.0000 
     83 H83         9.3190   52.0118   15.9731 H         1 UNK         0.0000 
     84 H84         7.3626   52.6082   17.3455 H         1 UNK         0.0000 
@<TRIPOS>BOND
     1    1    2 1    
     2    1   42 1    
     3    1   43 1    
     4    1   44 1    
     5    2    3 1    
     6    2   45 1    
     7    2   46 1    
     8    3    4 1    
     9    3   47 1    
    10    3   48 1    
    11    4    5 1    
    12    4   49 1    
    13    4   50 1    
    14    5    6 1    
    15    5   51 1    
    16    5   52 1    
    17    6    7 1    
    18    6   53 1    
    19    6   54 1    
    20    7    8 1    
    21    7   24 am   BACKBONE|DICT|INTERRES
    22    8    9 1    
    23    8   10 1    
    24    8   17 1    
    25   10   15 ar   
    26   10   11 ar   
    27   11   12 ar   
    28   11   55 1    
    29   12   13 ar   
    30   12   56 1    
    31   13   14 ar   
    32   13   57 1    
    33   14   15 ar   
    34   14   58 1    
    35   15   16 1    
    36   16   59 1    
    37   16   60 1    
    38   16   61 1    
    39   17   18 2    
    40   17   19 am   BACKBONE|DICT|INTERRES
    41   19   20 1    
    42   19   62 1    
    43   20   21 1    
    44   20   22 1    
    45   20   23 1    
    46   21   63 1    
    47   21   64 1    
    48   21   65 1    
    49   22   66 1    
    50   22   67 1    
    51   22   68 1    
    52   23   69 1    
    53   23   70 1    
    54   23   71 1    
    55   24   25 2    
    56   24   26 1    
    57   26   27 1    
    58   26   31 1    
    59   26   28 1    
    60   28   29 1    
    61   28   72 1    
    62   28   73 1    
    63   29   30 1    
    64   29   74 1    
    65   29   75 1    
    66   30   31 1    
    67   30   76 1    
    68   30   77 1    
    69   31   32 am   BACKBONE|DICT|INTERRES
    70   32   33 2    
    71   32   34 1    
    72   34   35 1    
    73   35   36 1    
    74   35   78 1    
    75   35   79 1    
    76   36   41 ar   
    77   36   37 ar   
    78   37   38 ar   
    79   37   80 1    
    80   38   39 ar   
    81   38   81 1    
    82   39   40 ar   
    83   39   82 1    
    84   40   41 ar   
    85   40   83 1    
    86   41   84 1    
@<TRIPOS>SUBSTRUCTURE
     1 UNK         1 GROUP             0       ****    0 ROOT    
