@<TRIPOS>MOLECULE
ZINC43424693_6162
36   38    1
SMALL
USER_CHARGES


@<TRIPOS>ATOM
      1 C1          3.8300   54.1034   26.0360 C.ar      1 UNK         0.0000 
      2 C2          4.5653   54.4972   24.9160 C.ar      1 UNK         0.0000 
      3 C3          5.9404   54.6774   25.0504 C.ar      1 UNK         0.0000 
      4 N4          6.5910   54.4977   26.2224 N.ar      1 UNK         0.0000 
      5 C5          5.8598   54.0956   27.2947 C.ar      1 UNK         0.0000 
      6 C6          4.4714   53.8597   27.2613 C.ar      1 UNK         0.0000 
      7 N7          3.7791   53.4325   28.3975 N.pl3     1 UNK         0.0000 
      8 C8          4.3830   52.4240   29.2866 C.3       1 UNK         0.0000 
      9 C9          3.8693   52.4895   30.7369 C.3       1 UNK         0.0000 
     10 O10         2.4492   52.4638   30.7664 O.3       1 UNK         0.0000 
     11 C11         1.8718   53.5191   30.0005 C.3       1 UNK         0.0000 
     12 H12         2.1965   54.4865   30.3877 H         1 UNK         0.0000 
     13 C13         2.3006   53.3808   28.5056 C.3       1 UNK         0.0000 
     14 H14         1.8929   54.2662   28.0159 H         1 UNK         0.0000 
     15 C15         1.6653   52.1103   27.8658 C.3       1 UNK         0.0000 
     16 C16         0.1361   52.0593   28.0418 C.3       1 UNK         0.0000 
     17 C17        -0.2660   52.1837   29.5222 C.3       1 UNK         0.0000 
     18 C18         0.3392   53.4417   30.1709 C.3       1 UNK         0.0000 
     19 N19         6.7041   55.0538   23.9538 N.pl3     1 UNK         0.0000 
     20 H20         2.7656   53.9675   25.9279 H         1 UNK         0.0000 
     21 H21         4.0734   54.6576   23.9681 H         1 UNK         0.0000 
     22 H22         6.4264   53.9921   28.2076 H         1 UNK         0.0000 
     23 H23         4.1964   51.4333   28.8821 H         1 UNK         0.0000 
     24 H24         5.4655   52.5145   29.3141 H         1 UNK         0.0000 
     25 H25         4.2549   51.6508   31.3170 H         1 UNK         0.0000 
     26 H26         4.2495   53.3962   31.2071 H         1 UNK         0.0000 
     27 H27         1.9050   52.0536   26.8053 H         1 UNK         0.0000 
     28 H28         2.0757   51.2080   28.3205 H         1 UNK         0.0000 
     29 H29        -0.2545   51.1265   27.6314 H         1 UNK         0.0000 
     30 H30        -0.3274   52.8613   27.4662 H         1 UNK         0.0000 
     31 H31         0.0599   51.3013   30.0713 H         1 UNK         0.0000 
     32 H32        -1.3503   52.1928   29.6125 H         1 UNK         0.0000 
     33 H33         0.0677   53.5120   31.2261 H         1 UNK         0.0000 
     34 H34        -0.1054   54.3097   29.6841 H         1 UNK         0.0000 
     35 H35         6.2691   55.1182   23.0462 H         1 UNK         0.0000 
     36 H36         7.7123   55.1001   24.0525 H         1 UNK         0.0000 
@<TRIPOS>BOND
     1    1    6 ar   
     2    1    2 ar   
     3    1   20 1    
     4    2    3 ar   
     5    2   21 1    
     6    3    4 ar   
     7    3   19 1    
     8    4    5 ar   
     9    5    6 ar   
    10    5   22 1    
    11    6    7 1    
    12    7   13 1    
    13    7    8 1    
    14    8    9 1    
    15    8   23 1    
    16    8   24 1    
    17    9   10 1    
    18    9   25 1    
    19    9   26 1    
    20   10   11 1    
    21   11   12 1    
    22   11   18 1    
    23   11   13 1    
    24   13   14 1    
    25   13   15 1    
    26   15   16 1    
    27   15   27 1    
    28   15   28 1    
    29   16   17 1    
    30   16   29 1    
    31   16   30 1    
    32   17   18 1    
    33   17   31 1    
    34   17   32 1    
    35   18   33 1    
    36   18   34 1    
    37   19   35 1    
    38   19   36 1    
@<TRIPOS>SUBSTRUCTURE
     1 UNK         1 GROUP             0       ****    0 ROOT    
