ZINC16612386_3417
                    3D
 Schrodinger Suite 2024-2.
 63 65  0  0  1  0            999 V2000
   -0.9999   51.5959   28.7776 C   0  0  0  0  0  0
   -0.1231   51.0463   27.6270 C   0  0  0  0  0  0
    0.2006   52.0375   26.5642 N   0  0  0  0  0  0
    1.4331   52.7060   26.5326 C   0  0  0  0  0  0
    1.8944   53.3112   25.3864 C   0  0  0  0  0  0
    1.0813   53.1743   24.0688 C   0  0  2  0  0  0
    1.0967   54.1180   23.5199 H   0  0  0  0  0  0
   -0.3135   52.8951   24.4449 N   0  0  0  0  0  0
   -0.7356   52.2055   25.5443 C   0  0  0  0  0  0
   -2.3175   51.6694   25.4610 S   0  0  0  0  0  0
    1.6486   52.1600   23.0614 C   0  0  0  0  0  0
    1.3850   50.7871   23.1675 C   0  0  0  0  0  0
    1.8961   49.8958   22.2237 C   0  0  0  0  0  0
    2.7053   50.3590   21.1882 C   0  0  0  0  0  0
    3.0363   51.7131   21.1000 C   0  0  0  0  0  0
    2.4679   52.6093   22.0177 C   0  0  0  0  0  0
    3.9331   52.0966   20.0820 N   0  0  0  0  0  0
    4.7338   53.1830   20.0531 C   0  0  0  0  0  0
    4.8097   54.0215   20.9493 O   0  0  0  0  0  0
    5.4820   53.1883   18.9314 N   0  0  0  0  0  0
    6.4761   54.1105   18.5364 C   0  0  0  0  0  0
    6.5484   55.4191   19.0419 C   0  0  0  0  0  0
    7.5827   56.2734   18.6638 C   0  0  0  0  0  0
    8.5625   55.8367   17.7732 C   0  0  0  0  0  0
    8.4767   54.5533   17.2329 C   0  0  0  0  0  0
    7.4364   53.6907   17.5962 C   0  0  0  0  0  0
    7.3813   52.3118   16.9436 C   0  0  0  0  0  0
    9.6959   56.7594   17.3711 C   0  0  0  0  0  0
    3.1920   54.0441   25.2209 C   0  0  0  0  0  0
    3.5490   54.4978   24.1332 O   0  0  0  0  0  0
    3.9533   54.1844   26.3355 O   0  0  0  0  0  0
    5.1863   54.9012   26.3261 C   0  0  0  0  0  0
    6.3571   54.0259   25.8609 C   0  0  0  0  0  0
    2.1545   52.7946   27.8931 C   0  0  0  0  0  0
   -1.0248   50.8970   29.6108 H   0  0  0  0  0  0
   -2.0356   51.7239   28.4659 H   0  0  0  0  0  0
   -0.6418   52.5511   29.1628 H   0  0  0  0  0  0
    0.7952   50.6242   28.0351 H   0  0  0  0  0  0
   -0.6093   50.1674   27.1953 H   0  0  0  0  0  0
   -1.0234   52.9704   23.7307 H   0  0  0  0  0  0
    0.7739   50.4014   23.9692 H   0  0  0  0  0  0
    1.6778   48.8432   22.3069 H   0  0  0  0  0  0
    3.1052   49.6513   20.4739 H   0  0  0  0  0  0
    2.6580   53.6686   21.9276 H   0  0  0  0  0  0
    4.0697   51.4242   19.3383 H   0  0  0  0  0  0
    5.4488   52.3419   18.3762 H   0  0  0  0  0  0
    5.8087   55.8021   19.7271 H   0  0  0  0  0  0
    7.6222   57.2759   19.0629 H   0  0  0  0  0  0
    9.2251   54.2257   16.5246 H   0  0  0  0  0  0
    8.1455   52.1793   16.1746 H   0  0  0  0  0  0
    7.5059   51.5198   17.6816 H   0  0  0  0  0  0
    6.4067   52.1558   16.4732 H   0  0  0  0  0  0
   10.0049   56.5702   16.3423 H   0  0  0  0  0  0
    9.3872   57.8040   17.4176 H   0  0  0  0  0  0
   10.5559   56.6151   18.0261 H   0  0  0  0  0  0
    5.1070   55.7916   25.7024 H   0  0  0  0  0  0
    5.3783   55.2522   27.3413 H   0  0  0  0  0  0
    7.2951   54.5779   25.8996 H   0  0  0  0  0  0
    6.4617   53.1448   26.4950 H   0  0  0  0  0  0
    6.2159   53.6910   24.8330 H   0  0  0  0  0  0
    2.4260   53.8266   28.1217 H   0  0  0  0  0  0
    1.5726   52.4977   28.7625 H   0  0  0  0  0  0
    3.0592   52.1832   27.8777 H   0  0  0  0  0  0
  1  2  1  0  0  0
  1 35  1  0  0  0
  1 36  1  0  0  0
  1 37  1  0  0  0
  2  3  1  0  0  0
  2 38  1  0  0  0
  2 39  1  0  0  0
  3  9  1  0  0  0
  3  4  1  0  0  0
  4  5  2  0  0  0
  4 34  1  0  0  0
  5  6  1  0  0  0
  5 29  1  0  0  0
  6  7  1  0  0  0
  6  8  1  0  0  0
  6 11  1  0  0  0
  8  9  1  0  0  0
  8 40  1  0  0  0
  9 10  2  0  0  0
 11 16  2  0  0  0
 11 12  1  0  0  0
 12 13  2  0  0  0
 12 41  1  0  0  0
 13 14  1  0  0  0
 13 42  1  0  0  0
 14 15  2  0  0  0
 14 43  1  0  0  0
 15 16  1  0  0  0
 15 17  1  0  0  0
 16 44  1  0  0  0
 17 18  1  0  0  0
 17 45  1  0  0  0
 18 19  2  0  0  0
 18 20  1  0  0  0
 20 21  1  0  0  0
 20 46  1  0  0  0
 21 26  2  0  0  0
 21 22  1  0  0  0
 22 23  2  0  0  0
 22 47  1  0  0  0
 23 24  1  0  0  0
 23 48  1  0  0  0
 24 25  2  0  0  0
 24 28  1  0  0  0
 25 26  1  0  0  0
 25 49  1  0  0  0
 26 27  1  0  0  0
 27 50  1  0  0  0
 27 51  1  0  0  0
 27 52  1  0  0  0
 28 53  1  0  0  0
 28 54  1  0  0  0
 28 55  1  0  0  0
 29 30  2  0  0  0
 29 31  1  0  0  0
 31 32  1  0  0  0
 32 33  1  0  0  0
 32 56  1  0  0  0
 32 57  1  0  0  0
 33 58  1  0  0  0
 33 59  1  0  0  0
 33 60  1  0  0  0
 34 61  1  0  0  0
 34 62  1  0  0  0
 34 63  1  0  0  0
M  END
> <i_i_glide_confnum>
5

> <i_i_glide_lignum>
3418

> <i_i_glide_posenum>
241

> <i_i_glide_rotatable_bonds>
9

> <i_m_Source_File_Index>
5472

> <b_m_subgroup_collapsed>
0

> <r_i_docking_score>
-5.20027

> <r_i_glide_ecoul>
-3.07769

> <r_i_glide_eff_state_penalty>
0

> <r_i_glide_einternal>
2.64524

> <r_i_glide_emodel>
-62.5301

> <r_i_glide_energy>
-47.5262

> <r_i_glide_erotb>
0.648707

> <r_i_glide_esite>
-0.192701

> <r_i_glide_evdw>
-44.4485

> <r_i_glide_gscore>
-5.20027

> <r_i_glide_hbond>
-0.287579

> <r_i_glide_ligand_efficiency>
-0.157584

> <r_i_glide_ligand_efficiency_ln>
-1.15651

> <r_i_glide_ligand_efficiency_sa>
-0.505456

> <r_i_glide_lipo>
-2.1154

> <r_i_glide_metal>
0

> <r_i_glide_rewards>
-0.569221

> <s_i_glide_gridfile>
wee1_glide-grid

> <s_m_Source_File>
wee1_decoys_glide_SP.sdf

> <s_m_Source_Path>
/Users/zhangxujun/Desktop

> <s_m_entry_id>
5747

> <s_m_entry_name>
wee1_decoys_glide_SP.5472

> <s_m_subgroup_title>
wee1_decoys_glide_SP

> <s_m_subgroupid>
wee1_decoys_glide_SP


$$$$
