ZINC08972200_4970
                    3D
 Schrodinger Suite 2024-2.
 63 67  0  0  1  0            999 V2000
    6.8496   53.5282   28.0433 C   0  0  0  0  0  0
    6.5663   54.8618   27.3393 C   0  0  0  0  0  0
    5.9781   54.6586   26.0573 O   0  0  0  0  0  0
    4.6404   54.4509   25.9200 C   0  0  0  0  0  0
    3.8483   54.4972   26.8662 O   0  0  0  0  0  0
    4.2253   54.0947   24.5227 C   0  0  0  0  0  0
    5.1293   54.0958   23.4469 C   0  0  0  0  0  0
    4.7195   53.6777   22.1807 C   0  0  0  0  0  0
    3.4065   53.2503   21.9677 C   0  0  0  0  0  0
    2.4937   53.2782   23.0298 C   0  0  0  0  0  0
    2.9013   53.6968   24.2923 C   0  0  0  0  0  0
    3.0585   52.8967   20.6472 N   0  0  0  0  0  0
    1.9207   52.3248   20.1816 C   0  0  0  0  0  0
    1.1209   51.7166   20.8936 O   0  0  0  0  0  0
    1.5654   52.5262   18.6768 C   0  0  1  0  0  0
    0.5928   53.0216   18.7543 H   0  0  0  0  0  0
    2.5341   53.4475   17.9086 C   0  0  0  0  0  0
    3.5653   52.4975   17.3094 C   0  0  2  0  0  0
    4.1756   52.0976   18.1209 H   0  0  0  0  0  0
    1.4839   51.2139   17.8154 C   0  0  1  0  0  0
    1.3051   49.8550   18.4340 C   0  0  0  0  0  0
    2.1154   49.1083   19.2900 C   0  0  0  0  0  0
    1.6716   47.8628   19.7355 C   0  0  0  0  0  0
    0.4318   47.3587   19.3240 C   0  0  0  0  0  0
   -0.3737   48.1041   18.4612 C   0  0  0  0  0  0
    0.0816   49.3478   18.0260 C   0  0  0  0  0  0
   -0.5097   50.2257   17.1356 N   0  0  0  0  0  0
    0.2677   51.2869   16.8622 C   0  0  0  0  0  0
    0.0570   52.1493   16.0112 O   0  0  0  0  0  0
    4.5035   53.1035   16.2534 C   0  0  0  0  0  0
    5.4695   54.1125   16.8590 C   0  0  0  0  0  0
    5.2237   55.4846   16.7431 C   0  0  0  0  0  0
    6.1099   56.3995   17.3102 C   0  0  0  0  0  0
    7.2387   55.9407   17.9859 C   0  0  0  0  0  0
    7.4878   54.5737   18.1061 C   0  0  0  0  0  0
    6.6013   53.6599   17.5433 C   0  0  0  0  0  0
    7.3542   53.6971   28.9955 H   0  0  0  0  0  0
    7.4971   52.8985   27.4337 H   0  0  0  0  0  0
    5.9304   52.9746   28.2408 H   0  0  0  0  0  0
    5.9421   55.5016   27.9651 H   0  0  0  0  0  0
    7.5043   55.3891   27.2033 H   0  0  0  0  0  0
    6.1592   54.4002   23.5823 H   0  0  0  0  0  0
    5.4332   53.6883   21.3703 H   0  0  0  0  0  0
    1.4610   52.9946   22.9020 H   0  0  0  0  0  0
    2.1736   53.6879   25.0930 H   0  0  0  0  0  0
    3.7209   53.1941   19.9489 H   0  0  0  0  0  0
    1.9990   53.9750   17.1153 H   0  0  0  0  0  0
    2.9779   54.2634   18.4808 H   0  0  0  0  0  0
    3.0730   49.4881   19.6167 H   0  0  0  0  0  0
    2.3023   47.2967   20.4044 H   0  0  0  0  0  0
    0.0968   46.3918   19.6723 H   0  0  0  0  0  0
   -1.3231   47.7046   18.1315 H   0  0  0  0  0  0
   -1.3716   50.0458   16.6430 H   0  0  0  0  0  0
    5.0902   52.3059   15.7900 H   0  0  0  0  0  0
    3.9373   53.5573   15.4381 H   0  0  0  0  0  0
    4.3497   55.8460   16.2184 H   0  0  0  0  0  0
    5.9230   57.4614   17.2238 H   0  0  0  0  0  0
    7.9309   56.6488   18.4174 H   0  0  0  0  0  0
    8.3659   54.2252   18.6318 H   0  0  0  0  0  0
    6.7891   52.5989   17.6408 H   0  0  0  0  0  0
    2.7044   51.2979   16.8800 N   0  3  0  0  0  0
    3.2530   50.4239   16.8816 H   0  0  0  0  0  0
    2.3820   51.4333   15.9322 H   0  0  0  0  0  0
  1  2  1  0  0  0
  1 37  1  0  0  0
  1 38  1  0  0  0
  1 39  1  0  0  0
  2  3  1  0  0  0
  2 40  1  0  0  0
  2 41  1  0  0  0
  3  4  1  0  0  0
  4  5  2  0  0  0
  4  6  1  0  0  0
  6 11  2  0  0  0
  6  7  1  0  0  0
  7  8  2  0  0  0
  7 42  1  0  0  0
  8  9  1  0  0  0
  8 43  1  0  0  0
  9 10  2  0  0  0
  9 12  1  0  0  0
 10 11  1  0  0  0
 10 44  1  0  0  0
 11 45  1  0  0  0
 12 13  1  0  0  0
 12 46  1  0  0  0
 13 14  2  0  0  0
 13 15  1  0  0  0
 15 16  1  0  0  0
 15 20  1  0  0  0
 15 17  1  0  0  0
 17 18  1  0  0  0
 17 47  1  0  0  0
 17 48  1  0  0  0
 18 19  1  0  0  0
 18 30  1  0  0  0
 18 61  1  0  0  0
 20 28  1  0  0  0
 20 21  1  0  0  0
 20 61  1  0  0  0
 21 26  2  0  0  0
 21 22  1  0  0  0
 22 23  2  0  0  0
 22 49  1  0  0  0
 23 24  1  0  0  0
 23 50  1  0  0  0
 24 25  2  0  0  0
 24 51  1  0  0  0
 25 26  1  0  0  0
 25 52  1  0  0  0
 26 27  1  0  0  0
 27 28  1  0  0  0
 27 53  1  0  0  0
 28 29  2  0  0  0
 30 31  1  0  0  0
 30 54  1  0  0  0
 30 55  1  0  0  0
 31 36  2  0  0  0
 31 32  1  0  0  0
 32 33  2  0  0  0
 32 56  1  0  0  0
 33 34  1  0  0  0
 33 57  1  0  0  0
 34 35  2  0  0  0
 34 58  1  0  0  0
 35 36  1  0  0  0
 35 59  1  0  0  0
 36 60  1  0  0  0
 61 62  1  0  0  0
 61 63  1  0  0  0
M  CHG  1  61   1
M  END
> <i_i_glide_confnum>
42

> <i_i_glide_lignum>
4971

> <i_i_glide_posenum>
334

> <i_i_glide_rotatable_bonds>
8

> <i_m_Source_File_Index>
4092

> <b_m_subgroup_collapsed>
0

> <r_i_docking_score>
-4.66961

> <r_i_glide_ecoul>
-5.68683

> <r_i_glide_eff_state_penalty>
0

> <r_i_glide_einternal>
10.2707

> <r_i_glide_emodel>
-50.8139

> <r_i_glide_energy>
-41.3351

> <r_i_glide_erotb>
0.638825

> <r_i_glide_esite>
-0.147133

> <r_i_glide_evdw>
-35.6483

> <r_i_glide_gscore>
-4.66961

> <r_i_glide_hbond>
-0.2

> <r_i_glide_ligand_efficiency>
-0.133417

> <r_i_glide_ligand_efficiency_ln>
-1.02508

> <r_i_glide_ligand_efficiency_sa>
-0.436417

> <r_i_glide_lipo>
-1.82414

> <r_i_glide_metal>
0

> <r_i_glide_rewards>
-0.501721

> <s_i_glide_gridfile>
wee1_glide-grid

> <s_m_Source_File>
wee1_decoys_glide_SP.sdf

> <s_m_Source_Path>
/Users/zhangxujun/Desktop

> <s_m_entry_id>
4367

> <s_m_entry_name>
wee1_decoys_glide_SP.4092

> <s_m_subgroup_title>
wee1_decoys_glide_SP

> <s_m_subgroupid>
wee1_decoys_glide_SP


$$$$
