@<TRIPOS>MOLECULE
ZINC41068354_1682
36   38    1
SMALL
USER_CHARGES


@<TRIPOS>ATOM
      1 C1         -1.1774   50.5441   25.4779 C.ar      1 UNK         0.0000 
      2 C2         -1.4691   50.6760   24.1165 C.ar      1 UNK         0.0000 
      3 N3         -1.1483   51.8598   23.6523 N.2       1 UNK         0.0000 
      4 N4         -0.6436   52.4967   24.7142 N.pl3     1 UNK         0.0000 
      5 H5         -0.3042   53.4445   24.6485 H         1 UNK         0.0000 
      6 C6         -0.6371   51.7579   25.8707 C.ar      1 UNK         0.0000 
      7 C7         -0.1030   52.2930   27.1858 C.3       1 UNK         0.0000 
      8 H8         -0.3822   53.3350   27.2822 H         1 UNK         0.0000 
      9 C9         -0.7149   51.6139   28.4325 C.3       1 UNK         0.0000 
     10 C10        -0.1127   52.1780   29.7376 C.3       1 UNK         0.0000 
     11 C11         1.4196   52.0610   29.7207 C.3       1 UNK         0.0000 
     12 N12         1.9975   52.7200   28.5317 N.pl3     1 UNK         0.0000 
     13 C13         1.4435   52.2925   27.2279 C.3       1 UNK         0.0000 
     14 S14         2.6244   54.3554   28.7048 S.o2      1 UNK         0.0000 
     15 O15         3.0844   54.5324   30.0817 O.2       1 UNK         0.0000 
     16 O16         1.6927   55.2967   28.0817 O.2       1 UNK         0.0000 
     17 C17         4.1175   54.2738   27.6917 C.2       1 UNK         0.0000 
     18 C18         4.2381   54.5913   26.3418 C.2       1 UNK         0.0000 
     19 C19         5.5623   54.4972   25.8957 C.2       1 UNK         0.0000 
     20 C20         6.4421   54.0972   26.8854 C.2       1 UNK         0.0000 
     21 S21         5.6408   53.8350   28.3941 S.3       1 UNK         0.0000 
     22 N22         5.9605   54.7693   24.6201 N.pl3     1 UNK         0.0000 
     23 H23        -1.3369   49.6730   26.0985 H         1 UNK         0.0000 
     24 H24        -1.9042   49.9163   23.4838 H         1 UNK         0.0000 
     25 H25        -0.4957   50.5440   28.4101 H         1 UNK         0.0000 
     26 H26        -1.7966   51.7492   28.4628 H         1 UNK         0.0000 
     27 H27        -0.5197   51.6449   30.5987 H         1 UNK         0.0000 
     28 H28        -0.4027   53.2216   29.8699 H         1 UNK         0.0000 
     29 H29         1.6968   51.0094   29.6679 H         1 UNK         0.0000 
     30 H30         1.8618   52.4707   30.6289 H         1 UNK         0.0000 
     31 H31         1.8493   52.9332   26.4449 H         1 UNK         0.0000 
     32 H32         1.8219   51.2966   27.0399 H         1 UNK         0.0000 
     33 H33         3.4160   54.8966   25.7144 H         1 UNK         0.0000 
     34 H34         7.5044   53.9437   26.8183 H         1 UNK         0.0000 
     35 H35         6.9296   54.7045   24.3404 H         1 UNK         0.0000 
     36 H36         5.2930   54.8958   23.8727 H         1 UNK         0.0000 
@<TRIPOS>BOND
     1    1    6 ar   
     2    1    2 ar   
     3    1   23 1    
     4    2    3 ar   
     5    2   24 1    
     6    3    4 ar   
     7    4    5 1    
     8    4    6 ar   
     9    6    7 1    
    10    7    8 1    
    11    7   13 1    
    12    7    9 1    
    13    9   10 1    
    14    9   25 1    
    15    9   26 1    
    16   10   11 1    
    17   10   27 1    
    18   10   28 1    
    19   11   12 1    
    20   11   29 1    
    21   11   30 1    
    22   12   13 1    
    23   12   14 1    
    24   13   31 1    
    25   13   32 1    
    26   14   15 2    
    27   14   16 2    
    28   14   17 1    
    29   17   21 1    
    30   17   18 2    
    31   18   19 1    
    32   18   33 1    
    33   19   20 2    
    34   19   22 1    
    35   20   21 1    
    36   20   34 1    
    37   22   35 1    
    38   22   36 1    
@<TRIPOS>SUBSTRUCTURE
     1 UNK         1 GROUP             0       ****    0 ROOT    
