@<TRIPOS>MOLECULE
ZINC00676474_4569
49   51    1
SMALL
USER_CHARGES


@<TRIPOS>ATOM
      1 C1         -6.7048   51.1758   31.3744 C.ar      1 UNK         0.0000 
      2 C2         -5.5575   50.4689   31.7257 C.ar      1 UNK         0.0000 
      3 C3         -4.5581   50.2550   30.7798 C.ar      1 UNK         0.0000 
      4 C4         -4.7008   50.7579   29.4836 C.ar      1 UNK         0.0000 
      5 C5         -5.8678   51.4563   29.1311 C.ar      1 UNK         0.0000 
      6 C6         -6.8654   51.6685   30.0804 C.ar      1 UNK         0.0000 
      7 N7         -3.6405   50.4974   28.5977 N.am      1 UNK         0.0000 
      8 C8         -3.3363   51.1006   27.4296 C.2       1 UNK         0.0000 
      9 O9         -3.9463   52.0513   26.9353 O.2       1 UNK         0.0000 
     10 N10        -2.2669   50.4967   26.8806 N.am      1 UNK         0.0000 
     11 C11        -1.6909   50.6529   25.6066 C.ar      1 UNK         0.0000 
     12 C12        -0.6897   49.7347   25.2788 C.ar      1 UNK         0.0000 
     13 C13        -0.1142   49.7425   24.0125 C.ar      1 UNK         0.0000 
     14 C14        -0.5413   50.6744   23.0633 C.ar      1 UNK         0.0000 
     15 C15        -1.5068   51.6248   23.3959 C.ar      1 UNK         0.0000 
     16 C16        -2.0803   51.6182   24.6644 C.ar      1 UNK         0.0000 
     17 S17         0.1019   50.6268   21.3935 S.o2      1 UNK         0.0000 
     18 O18         1.0192   49.4852   21.3002 O.2       1 UNK         0.0000 
     19 O19        -1.0552   50.7473   20.5008 O.2       1 UNK         0.0000 
     20 N20         1.0396   52.0960   21.2086 N.pl3     1 UNK         0.0000 
     21 C21         2.2995   52.2762   21.9454 C.3       1 UNK         0.0000 
     22 C22         3.3950   52.6395   20.9265 C.3       1 UNK         0.0000 
     23 C23         4.7283   52.8526   21.6657 C.3       1 UNK         0.0000 
     24 C24         4.5957   53.9236   22.7764 C.3       1 UNK         0.0000 
     25 C25         3.3687   53.7279   23.7055 C.3       1 UNK         0.0000 
     26 C26         2.0801   53.4622   22.9060 C.3       1 UNK         0.0000 
     27 H27        -7.4785   51.3391   32.1115 H         1 UNK         0.0000 
     28 H28        -5.4328   50.0974   32.7340 H         1 UNK         0.0000 
     29 H29        -3.6723   49.7033   31.0638 H         1 UNK         0.0000 
     30 H30        -6.0217   51.8298   28.1298 H         1 UNK         0.0000 
     31 H31        -7.7641   52.2033   29.8124 H         1 UNK         0.0000 
     32 H32        -2.9948   49.7799   28.9101 H         1 UNK         0.0000 
     33 H33        -1.8670   49.7373   27.4275 H         1 UNK         0.0000 
     34 H34        -0.3755   48.9860   25.9968 H         1 UNK         0.0000 
     35 H35         0.6378   49.0052   23.7678 H         1 UNK         0.0000 
     36 H36        -1.8350   52.3482   22.6636 H         1 UNK         0.0000 
     37 H37        -2.8401   52.3519   24.8760 H         1 UNK         0.0000 
     38 H38         0.5851   52.9281   20.8264 H         1 UNK         0.0000 
     39 H39         2.5479   51.4012   22.5491 H         1 UNK         0.0000 
     40 H40         3.4973   51.8537   20.1756 H         1 UNK         0.0000 
     41 H41         3.1318   53.5481   20.3822 H         1 UNK         0.0000 
     42 H42         5.0655   51.9048   22.0816 H         1 UNK         0.0000 
     43 H43         5.5000   53.1520   20.9551 H         1 UNK         0.0000 
     44 H44         5.5104   53.9593   23.3695 H         1 UNK         0.0000 
     45 H45         4.5099   54.8954   22.2921 H         1 UNK         0.0000 
     46 H46         3.5393   52.8972   24.3911 H         1 UNK         0.0000 
     47 H47         3.2384   54.6084   24.3355 H         1 UNK         0.0000 
     48 H48         1.8121   54.3660   22.3567 H         1 UNK         0.0000 
     49 H49         1.2496   53.2625   23.5846 H         1 UNK         0.0000 
@<TRIPOS>BOND
     1    1    6 ar   
     2    1    2 ar   
     3    1   27 1    
     4    2    3 ar   
     5    2   28 1    
     6    3    4 ar   
     7    3   29 1    
     8    4    5 ar   
     9    4    7 1    
    10    5    6 ar   
    11    5   30 1    
    12    6   31 1    
    13    7    8 am   BACKBONE|DICT|INTERRES
    14    7   32 1    
    15    8    9 2    
    16    8   10 am   BACKBONE|DICT|INTERRES
    17   10   11 1    
    18   10   33 1    
    19   11   16 ar   
    20   11   12 ar   
    21   12   13 ar   
    22   12   34 1    
    23   13   14 ar   
    24   13   35 1    
    25   14   15 ar   
    26   14   17 1    
    27   15   16 ar   
    28   15   36 1    
    29   16   37 1    
    30   17   18 2    
    31   17   19 2    
    32   17   20 1    
    33   20   21 1    
    34   20   38 1    
    35   21   26 1    
    36   21   22 1    
    37   21   39 1    
    38   22   23 1    
    39   22   40 1    
    40   22   41 1    
    41   23   24 1    
    42   23   42 1    
    43   23   43 1    
    44   24   25 1    
    45   24   44 1    
    46   24   45 1    
    47   25   26 1    
    48   25   46 1    
    49   25   47 1    
    50   26   48 1    
    51   26   49 1    
@<TRIPOS>SUBSTRUCTURE
     1 UNK         1 GROUP             0       ****    0 ROOT    
