@<TRIPOS>MOLECULE
ZINC64953654_3193
60   63    1
SMALL
USER_CHARGES


@<TRIPOS>ATOM
      1 C1         -5.8936   53.7000   24.7936 C.3       1 UNK         0.0000 
      2 C2         -4.9272   52.5117   24.7038 C.3       1 UNK         0.0000 
      3 C3         -3.4961   52.8908   25.1249 C.3       1 UNK         0.0000 
      4 N4         -2.5088   51.8066   24.9236 N.am      1 UNK         0.0000 
      5 C5         -1.8801   51.7769   23.6881 C.2       1 UNK         0.0000 
      6 O6         -2.2591   52.4968   22.7631 O.2       1 UNK         0.0000 
      7 C7         -0.8033   50.7910   23.5984 C.ar      1 UNK         0.0000 
      8 C8          0.2110   50.4967   22.6458 C.ar      1 UNK         0.0000 
      9 N9          0.8448   49.3744   22.9845 N.2       1 UNK         0.0000 
     10 C10         0.3044   48.9687   24.0980 C.ar      1 UNK         0.0000 
     11 N11        -0.6732   49.8019   24.5453 N.pl3     1 UNK         0.0000 
     12 C12        -1.5111   49.6531   25.7087 C.3       1 UNK         0.0000 
     13 C13        -2.0249   51.0628   26.1495 C.3       1 UNK         0.0000 
     14 C14        -3.1428   50.7944   27.2108 C.3       1 UNK         0.0000 
     15 C15        -0.8364   51.8498   26.8336 C.2       1 UNK         0.0000 
     16 O16        -0.0478   52.4967   26.1412 O.2       1 UNK         0.0000 
     17 N17        -0.6912   51.8098   28.1735 N.am      1 UNK         0.0000 
     18 C18         0.2916   52.6022   28.9210 C.3       1 UNK         0.0000 
     19 C19        -0.1524   52.8575   30.3736 C.3       1 UNK         0.0000 
     20 C20         1.0614   52.6146   31.2767 C.3       1 UNK         0.0000 
     21 C21         2.2610   52.4983   30.3318 C.3       1 UNK         0.0000 
     22 C22         1.6582   51.9123   29.0520 C.3       1 UNK         0.0000 
     23 C23         0.5661   51.2726   21.4610 C.2       1 UNK         0.0000 
     24 O24        -0.2022   52.0890   20.9514 O.2       1 UNK         0.0000 
     25 N25         1.8271   51.0554   21.0225 N.am      1 UNK         0.0000 
     26 C26         2.4987   51.8052   20.0427 C.ar      1 UNK         0.0000 
     27 C27         1.9872   51.9826   18.7446 C.ar      1 UNK         0.0000 
     28 C28         2.6913   52.7549   17.8179 C.ar      1 UNK         0.0000 
     29 C29         3.9077   53.3415   18.1727 C.ar      1 UNK         0.0000 
     30 C30         4.4325   53.1452   19.4510 C.ar      1 UNK         0.0000 
     31 C31         3.7371   52.3707   20.3816 C.ar      1 UNK         0.0000 
     32 F32         4.2626   52.1834   21.6169 F         1 UNK         0.0000 
     33 F33         5.6179   53.7074   19.7902 F         1 UNK         0.0000 
     34 F34         4.5807   54.0994   17.2756 F         1 UNK         0.0000 
     35 F35         2.1907   52.9411   16.5732 F         1 UNK         0.0000 
     36 F36         0.8238   51.4003   18.3696 F         1 UNK         0.0000 
     37 H37        -6.9040   53.3991   24.5161 H         1 UNK         0.0000 
     38 H38        -5.9327   54.1077   25.8044 H         1 UNK         0.0000 
     39 H39        -5.5953   54.4981   24.1121 H         1 UNK         0.0000 
     40 H40        -4.9290   52.1312   23.6817 H         1 UNK         0.0000 
     41 H41        -5.2984   51.7043   25.3357 H         1 UNK         0.0000 
     42 H42        -3.4916   53.2303   26.1600 H         1 UNK         0.0000 
     43 H43        -3.1985   53.7805   24.5673 H         1 UNK         0.0000 
     44 H44         0.5718   48.0967   24.6760 H         1 UNK         0.0000 
     45 H45        -0.9123   49.1726   26.4816 H         1 UNK         0.0000 
     46 H46        -2.3334   48.9774   25.4707 H         1 UNK         0.0000 
     47 H47        -2.8298   50.0968   27.9893 H         1 UNK         0.0000 
     48 H48        -3.4793   51.7021   27.7124 H         1 UNK         0.0000 
     49 H49        -4.0180   50.3438   26.7428 H         1 UNK         0.0000 
     50 H50        -1.2317   51.1349   28.6963 H         1 UNK         0.0000 
     51 H51         0.4970   53.5755   28.4641 H         1 UNK         0.0000 
     52 H52        -0.9537   52.1867   30.6861 H         1 UNK         0.0000 
     53 H53        -0.4973   53.8844   30.4823 H         1 UNK         0.0000 
     54 H54         0.9280   51.6967   31.8465 H         1 UNK         0.0000 
     55 H55         1.1555   53.4091   32.0135 H         1 UNK         0.0000 
     56 H56         3.0606   51.8823   30.7429 H         1 UNK         0.0000 
     57 H57         2.6775   53.4865   30.1250 H         1 UNK         0.0000 
     58 H58         2.2786   52.0471   28.1652 H         1 UNK         0.0000 
     59 H59         1.5204   50.8407   29.1639 H         1 UNK         0.0000 
     60 H60         2.3884   50.4053   21.5529 H         1 UNK         0.0000 
@<TRIPOS>BOND
     1    1    2 1    
     2    1   37 1    
     3    1   38 1    
     4    1   39 1    
     5    2    3 1    
     6    2   40 1    
     7    2   41 1    
     8    3    4 1    
     9    3   42 1    
    10    3   43 1    
    11    4   13 1    
    12    4    5 am   BACKBONE|DICT|INTERRES
    13    5    6 2    
    14    5    7 1    
    15    7   11 ar   
    16    7    8 ar   
    17    8    9 ar   
    18    8   23 1    
    19    9   10 ar   
    20   10   11 ar   
    21   10   44 1    
    22   11   12 1    
    23   12   13 1    
    24   12   45 1    
    25   12   46 1    
    26   13   14 1    
    27   13   15 1    
    28   14   47 1    
    29   14   48 1    
    30   14   49 1    
    31   15   16 2    
    32   15   17 am   BACKBONE|DICT|INTERRES
    33   17   18 1    
    34   17   50 1    
    35   18   22 1    
    36   18   19 1    
    37   18   51 1    
    38   19   20 1    
    39   19   52 1    
    40   19   53 1    
    41   20   21 1    
    42   20   54 1    
    43   20   55 1    
    44   21   22 1    
    45   21   56 1    
    46   21   57 1    
    47   22   58 1    
    48   22   59 1    
    49   23   24 2    
    50   23   25 am   BACKBONE|DICT|INTERRES
    51   25   26 1    
    52   25   60 1    
    53   26   31 ar   
    54   26   27 ar   
    55   27   28 ar   
    56   27   36 1    
    57   28   29 ar   
    58   28   35 1    
    59   29   30 ar   
    60   29   34 1    
    61   30   31 ar   
    62   30   33 1    
    63   31   32 1    
@<TRIPOS>SUBSTRUCTURE
     1 UNK         1 GROUP             0       ****    0 ROOT    
