ZINC38598010_278
                    3D
 Schrodinger Suite 2024-2.
 56 59  0  0  1  0            999 V2000
    0.6764   46.6905   18.7584 C   0  0  0  0  0  0
   -0.5782   46.9002   19.3320 C   0  0  0  0  0  0
   -0.8796   48.1297   19.9166 C   0  0  0  0  0  0
    0.0731   49.1504   19.9445 C   0  0  0  0  0  0
    1.3542   48.9257   19.4070 C   0  0  0  0  0  0
    1.6343   47.7048   18.7860 C   0  0  0  0  0  0
    2.3628   49.8988   19.3660 N   0  0  0  0  0  0
    2.7941   50.6334   20.4081 C   0  0  0  0  0  0
    2.2802   50.6664   21.5259 O   0  0  0  0  0  0
    3.9045   51.3074   20.0818 N   0  0  0  0  0  0
    4.6979   52.1603   20.9646 C   0  0  0  0  0  0
    4.2195   53.6414   21.0021 C   0  0  2  0  0  0
    3.2271   53.7014   20.5479 H   0  0  0  0  0  0
    5.0963   54.6063   20.2070 C   0  0  0  0  0  0
    4.9009   55.2945   19.0154 C   0  0  0  0  0  0
    6.0620   56.0222   18.7568 C   0  0  0  0  0  0
    6.9303   55.7416   19.7946 C   0  0  0  0  0  0
    6.3401   54.8956   20.6761 O   0  0  0  0  0  0
    3.9704   54.1812   22.4449 N   0  3  0  0  0  0
    5.1726   54.0610   23.4177 C   0  0  0  0  0  0
    4.8148   54.5679   24.8373 C   0  0  0  0  0  0
    3.5290   54.0951   25.3833 N   0  0  0  0  0  0
    2.4253   54.2291   24.4183 C   0  0  0  0  0  0
    2.7079   53.5538   23.0689 C   0  0  0  0  0  0
    3.3298   53.7948   26.7331 C   0  0  0  0  0  0
    4.1609   54.3423   27.7231 C   0  0  0  0  0  0
    4.0095   53.9895   29.0610 C   0  0  0  0  0  0
    3.0180   53.0845   29.4274 C   0  0  0  0  0  0
    2.1667   52.5457   28.4674 C   0  0  0  0  0  0
    2.3212   52.8989   27.1288 C   0  0  0  0  0  0
    2.8852   52.7230   30.7233 F   0  0  0  0  0  0
   -0.2773   50.3489   20.4682 F   0  0  0  0  0  0
    0.9069   45.7461   18.2871 H   0  0  0  0  0  0
   -1.3229   46.1169   19.3089 H   0  0  0  0  0  0
   -1.8603   48.3008   20.3393 H   0  0  0  0  0  0
    2.6018   47.5373   18.3292 H   0  0  0  0  0  0
    2.9911   49.8321   18.5764 H   0  0  0  0  0  0
    4.3654   51.0507   19.2049 H   0  0  0  0  0  0
    5.7184   52.1141   20.5868 H   0  0  0  0  0  0
    4.7538   51.7009   21.9495 H   0  0  0  0  0  0
    4.0114   55.2685   18.4027 H   0  0  0  0  0  0
    6.2480   56.6643   17.9090 H   0  0  0  0  0  0
    7.9419   56.0464   20.0245 H   0  0  0  0  0  0
    5.5041   53.0222   23.4408 H   0  0  0  0  0  0
    5.9623   54.6943   23.0147 H   0  0  0  0  0  0
    4.7046   55.6532   24.8069 H   0  0  0  0  0  0
    5.6449   54.3569   25.5136 H   0  0  0  0  0  0
    1.4791   53.8781   24.8265 H   0  0  0  0  0  0
    2.2910   55.2968   24.2537 H   0  0  0  0  0  0
    2.8532   52.4781   23.1609 H   0  0  0  0  0  0
    1.8870   53.7576   22.3776 H   0  0  0  0  0  0
    4.9391   55.0452   27.4656 H   0  0  0  0  0  0
    4.6690   54.4090   29.8065 H   0  0  0  0  0  0
    1.3989   51.8441   28.7578 H   0  0  0  0  0  0
    1.6759   52.4339   26.3980 H   0  0  0  0  0  0
    3.7604   55.1657   22.3523 H   0  0  0  0  0  0
  1  6  2  0  0  0
  1  2  1  0  0  0
  1 33  1  0  0  0
  2  3  2  0  0  0
  2 34  1  0  0  0
  3  4  1  0  0  0
  3 35  1  0  0  0
  4  5  2  0  0  0
  4 32  1  0  0  0
  5  6  1  0  0  0
  5  7  1  0  0  0
  6 36  1  0  0  0
  7  8  1  0  0  0
  7 37  1  0  0  0
  8  9  2  0  0  0
  8 10  1  0  0  0
 10 11  1  0  0  0
 10 38  1  0  0  0
 11 12  1  0  0  0
 11 39  1  0  0  0
 11 40  1  0  0  0
 12 13  1  0  0  0
 12 14  1  0  0  0
 12 19  1  0  0  0
 14 18  1  0  0  0
 14 15  2  0  0  0
 15 16  1  0  0  0
 15 41  1  0  0  0
 16 17  2  0  0  0
 16 42  1  0  0  0
 17 18  1  0  0  0
 17 43  1  0  0  0
 19 24  1  0  0  0
 19 20  1  0  0  0
 19 56  1  0  0  0
 20 21  1  0  0  0
 20 44  1  0  0  0
 20 45  1  0  0  0
 21 22  1  0  0  0
 21 46  1  0  0  0
 21 47  1  0  0  0
 22 23  1  0  0  0
 22 25  1  0  0  0
 23 24  1  0  0  0
 23 48  1  0  0  0
 23 49  1  0  0  0
 24 50  1  0  0  0
 24 51  1  0  0  0
 25 30  2  0  0  0
 25 26  1  0  0  0
 26 27  2  0  0  0
 26 52  1  0  0  0
 27 28  1  0  0  0
 27 53  1  0  0  0
 28 29  2  0  0  0
 28 31  1  0  0  0
 29 30  1  0  0  0
 29 54  1  0  0  0
 30 55  1  0  0  0
M  CHG  1  19   1
M  END
> <i_i_glide_confnum>
45

> <i_i_glide_lignum>
279

> <i_i_glide_posenum>
311

> <i_i_glide_rotatable_bonds>
8

> <i_m_Source_File_Index>
4198

> <b_m_subgroup_collapsed>
0

> <r_i_docking_score>
-5.55579

> <r_i_glide_ecoul>
-5.17996

> <r_i_glide_eff_state_penalty>
0

> <r_i_glide_einternal>
9.96878

> <r_i_glide_emodel>
-51.7629

> <r_i_glide_energy>
-41.0696

> <r_i_glide_erotb>
0.760617

> <r_i_glide_esite>
-0.224242

> <r_i_glide_evdw>
-35.8896

> <r_i_glide_gscore>
-5.55579

> <r_i_glide_hbond>
-0.191214

> <r_i_glide_ligand_efficiency>
-0.179219

> <r_i_glide_ligand_efficiency_ln>
-1.253

> <r_i_glide_ligand_efficiency_sa>
-0.562995

> <r_i_glide_lipo>
-2.5144

> <r_i_glide_metal>
0

> <r_i_glide_rewards>
-0.815074

> <s_i_glide_gridfile>
wee1_glide-grid

> <s_m_Source_File>
wee1_decoys_glide_SP.sdf

> <s_m_Source_Path>
/Users/zhangxujun/Desktop

> <s_m_entry_id>
4473

> <s_m_entry_name>
wee1_decoys_glide_SP.4198

> <s_m_subgroup_title>
wee1_decoys_glide_SP

> <s_m_subgroupid>
wee1_decoys_glide_SP


$$$$
