@<TRIPOS>MOLECULE
ZINC12660463_3158
80   84    1
SMALL
USER_CHARGES


@<TRIPOS>ATOM
      1 C1          6.3343   52.7873   16.0947 C.3       1 UNK         0.0000 
      2 C2          6.2558   53.4657   17.4478 C.ar      1 UNK         0.0000 
      3 C3          5.1499   53.2974   18.2824 C.ar      1 UNK         0.0000 
      4 C4          5.1503   53.9034   19.5376 C.ar      1 UNK         0.0000 
      5 C5          6.2496   54.6775   19.9269 C.ar      1 UNK         0.0000 
      6 C6          7.3078   54.8180   19.0132 C.ar      1 UNK         0.0000 
      7 N7          7.3274   54.2212   17.7958 N.ar      1 UNK         0.0000 
      8 C8          6.2717   55.3543   21.2946 C.3       1 UNK         0.0000 
      9 H9          5.2525   55.6969   21.4659 H         1 UNK         0.0000 
     10 C10         6.6483   54.4149   22.4813 C.3       1 UNK         0.0000 
     11 N11         6.5796   55.0330   23.8126 N.am      1 UNK         0.0000 
     12 C12         5.7874   54.7587   24.8672 C.2       1 UNK         0.0000 
     13 O13         6.0335   55.2976   25.9404 O.2       1 UNK         0.0000 
     14 C14         4.6158   53.7560   24.7971 C.3       1 UNK         0.0000 
     15 C15         3.2120   54.3893   24.9797 C.3       1 UNK         0.0000 
     16 C16         2.3041   53.6715   25.9934 C.2       1 UNK         0.0000 
     17 O17         2.5450   53.7182   27.1997 O.2       1 UNK         0.0000 
     18 O18         1.2353   53.0515   25.4228 O.3       1 UNK         0.0000 
     19 C19         0.1422   52.5370   26.2079 C.3       1 UNK         0.0000 
     20 H20        -0.1107   53.2966   26.9425 H         1 UNK         0.0000 
     21 C21         0.4834   51.2481   26.9806 C.3       1 UNK         0.0000 
     22 C22        -0.4766   50.1706   26.4770 C.3       1 UNK         0.0000 
     23 C23        -1.0795   50.6758   25.1566 C.3       1 UNK         0.0000 
     24 H24        -2.1109   50.3197   25.0963 H         1 UNK         0.0000 
     25 C25        -1.1245   52.2264   25.3425 C.3       1 UNK         0.0000 
     26 C26        -1.2307   53.0227   23.9951 C.3       1 UNK         0.0000 
     27 C27        -0.6612   52.3632   22.7300 C.3       1 UNK         0.0000 
     28 C28        -0.9446   50.8466   22.6037 C.3       1 UNK         0.0000 
     29 H29        -2.0308   50.7370   22.6331 H         1 UNK         0.0000 
     30 C30        -0.3893   50.1340   23.8665 C.3       1 UNK         0.0000 
     31 H31        -0.6919   49.0907   23.8047 H         1 UNK         0.0000 
     32 C32         1.1590   50.1206   23.8321 C.3       1 UNK         0.0000 
     33 C33         1.7591   49.5707   22.5181 C.3       1 UNK         0.0000 
     34 C34         1.1197   50.2343   21.2955 C.2       1 UNK         0.0000 
     35 C35         1.8672   50.8552   20.3533 C.2       1 UNK         0.0000 
     36 C36         1.3201   51.5733   19.2191 C.2       1 UNK         0.0000 
     37 O37         2.0053   51.9101   18.2605 O.2       1 UNK         0.0000 
     38 C38        -0.1305   52.0199   19.3649 C.3       1 UNK         0.0000 
     39 C39        -1.0036   50.9149   19.9933 C.3       1 UNK         0.0000 
     40 C40        -0.4339   50.1898   21.2664 C.3       1 UNK         0.0000 
     41 C41        -0.8964   48.7070   21.1602 C.3       1 UNK         0.0000 
     42 C42        -2.3803   52.5863   26.1994 C.3       1 UNK         0.0000 
     43 O43         7.1042   56.4967   21.2845 O.3       1 UNK         0.0000 
     44 H44         5.4898   52.1138   15.9367 H         1 UNK         0.0000 
     45 H45         6.3358   53.5289   15.2961 H         1 UNK         0.0000 
     46 H46         7.2481   52.1943   16.0213 H         1 UNK         0.0000 
     47 H47         4.3252   52.6738   17.9756 H         1 UNK         0.0000 
     48 H48         4.3041   53.7660   20.1966 H         1 UNK         0.0000 
     49 H49         8.1820   55.4059   19.2525 H         1 UNK         0.0000 
     50 H50         6.0676   53.4980   22.4160 H         1 UNK         0.0000 
     51 H51         7.6884   54.0967   22.3989 H         1 UNK         0.0000 
     52 H52         7.3291   55.6774   24.0198 H         1 UNK         0.0000 
     53 H53         4.6204   53.2232   23.8560 H         1 UNK         0.0000 
     54 H54         4.8277   53.0480   25.5990 H         1 UNK         0.0000 
     55 H55         3.3055   55.4198   25.3137 H         1 UNK         0.0000 
     56 H56         2.6994   54.4290   24.0183 H         1 UNK         0.0000 
     57 H57         1.5043   50.9311   26.8196 H         1 UNK         0.0000 
     58 H58         0.3797   51.3961   28.0565 H         1 UNK         0.0000 
     59 H59        -0.0309   49.1762   26.4107 H         1 UNK         0.0000 
     60 H60        -1.2838   50.0968   27.2042 H         1 UNK         0.0000 
     61 H61        -2.2931   53.0664   23.7484 H         1 UNK         0.0000 
     62 H62        -0.9447   54.0706   24.0820 H         1 UNK         0.0000 
     63 H63         0.4080   52.5593   22.6652 H         1 UNK         0.0000 
     64 H64        -1.0824   52.8772   21.8696 H         1 UNK         0.0000 
     65 H65         1.5585   51.1164   23.9982 H         1 UNK         0.0000 
     66 H66         1.5128   49.5270   24.6735 H         1 UNK         0.0000 
     67 H67         1.6286   48.4970   22.4728 H         1 UNK         0.0000 
     68 H68         2.8399   49.7172   22.5307 H         1 UNK         0.0000 
     69 H69         2.9432   50.8159   20.4476 H         1 UNK         0.0000 
     70 H70        -0.0925   52.8963   20.0033 H         1 UNK         0.0000 
     71 H71        -0.5058   52.3451   18.3934 H         1 UNK         0.0000 
     72 H72        -1.1739   50.1916   19.1931 H         1 UNK         0.0000 
     73 H73        -1.9977   51.3125   20.2041 H         1 UNK         0.0000 
     74 H74        -1.9848   48.6347   21.1834 H         1 UNK         0.0000 
     75 H75        -0.5665   48.2529   20.2250 H         1 UNK         0.0000 
     76 H76        -0.5187   48.0658   21.9517 H         1 UNK         0.0000 
     77 H77        -3.3059   52.2859   25.7073 H         1 UNK         0.0000 
     78 H78        -2.3728   52.0969   27.1740 H         1 UNK         0.0000 
     79 H79        -2.4641   53.6568   26.3936 H         1 UNK         0.0000 
     80 H80         7.8259   56.3357   21.9022 H         1 UNK         0.0000 
@<TRIPOS>BOND
     1    1    2 1    
     2    1   44 1    
     3    1   45 1    
     4    1   46 1    
     5    2    7 ar   
     6    2    3 ar   
     7    3    4 ar   
     8    3   47 1    
     9    4    5 ar   
    10    4   48 1    
    11    5    6 ar   
    12    5    8 1    
    13    6    7 ar   
    14    6   49 1    
    15    8    9 1    
    16    8   10 1    
    17    8   43 1    
    18   10   11 1    
    19   10   50 1    
    20   10   51 1    
    21   11   12 am   BACKBONE|DICT|INTERRES
    22   11   52 1    
    23   12   13 2    
    24   12   14 1    
    25   14   15 1    
    26   14   53 1    
    27   14   54 1    
    28   15   16 1    
    29   15   55 1    
    30   15   56 1    
    31   16   17 2    
    32   16   18 1    
    33   18   19 1    
    34   19   20 1    
    35   19   25 1    
    36   19   21 1    
    37   21   22 1    
    38   21   57 1    
    39   21   58 1    
    40   22   23 1    
    41   22   59 1    
    42   22   60 1    
    43   23   24 1    
    44   23   30 1    
    45   23   25 1    
    46   25   26 1    
    47   25   42 1    
    48   26   27 1    
    49   26   61 1    
    50   26   62 1    
    51   27   28 1    
    52   27   63 1    
    53   27   64 1    
    54   28   29 1    
    55   28   40 1    
    56   28   30 1    
    57   30   31 1    
    58   30   32 1    
    59   32   33 1    
    60   32   65 1    
    61   32   66 1    
    62   33   34 1    
    63   33   67 1    
    64   33   68 1    
    65   34   40 1    
    66   34   35 2    
    67   35   36 1    
    68   35   69 1    
    69   36   37 2    
    70   36   38 1    
    71   38   39 1    
    72   38   70 1    
    73   38   71 1    
    74   39   40 1    
    75   39   72 1    
    76   39   73 1    
    77   40   41 1    
    78   41   74 1    
    79   41   75 1    
    80   41   76 1    
    81   42   77 1    
    82   42   78 1    
    83   42   79 1    
    84   43   80 1    
@<TRIPOS>SUBSTRUCTURE
     1 UNK         1 GROUP             0       ****    0 ROOT    
