@<TRIPOS>MOLECULE
ZINC16699506_3595
32   34    1
SMALL
USER_CHARGES


@<TRIPOS>ATOM
      1 C1          3.6718   53.7039   22.0776 C.3       1 UNK         0.0000 
      2 C2          4.2563   54.0547   23.4347 C.ar      1 UNK         0.0000 
      3 C3          5.5368   54.4967   23.5535 C.ar      1 UNK         0.0000 
      4 C4          6.1464   54.9434   24.7990 C.ar      1 UNK         0.0000 
      5 O5          7.1045   55.6961   24.8818 O.2       1 UNK         0.0000 
      6 N6          5.4828   54.5744   25.9113 N.pl3     1 UNK         0.0000 
      7 H7          5.9070   54.8664   26.7778 H         1 UNK         0.0000 
      8 C8          4.1970   54.0843   25.8710 C.ar      1 UNK         0.0000 
      9 C9          3.4945   53.8464   24.6878 C.ar      1 UNK         0.0000 
     10 C10         2.1864   53.4014   24.9601 C.2       1 UNK         0.0000 
     11 C11         1.9170   53.2713   26.3356 C.2       1 UNK         0.0000 
     12 S12         3.3231   53.6968   27.2893 S.3       1 UNK         0.0000 
     13 C13         0.7045   52.7880   27.0130 C.2       1 UNK         0.0000 
     14 O14        -0.0804   52.0620   26.4007 O.2       1 UNK         0.0000 
     15 C15         0.5079   53.0689   28.4686 C.ar      1 UNK         0.0000 
     16 C16        -0.0105   52.0622   29.2858 C.ar      1 UNK         0.0000 
     17 C17        -0.0984   52.2665   30.6552 C.ar      1 UNK         0.0000 
     18 C18         0.3044   53.4758   31.2117 C.ar      1 UNK         0.0000 
     19 C19         0.7222   54.5209   30.3967 C.ar      1 UNK         0.0000 
     20 C20         0.8104   54.3224   29.0232 C.ar      1 UNK         0.0000 
     21 Br21        0.3043   53.6969   33.0989 Br        1 UNK         0.0000 
     22 N22         1.2743   53.1148   23.9831 N.pl3     1 UNK         0.0000 
     23 H23         4.3938   53.8442   21.2726 H         1 UNK         0.0000 
     24 H24         3.3528   52.6614   22.0573 H         1 UNK         0.0000 
     25 H25         2.8125   54.3380   21.8628 H         1 UNK         0.0000 
     26 H26         6.1372   54.6223   22.6649 H         1 UNK         0.0000 
     27 H27        -0.3071   51.1026   28.8795 H         1 UNK         0.0000 
     28 H28        -0.4951   51.4806   31.2817 H         1 UNK         0.0000 
     29 H29         0.9996   55.4712   30.8300 H         1 UNK         0.0000 
     30 H30         1.1491   55.1401   28.4022 H         1 UNK         0.0000 
     31 H31         1.5006   53.2034   23.0038 H         1 UNK         0.0000 
     32 H32         0.3746   52.7166   24.2185 H         1 UNK         0.0000 
@<TRIPOS>BOND
     1    1    2 1    
     2    1   23 1    
     3    1   24 1    
     4    1   25 1    
     5    2    9 ar   
     6    2    3 ar   
     7    3    4 ar   
     8    3   26 1    
     9    4    5 2    
    10    4    6 ar   
    11    6    7 1    
    12    6    8 ar   
    13    8   12 1    
    14    8    9 ar   
    15    9   10 1    
    16   10   11 2    
    17   10   22 1    
    18   11   12 1    
    19   11   13 1    
    20   13   14 2    
    21   13   15 1    
    22   15   20 ar   
    23   15   16 ar   
    24   16   17 ar   
    25   16   27 1    
    26   17   18 ar   
    27   17   28 1    
    28   18   19 ar   
    29   18   21 1    
    30   19   20 ar   
    31   19   29 1    
    32   20   30 1    
    33   22   31 1    
    34   22   32 1    
@<TRIPOS>SUBSTRUCTURE
     1 UNK         1 GROUP             0       ****    0 ROOT    
