@<TRIPOS>MOLECULE
ZINC45950153_2323
54   56    1
SMALL
USER_CHARGES


@<TRIPOS>ATOM
      1 C1          3.7966   53.5729   20.3596 C.3       1 UNK         0.0000 
      2 C2          4.7760   54.1205   21.3936 C.ar      1 UNK         0.0000 
      3 C3          4.5108   53.8998   22.7467 C.ar      1 UNK         0.0000 
      4 C4          5.3792   54.3590   23.7392 C.ar      1 UNK         0.0000 
      5 C5          6.5506   55.0302   23.3647 C.ar      1 UNK         0.0000 
      6 C6          6.8122   55.2780   22.0200 C.ar      1 UNK         0.0000 
      7 C7          5.9230   54.8427   21.0213 C.ar      1 UNK         0.0000 
      8 N8          6.1697   55.0304   19.6476 N.am      1 UNK         0.0000 
      9 C9          6.9068   55.9868   19.0545 C.2       1 UNK         0.0000 
     10 O10         7.4816   56.8970   19.6464 O.2       1 UNK         0.0000 
     11 C11         6.9835   55.9103   17.5352 C.3       1 UNK         0.0000 
     12 N12         4.9823   54.1037   25.0578 N.am      1 UNK         0.0000 
     13 C13         5.6084   54.3601   26.2231 C.2       1 UNK         0.0000 
     14 O14         6.7061   54.8988   26.3602 O.2       1 UNK         0.0000 
     15 C15         4.8458   53.8465   27.4069 C.ar      1 UNK         0.0000 
     16 C16         5.4394   52.9180   28.2626 C.ar      1 UNK         0.0000 
     17 C17         4.6923   52.3420   29.2890 C.ar      1 UNK         0.0000 
     18 C18         3.3706   52.7036   29.4997 C.ar      1 UNK         0.0000 
     19 C19         2.7820   53.6482   28.6712 C.ar      1 UNK         0.0000 
     20 C20         3.5143   54.2230   27.6263 C.ar      1 UNK         0.0000 
     21 S21         1.0641   54.0212   28.9105 S.o2      1 UNK         0.0000 
     22 O22         0.8323   54.0609   30.3595 O.2       1 UNK         0.0000 
     23 O23         0.7810   55.1923   28.0817 O.2       1 UNK         0.0000 
     24 N24         0.1651   52.6078   28.2261 N.pl3     1 UNK         0.0000 
     25 C25        -0.5554   51.7715   29.1917 C.3       1 UNK         0.0000 
     26 C26         0.3769   52.0970   26.9115 C.ar      1 UNK         0.0000 
     27 C27         0.9475   52.8947   25.9047 C.ar      1 UNK         0.0000 
     28 C28         1.1253   52.4163   24.6063 C.ar      1 UNK         0.0000 
     29 C29         0.7665   51.1106   24.2892 C.ar      1 UNK         0.0000 
     30 C30         0.2224   50.2876   25.2696 C.ar      1 UNK         0.0000 
     31 C31         0.0189   50.7785   26.5602 C.ar      1 UNK         0.0000 
     32 Cl32       -0.2044   48.6592   24.8816 Cl        1 UNK         0.0000 
     33 H33         2.8765   53.2037   20.8152 H         1 UNK         0.0000 
     34 H34         3.5062   54.3552   19.6564 H         1 UNK         0.0000 
     35 H35         4.2551   52.7649   19.7871 H         1 UNK         0.0000 
     36 H36         3.6192   53.3589   23.0221 H         1 UNK         0.0000 
     37 H37         7.2641   55.3889   24.0889 H         1 UNK         0.0000 
     38 H38         7.7336   55.7836   21.7751 H         1 UNK         0.0000 
     39 H39         5.6654   54.4042   19.0377 H         1 UNK         0.0000 
     40 H40         7.3324   54.9268   17.2145 H         1 UNK         0.0000 
     41 H41         7.6762   56.6599   17.1483 H         1 UNK         0.0000 
     42 H42         6.0015   56.0975   17.0960 H         1 UNK         0.0000 
     43 H43         4.1060   53.6134   25.1441 H         1 UNK         0.0000 
     44 H44         6.4587   52.5985   28.0876 H         1 UNK         0.0000 
     45 H45         5.1044   51.5944   29.9403 H         1 UNK         0.0000 
     46 H46         2.8009   52.2411   30.2930 H         1 UNK         0.0000 
     47 H47         3.0454   54.9472   26.9753 H         1 UNK         0.0000 
     48 H48        -1.5027   51.4212   28.7770 H         1 UNK         0.0000 
     49 H49         0.0377   50.8987   29.4641 H         1 UNK         0.0000 
     50 H50        -0.8025   52.3075   30.1095 H         1 UNK         0.0000 
     51 H51         1.2345   53.9142   26.0925 H         1 UNK         0.0000 
     52 H52         1.5355   53.0615   23.8450 H         1 UNK         0.0000 
     53 H53         0.9130   50.7353   23.2875 H         1 UNK         0.0000 
     54 H54        -0.4177   50.1019   27.2802 H         1 UNK         0.0000 
@<TRIPOS>BOND
     1    1    2 1    
     2    1   33 1    
     3    1   34 1    
     4    1   35 1    
     5    2    7 ar   
     6    2    3 ar   
     7    3    4 ar   
     8    3   36 1    
     9    4    5 ar   
    10    4   12 1    
    11    5    6 ar   
    12    5   37 1    
    13    6    7 ar   
    14    6   38 1    
    15    7    8 1    
    16    8    9 am   BACKBONE|DICT|INTERRES
    17    8   39 1    
    18    9   10 2    
    19    9   11 1    
    20   11   40 1    
    21   11   41 1    
    22   11   42 1    
    23   12   13 am   BACKBONE|DICT|INTERRES
    24   12   43 1    
    25   13   14 2    
    26   13   15 1    
    27   15   20 ar   
    28   15   16 ar   
    29   16   17 ar   
    30   16   44 1    
    31   17   18 ar   
    32   17   45 1    
    33   18   19 ar   
    34   18   46 1    
    35   19   20 ar   
    36   19   21 1    
    37   20   47 1    
    38   21   22 2    
    39   21   23 2    
    40   21   24 1    
    41   24   25 1    
    42   24   26 1    
    43   25   48 1    
    44   25   49 1    
    45   25   50 1    
    46   26   31 ar   
    47   26   27 ar   
    48   27   28 ar   
    49   27   51 1    
    50   28   29 ar   
    51   28   52 1    
    52   29   30 ar   
    53   29   53 1    
    54   30   31 ar   
    55   30   32 1    
    56   31   54 1    
@<TRIPOS>SUBSTRUCTURE
     1 UNK         1 GROUP             0       ****    0 ROOT    
