ZINC22381421_3012
                    3D
 Schrodinger Suite 2024-2.
 63 65  0  0  1  0            999 V2000
    4.6269   54.8985   19.3521 C   0  0  0  0  0  0
    5.2471   53.7420   20.1404 C   0  0  0  0  0  0
    5.0523   53.8498   21.5889 N   0  0  0  0  0  0
    5.8710   54.4884   22.4444 C   0  0  0  0  0  0
    6.7277   55.2971   22.0823 O   0  0  0  0  0  0
    5.6328   54.0959   23.7133 N   0  0  0  0  0  0
    6.2232   54.5235   24.8538 C   0  0  0  0  0  0
    7.1041   55.3841   24.9270 O   0  0  0  0  0  0
    5.6784   53.8909   26.1487 C   0  0  1  0  0  0
    5.3072   52.8972   25.9291 H   0  0  0  0  0  0
    6.7396   53.7136   27.2499 C   0  0  0  0  0  0
    4.2759   54.8530   26.7476 S   0  0  0  0  0  0
    2.9356   53.8852   26.1454 C   0  0  0  0  0  0
    2.7170   53.6536   24.8775 N   0  0  0  0  0  0
    1.5070   52.9874   24.7893 N   0  0  0  0  0  0
    1.0424   52.8383   26.0062 C   0  0  0  0  0  0
    1.9435   53.3383   26.9381 N   0  0  0  0  0  0
    1.8627   53.4837   28.4098 C   0  0  0  0  0  0
    1.1019   54.8046   28.6853 C   0  0  0  0  0  0
    0.8412   55.0182   30.1854 C   0  0  0  0  0  0
    0.0957   53.8164   30.7921 C   0  0  0  0  0  0
    0.9193   52.5275   30.6137 C   0  0  0  0  0  0
    1.2510   52.2446   29.1312 C   0  0  0  0  0  0
   -0.3737   52.3430   26.2811 C   0  0  0  0  0  0
   -0.5054   50.8848   26.2815 N   0  0  0  0  0  0
   -0.6050   50.1353   25.0965 C   0  0  0  0  0  0
   -0.7355   48.7508   25.2140 C   0  0  0  0  0  0
   -0.8839   47.9527   24.0818 C   0  0  0  0  0  0
   -0.8981   48.5329   22.8136 C   0  0  0  0  0  0
   -0.7612   49.9192   22.6694 C   0  0  0  0  0  0
   -0.6174   50.7085   23.8160 C   0  0  0  0  0  0
   -0.7753   50.5857   21.2926 C   0  0  0  0  0  0
   -1.1434   49.7409   20.3273 F   0  0  0  0  0  0
   -1.6235   51.6174   21.2852 F   0  0  0  0  0  0
    0.4470   51.0366   21.0111 F   0  0  0  0  0  0
    4.7823   54.7582   18.2822 H   0  0  0  0  0  0
    5.0921   55.8480   19.6217 H   0  0  0  0  0  0
    3.5511   54.9585   19.5153 H   0  0  0  0  0  0
    4.8165   52.7972   19.8037 H   0  0  0  0  0  0
    6.3044   53.6942   19.8885 H   0  0  0  0  0  0
    4.2265   53.3968   21.9508 H   0  0  0  0  0  0
    4.8988   53.4169   23.8357 H   0  0  0  0  0  0
    7.5189   53.0316   26.9211 H   0  0  0  0  0  0
    7.2029   54.6584   27.5390 H   0  0  0  0  0  0
    6.3012   53.2774   28.1483 H   0  0  0  0  0  0
    2.8969   53.5693   28.7459 H   0  0  0  0  0  0
    1.7218   55.6411   28.3570 H   0  0  0  0  0  0
    0.1953   54.8751   28.0843 H   0  0  0  0  0  0
    1.7949   55.1522   30.6938 H   0  0  0  0  0  0
    0.3044   55.9480   30.3617 H   0  0  0  0  0  0
   -0.0945   53.9885   31.8535 H   0  0  0  0  0  0
   -0.8870   53.6970   30.3200 H   0  0  0  0  0  0
    1.8415   52.6021   31.1903 H   0  0  0  0  0  0
    0.3625   51.6971   31.0450 H   0  0  0  0  0  0
    0.3939   51.8037   28.6402 H   0  0  0  0  0  0
    1.9951   51.4459   29.1147 H   0  0  0  0  0  0
   -0.7436   52.7551   27.2192 H   0  0  0  0  0  0
   -1.0697   52.7623   25.5530 H   0  0  0  0  0  0
   -0.8468   50.4218   27.1188 H   0  0  0  0  0  0
   -0.7252   48.2812   26.1876 H   0  0  0  0  0  0
   -0.9859   46.8842   24.1925 H   0  0  0  0  0  0
   -1.0114   47.8981   21.9468 H   0  0  0  0  0  0
   -0.5282   51.7754   23.6917 H   0  0  0  0  0  0
  1  2  1  0  0  0
  1 36  1  0  0  0
  1 37  1  0  0  0
  1 38  1  0  0  0
  2  3  1  0  0  0
  2 39  1  0  0  0
  2 40  1  0  0  0
  3  4  1  0  0  0
  3 41  1  0  0  0
  4  5  2  0  0  0
  4  6  1  0  0  0
  6  7  1  0  0  0
  6 42  1  0  0  0
  7  8  2  0  0  0
  7  9  1  0  0  0
  9 10  1  0  0  0
  9 11  1  0  0  0
  9 12  1  0  0  0
 11 43  1  0  0  0
 11 44  1  0  0  0
 11 45  1  0  0  0
 12 13  1  0  0  0
 13 17  1  0  0  0
 13 14  2  0  0  0
 14 15  1  0  0  0
 15 16  2  0  0  0
 16 17  1  0  0  0
 16 24  1  0  0  0
 17 18  1  0  0  0
 18 23  1  0  0  0
 18 19  1  0  0  0
 18 46  1  0  0  0
 19 20  1  0  0  0
 19 47  1  0  0  0
 19 48  1  0  0  0
 20 21  1  0  0  0
 20 49  1  0  0  0
 20 50  1  0  0  0
 21 22  1  0  0  0
 21 51  1  0  0  0
 21 52  1  0  0  0
 22 23  1  0  0  0
 22 53  1  0  0  0
 22 54  1  0  0  0
 23 55  1  0  0  0
 23 56  1  0  0  0
 24 25  1  0  0  0
 24 57  1  0  0  0
 24 58  1  0  0  0
 25 26  1  0  0  0
 25 59  1  0  0  0
 26 31  2  0  0  0
 26 27  1  0  0  0
 27 28  2  0  0  0
 27 60  1  0  0  0
 28 29  1  0  0  0
 28 61  1  0  0  0
 29 30  2  0  0  0
 29 62  1  0  0  0
 30 31  1  0  0  0
 30 32  1  0  0  0
 31 63  1  0  0  0
 32 33  1  0  0  0
 32 34  1  0  0  0
 32 35  1  0  0  0
M  END
> <i_i_glide_confnum>
186

> <i_i_glide_lignum>
3013

> <i_i_glide_posenum>
396

> <i_i_glide_rotatable_bonds>
12

> <i_m_Source_File_Index>
1193

> <b_m_subgroup_collapsed>
0

> <r_i_docking_score>
-5.50429

> <r_i_glide_ecoul>
-3.36968

> <r_i_glide_eff_state_penalty>
0

> <r_i_glide_einternal>
9.24901

> <r_i_glide_emodel>
-62.4144

> <r_i_glide_energy>
-48.7321

> <r_i_glide_erotb>
0.820978

> <r_i_glide_esite>
-0.0669755

> <r_i_glide_evdw>
-45.3624

> <r_i_glide_gscore>
-5.50429

> <r_i_glide_hbond>
-0.32

> <r_i_glide_ligand_efficiency>
-0.161891

> <r_i_glide_ligand_efficiency_ln>
-1.21605

> <r_i_glide_ligand_efficiency_sa>
-0.524464

> <r_i_glide_lipo>
-1.76061

> <r_i_glide_metal>
0

> <r_i_glide_rewards>
-1.40411

> <s_i_glide_gridfile>
wee1_glide-grid

> <s_m_Source_File>
wee1_decoys_glide_SP.sdf

> <s_m_Source_Path>
/Users/zhangxujun/Desktop

> <s_m_entry_id>
1468

> <s_m_entry_name>
wee1_decoys_glide_SP.1193

> <s_m_subgroup_title>
wee1_decoys_glide_SP

> <s_m_subgroupid>
wee1_decoys_glide_SP


$$$$
