@<TRIPOS>MOLECULE
ZINC12468861_802
52   56    1
SMALL
USER_CHARGES


@<TRIPOS>ATOM
      1 C1          0.7044   51.8008   32.6514 C.3       1 UNK         0.0000 
      2 O2          2.0004   51.8437   32.0667 O.3       1 UNK         0.0000 
      3 C3          2.1171   52.4331   30.8265 C.ar      1 UNK         0.0000 
      4 C4          1.0876   53.1590   30.2109 C.ar      1 UNK         0.0000 
      5 C5          1.2564   53.6503   28.9274 C.ar      1 UNK         0.0000 
      6 C6          2.4466   53.4148   28.2384 C.ar      1 UNK         0.0000 
      7 C7          3.4919   52.7270   28.8647 C.ar      1 UNK         0.0000 
      8 C8          3.3278   52.2500   30.1601 C.ar      1 UNK         0.0000 
      9 C9          2.5400   53.8978   26.7981 C.3       1 UNK         0.0000 
     10 H10         2.1394   54.8967   26.8817 H         1 UNK         0.0000 
     11 C11         1.6249   53.0622   25.8707 C.3       1 UNK         0.0000 
     12 C12         1.6292   53.4970   24.3873 C.3       1 UNK         0.0000 
     13 H13         1.1048   54.4506   24.3125 H         1 UNK         0.0000 
     14 N14         3.0263   53.7591   24.0216 N.pl3     1 UNK         0.0000 
     15 C15         4.0495   54.0964   24.8876 C.ar      1 UNK         0.0000 
     16 C16         5.1363   54.3587   24.0838 C.ar      1 UNK         0.0000 
     17 C17         4.6944   54.2183   22.7581 C.ar      1 UNK         0.0000 
     18 N18         3.4166   53.8914   22.7431 N.2       1 UNK         0.0000 
     19 C19         5.5051   54.4967   21.5952 C.2       1 UNK         0.0000 
     20 O20         6.5753   55.0971   21.7151 O.2       1 UNK         0.0000 
     21 N21         4.9857   54.0509   20.4297 N.am      1 UNK         0.0000 
     22 C22         5.5269   54.1035   19.1326 C.ar      1 UNK         0.0000 
     23 C23         4.6711   53.6942   18.0915 C.ar      1 UNK         0.0000 
     24 C24         5.1093   53.6663   16.7605 C.ar      1 UNK         0.0000 
     25 C25         6.4151   54.0654   16.5046 C.ar      1 UNK         0.0000 
     26 C26         7.2532   54.4657   17.5044 C.ar      1 UNK         0.0000 
     27 C27         6.8501   54.4968   18.8339 C.ar      1 UNK         0.0000 
     28 O28         8.4731   54.7551   16.9820 O.3       1 UNK         0.0000 
     29 C29         8.3121   54.7089   15.5890 C.3       1 UNK         0.0000 
     30 O30         7.0797   54.0930   15.3201 O.3       1 UNK         0.0000 
     31 N31         3.8964   54.0451   26.2571 N.pl3     1 UNK         0.0000 
     32 C32         0.8891   52.4863   23.4696 C.3       1 UNK         0.0000 
     33 F33        -0.3612   52.2959   23.8933 F         1 UNK         0.0000 
     34 F34         0.8086   52.8966   22.2047 F         1 UNK         0.0000 
     35 F35         1.4887   51.2950   23.4673 F         1 UNK         0.0000 
     36 H36         0.7044   51.2386   33.5835 H         1 UNK         0.0000 
     37 H37         0.3376   52.8031   32.8829 H         1 UNK         0.0000 
     38 H38         0.0105   51.3007   31.9745 H         1 UNK         0.0000 
     39 H39         0.1409   53.3304   30.7000 H         1 UNK         0.0000 
     40 H40         0.4454   54.1876   28.4583 H         1 UNK         0.0000 
     41 H41         4.4195   52.5328   28.3449 H         1 UNK         0.0000 
     42 H42         4.1280   51.7012   30.6350 H         1 UNK         0.0000 
     43 H43         0.5996   53.0678   26.2399 H         1 UNK         0.0000 
     44 H44         1.9042   52.0164   25.9413 H         1 UNK         0.0000 
     45 H45         6.1293   54.6333   24.4084 H         1 UNK         0.0000 
     46 H46         4.0752   53.6208   20.4932 H         1 UNK         0.0000 
     47 H47         3.6612   53.3745   18.3076 H         1 UNK         0.0000 
     48 H48         4.4531   53.3310   15.9714 H         1 UNK         0.0000 
     49 H49         7.5578   54.7963   19.5898 H         1 UNK         0.0000 
     50 H50         8.2976   55.7275   15.1962 H         1 UNK         0.0000 
     51 H51         9.1252   54.1433   15.1319 H         1 UNK         0.0000 
     52 H52         4.4623   54.6508   26.8329 H         1 UNK         0.0000 
@<TRIPOS>BOND
     1    1    2 1    
     2    1   36 1    
     3    1   37 1    
     4    1   38 1    
     5    2    3 1    
     6    3    8 ar   
     7    3    4 ar   
     8    4    5 ar   
     9    4   39 1    
    10    5    6 ar   
    11    5   40 1    
    12    6    7 ar   
    13    6    9 1    
    14    7    8 ar   
    15    7   41 1    
    16    8   42 1    
    17    9   10 1    
    18    9   31 1    
    19    9   11 1    
    20   11   12 1    
    21   11   43 1    
    22   11   44 1    
    23   12   13 1    
    24   12   14 1    
    25   12   32 1    
    26   14   18 ar   
    27   14   15 ar   
    28   15   16 ar   
    29   15   31 1    
    30   16   17 ar   
    31   16   45 1    
    32   17   18 ar   
    33   17   19 1    
    34   19   20 2    
    35   19   21 am   BACKBONE|DICT|INTERRES
    36   21   22 1    
    37   21   46 1    
    38   22   27 ar   
    39   22   23 ar   
    40   23   24 ar   
    41   23   47 1    
    42   24   25 ar   
    43   24   48 1    
    44   25   30 1    
    45   25   26 ar   
    46   26   27 ar   
    47   26   28 1    
    48   27   49 1    
    49   28   29 1    
    50   29   30 1    
    51   29   50 1    
    52   29   51 1    
    53   31   52 1    
    54   32   33 1    
    55   32   34 1    
    56   32   35 1    
@<TRIPOS>SUBSTRUCTURE
     1 UNK         1 GROUP             0       ****    0 ROOT    
