@<TRIPOS>MOLECULE
ZINC39667068_3685
68   71    1
SMALL
USER_CHARGES


@<TRIPOS>ATOM
      1 C1         -3.3528   53.0983   24.9816 C.3       1 UNK         0.0000 
      2 C2         -2.4188   52.3613   24.0388 C.ar      1 UNK         0.0000 
      3 C3         -1.0354   52.4986   24.1578 C.ar      1 UNK         0.0000 
      4 C4         -0.1860   51.7828   23.3155 C.ar      1 UNK         0.0000 
      5 C5         -0.7064   50.9317   22.3342 C.ar      1 UNK         0.0000 
      6 C6         -2.1012   50.8014   22.2024 C.ar      1 UNK         0.0000 
      7 C7         -2.9419   51.5078   23.0665 C.ar      1 UNK         0.0000 
      8 C8         -2.7295   49.9068   21.1422 C.3       1 UNK         0.0000 
      9 C9          0.2624   50.1478   21.4510 C.3       1 UNK         0.0000 
     10 C10         0.7783   50.9255   20.2199 C.3       1 UNK         0.0000 
     11 N11         1.5978   52.0987   20.5314 N.am      1 UNK         0.0000 
     12 C12         2.8440   52.0301   21.0255 C.2       1 UNK         0.0000 
     13 O13         3.3677   50.9583   21.3392 O.2       1 UNK         0.0000 
     14 C14         3.5730   53.3805   21.2718 C.3       1 UNK         0.0000 
     15 H15         2.8366   54.1668   21.4333 H         1 UNK         0.0000 
     16 C16         4.4356   53.2226   22.5306 C.3       1 UNK         0.0000 
     17 N17         5.4078   54.3085   22.4131 N.am      1 UNK         0.0000 
     18 C18         5.5560   54.7424   21.0186 C.3       1 UNK         0.0000 
     19 C19         4.6169   53.8265   20.1998 C.3       1 UNK         0.0000 
     20 C20         3.9702   54.5157   18.9670 C.3       1 UNK         0.0000 
     21 C21         4.9769   54.9529   17.8904 C.3       1 UNK         0.0000 
     22 N22         5.7175   53.6969   17.3999 N.4       1 UNK         0.0000 
     23 C23         6.4424   52.9738   18.5456 C.3       1 UNK         0.0000 
     24 C24         5.4123   52.6153   19.6461 C.3       1 UNK         0.0000 
     25 C25         6.0989   54.8958   23.4240 C.2       1 UNK         0.0000 
     26 O26         7.0069   55.6964   23.2018 O.2       1 UNK         0.0000 
     27 C27         5.7097   54.6091   24.8575 C.ar      1 UNK         0.0000 
     28 C28         6.7044   54.4185   25.8190 C.ar      1 UNK         0.0000 
     29 C29         6.3717   54.0984   27.1347 C.ar      1 UNK         0.0000 
     30 C30         5.0330   53.9744   27.5047 C.ar      1 UNK         0.0000 
     31 C31         4.0200   54.2295   26.5741 C.ar      1 UNK         0.0000 
     32 C32         4.3685   54.5802   25.2698 C.ar      1 UNK         0.0000 
     33 C33         2.5511   54.0967   26.9473 C.3       1 UNK         0.0000 
     34 Br34        4.6098   53.4491   29.2817 Br        1 UNK         0.0000 
     35 H35        -4.2323   52.4921   25.2026 H         1 UNK         0.0000 
     36 H36        -2.8688   53.2979   25.9386 H         1 UNK         0.0000 
     37 H37        -3.6870   54.0387   24.5413 H         1 UNK         0.0000 
     38 H38        -0.6134   53.1467   24.9108 H         1 UNK         0.0000 
     39 H39         0.8835   51.8869   23.4303 H         1 UNK         0.0000 
     40 H40        -4.0127   51.3876   22.9859 H         1 UNK         0.0000 
     41 H41        -2.5624   48.8566   21.3834 H         1 UNK         0.0000 
     42 H42        -3.8027   50.0758   21.0441 H         1 UNK         0.0000 
     43 H43        -2.2855   50.1014   20.1659 H         1 UNK         0.0000 
     44 H44         1.1040   49.8081   22.0570 H         1 UNK         0.0000 
     45 H45        -0.1906   49.2104   21.1294 H         1 UNK         0.0000 
     46 H46         1.2648   50.2593   19.5039 H         1 UNK         0.0000 
     47 H47        -0.0872   51.3252   19.6897 H         1 UNK         0.0000 
     48 H48         1.2126   53.0102   20.3213 H         1 UNK         0.0000 
     49 H49         3.8047   53.1677   23.4115 H         1 UNK         0.0000 
     50 H50         5.0299   52.3090   22.4804 H         1 UNK         0.0000 
     51 H51         6.5743   54.7936   20.6332 H         1 UNK         0.0000 
     52 H52         5.1337   55.7453   20.9731 H         1 UNK         0.0000 
     53 H53         3.1961   53.8808   18.5308 H         1 UNK         0.0000 
     54 H54         3.4685   55.4218   19.2814 H         1 UNK         0.0000 
     55 H55         4.4870   55.3851   17.0157 H         1 UNK         0.0000 
     56 H56         5.7305   55.6510   18.2599 H         1 UNK         0.0000 
     57 H57         5.0552   53.0482   16.9924 H         1 UNK         0.0000 
     58 H58         6.8964   52.0968   18.0819 H         1 UNK         0.0000 
     59 H59         7.2302   53.6498   18.8811 H         1 UNK         0.0000 
     60 H60         5.9044   52.0845   20.4544 H         1 UNK         0.0000 
     61 H61         4.6990   51.8903   19.2817 H         1 UNK         0.0000 
     62 H62         7.7389   54.4967   25.5275 H         1 UNK         0.0000 
     63 H63         7.1495   53.9243   27.8642 H         1 UNK         0.0000 
     64 H64         3.5795   54.8232   24.5722 H         1 UNK         0.0000 
     65 H65         2.2509   54.8986   27.6222 H         1 UNK         0.0000 
     66 H66         1.9019   54.0966   26.0710 H         1 UNK         0.0000 
     67 H67         2.3781   53.1508   27.4617 H         1 UNK         0.0000 
     68 H68         6.3764   53.9372   16.6711 H         1 UNK         0.0000 
@<TRIPOS>BOND
     1    1    2 1    
     2    1   35 1    
     3    1   36 1    
     4    1   37 1    
     5    2    7 ar   
     6    2    3 ar   
     7    3    4 ar   
     8    3   38 1    
     9    4    5 ar   
    10    4   39 1    
    11    5    6 ar   
    12    5    9 1    
    13    6    7 ar   
    14    6    8 1    
    15    7   40 1    
    16    8   41 1    
    17    8   42 1    
    18    8   43 1    
    19    9   10 1    
    20    9   44 1    
    21    9   45 1    
    22   10   11 1    
    23   10   46 1    
    24   10   47 1    
    25   11   12 am   BACKBONE|DICT|INTERRES
    26   11   48 1    
    27   12   13 2    
    28   12   14 1    
    29   14   15 1    
    30   14   19 1    
    31   14   16 1    
    32   16   17 1    
    33   16   49 1    
    34   16   50 1    
    35   17   18 1    
    36   17   25 am   BACKBONE|DICT|INTERRES
    37   18   19 1    
    38   18   51 1    
    39   18   52 1    
    40   19   24 1    
    41   19   20 1    
    42   20   21 1    
    43   20   53 1    
    44   20   54 1    
    45   21   22 1    
    46   21   55 1    
    47   21   56 1    
    48   22   23 1    
    49   22   57 1    
    50   22   68 1    
    51   23   24 1    
    52   23   58 1    
    53   23   59 1    
    54   24   60 1    
    55   24   61 1    
    56   25   26 2    
    57   25   27 1    
    58   27   32 ar   
    59   27   28 ar   
    60   28   29 ar   
    61   28   62 1    
    62   29   30 ar   
    63   29   63 1    
    64   30   31 ar   
    65   30   34 1    
    66   31   32 ar   
    67   31   33 1    
    68   32   64 1    
    69   33   65 1    
    70   33   66 1    
    71   33   67 1    
@<TRIPOS>SUBSTRUCTURE
     1 UNK         1 GROUP             0       ****    0 ROOT    
