@<TRIPOS>MOLECULE
ZINC63530470_6071
54   58    1
SMALL
USER_CHARGES


@<TRIPOS>ATOM
      1 C1          1.7238   50.9824   16.9735 C.3       1 UNK         0.0000 
      2 C2          0.6901   51.2584   18.0752 C.3       1 UNK         0.0000 
      3 H3          0.0185   50.3955   18.0664 H         1 UNK         0.0000 
      4 C4         -0.1405   52.5136   17.7776 C.ar      1 UNK         0.0000 
      5 C5         -1.5408   52.4409   17.7994 C.ar      1 UNK         0.0000 
      6 C6         -2.3150   53.5734   17.5539 C.ar      1 UNK         0.0000 
      7 C7         -1.6948   54.7876   17.2680 C.ar      1 UNK         0.0000 
      8 C8         -0.2942   54.8666   17.2157 C.ar      1 UNK         0.0000 
      9 C9          0.4781   53.7312   17.4581 C.ar      1 UNK         0.0000 
     10 O10         0.3597   56.0308   16.8623 O.3       1 UNK         0.0000 
     11 C11        -0.4435   57.2121   16.9711 C.3       1 UNK         0.0000 
     12 C12        -1.8603   56.9699   16.4033 C.3       1 UNK         0.0000 
     13 O13        -2.4957   55.8966   17.1058 O.3       1 UNK         0.0000 
     14 N14         1.3508   51.2578   19.3862 N.am      1 UNK         0.0000 
     15 C15         0.7632   51.4720   20.5791 C.2       1 UNK         0.0000 
     16 O16        -0.4236   51.7751   20.7037 O.2       1 UNK         0.0000 
     17 C17         1.6388   51.2506   21.8297 C.3       1 UNK         0.0000 
     18 H18         2.6984   51.2690   21.5706 H         1 UNK         0.0000 
     19 C19         1.2933   52.1386   23.0139 C.2       1 UNK         0.0000 
     20 C20         0.7978   51.3726   24.0011 C.2       1 UNK         0.0000 
     21 C21         0.2994   51.7090   25.3445 C.2       1 UNK         0.0000 
     22 C22        -0.1512   50.7450   26.1711 C.2       1 UNK         0.0000 
     23 C23        -0.1352   49.3675   25.6924 C.2       1 UNK         0.0000 
     24 C24         0.3157   49.0400   24.4572 C.2       1 UNK         0.0000 
     25 C25         0.8056   50.0321   23.5968 C.2       1 UNK         0.0000 
     26 N26         1.3081   49.9176   22.3861 N.pl3     1 UNK         0.0000 
     27 S27         1.5345   53.9053   22.9952 S.3       1 UNK         0.0000 
     28 C28         3.0964   54.0313   23.8115 C.ar      1 UNK         0.0000 
     29 C29         3.1452   54.0972   25.2037 C.ar      1 UNK         0.0000 
     30 C30         4.3705   54.2451   25.8478 C.ar      1 UNK         0.0000 
     31 C31         5.5421   54.3205   25.0968 C.ar      1 UNK         0.0000 
     32 C32         5.4983   54.2358   23.7054 C.ar      1 UNK         0.0000 
     33 C33         4.2707   54.0960   23.0591 C.ar      1 UNK         0.0000 
     34 Cl34        7.0581   54.5142   25.8978 Cl        1 UNK         0.0000 
     35 H35         1.2474   50.8880   15.9976 H         1 UNK         0.0000 
     36 H36         2.4749   51.7690   16.9063 H         1 UNK         0.0000 
     37 H37         2.2632   50.0549   17.1631 H         1 UNK         0.0000 
     38 H38        -2.0333   51.5050   18.0223 H         1 UNK         0.0000 
     39 H39        -3.3908   53.5101   17.5842 H         1 UNK         0.0000 
     40 H40         1.5549   53.8088   17.4161 H         1 UNK         0.0000 
     41 H41         0.0461   58.0416   16.4582 H         1 UNK         0.0000 
     42 H42        -0.5284   57.4835   18.0248 H         1 UNK         0.0000 
     43 H43        -1.7791   56.7134   15.3458 H         1 UNK         0.0000 
     44 H44        -2.4678   57.8714   16.4810 H         1 UNK         0.0000 
     45 H45         2.3012   50.9192   19.3730 H         1 UNK         0.0000 
     46 H46         0.2840   52.7306   25.6977 H         1 UNK         0.0000 
     47 H47        -0.5167   50.9726   27.1631 H         1 UNK         0.0000 
     48 H48        -0.4897   48.5838   26.3533 H         1 UNK         0.0000 
     49 H49         0.3110   47.9983   24.1669 H         1 UNK         0.0000 
     50 H50         2.2387   54.0542   25.7868 H         1 UNK         0.0000 
     51 H51         4.4119   54.3040   26.9257 H         1 UNK         0.0000 
     52 H52         6.4122   54.2917   23.1320 H         1 UNK         0.0000 
     53 H53         4.2332   54.0477   21.9806 H         1 UNK         0.0000 
     54 H54         1.4190   49.0433   21.8798 H         1 UNK         0.0000 
@<TRIPOS>BOND
     1    1    2 1    
     2    1   35 1    
     3    1   36 1    
     4    1   37 1    
     5    2    3 1    
     6    2    4 1    
     7    2   14 1    
     8    4    9 ar   
     9    4    5 ar   
    10    5    6 ar   
    11    5   38 1    
    12    6    7 ar   
    13    6   39 1    
    14    7   13 1    
    15    7    8 ar   
    16    8    9 ar   
    17    8   10 1    
    18    9   40 1    
    19   10   11 1    
    20   11   12 1    
    21   11   41 1    
    22   11   42 1    
    23   12   13 1    
    24   12   43 1    
    25   12   44 1    
    26   14   15 am   BACKBONE|DICT|INTERRES
    27   14   45 1    
    28   15   16 2    
    29   15   17 1    
    30   17   18 1    
    31   17   26 1    
    32   17   19 1    
    33   19   20 2    
    34   19   27 1    
    35   20   25 1    
    36   20   21 1    
    37   21   22 2    
    38   21   46 1    
    39   22   23 1    
    40   22   47 1    
    41   23   24 2    
    42   23   48 1    
    43   24   25 1    
    44   24   49 1    
    45   25   26 2    
    46   26   54 1    
    47   27   28 1    
    48   28   33 ar   
    49   28   29 ar   
    50   29   30 ar   
    51   29   50 1    
    52   30   31 ar   
    53   30   51 1    
    54   31   32 ar   
    55   31   34 1    
    56   32   33 ar   
    57   32   52 1    
    58   33   53 1    
@<TRIPOS>SUBSTRUCTURE
     1 UNK         1 GROUP             0       ****    0 ROOT    
