ZINC13264453_3304
                    3D
 Schrodinger Suite 2024-2.
 58 60  0  0  1  0            999 V2000
   11.0381   53.0979   16.7304 C   0  0  0  0  0  0
    9.9037   53.8416   16.0101 C   0  0  0  0  0  0
    8.6220   53.8374   16.8186 C   0  0  0  0  0  0
    7.4689   53.0607   16.6452 C   0  0  0  0  0  0
    6.5065   53.3135   17.6350 C   0  0  0  0  0  0
    6.8882   54.2674   18.5757 C   0  0  0  0  0  0
    8.4560   54.8976   18.1894 S   0  0  0  0  0  0
    6.1854   54.7582   19.7378 C   0  0  0  0  0  0
    6.5941   55.7456   20.3628 O   0  0  0  0  0  0
    5.1199   54.0115   20.1018 N   0  0  0  0  0  0
    4.5224   54.1863   21.2993 N   0  0  0  0  0  0
    3.5125   53.4588   21.6101 C   0  0  0  0  0  0
    2.7971   52.4971   20.6449 C   0  0  0  0  0  0
    3.0066   53.4976   23.0120 C   0  0  0  0  0  0
    2.0968   52.5520   23.5220 C   0  0  0  0  0  0
    1.7020   52.5773   24.8622 C   0  0  0  0  0  0
    2.2215   53.5467   25.7223 C   0  0  0  0  0  0
    3.1042   54.4967   25.2268 C   0  0  0  0  0  0
    3.4716   54.4864   23.8945 C   0  0  0  0  0  0
    1.7547   53.6079   27.4583 S   0  0  0  0  0  0
    1.1044   54.8961   27.6836 O   0  0  0  0  0  0
    1.0846   52.3375   27.7610 O   0  0  0  0  0  0
    3.2627   53.7048   28.3449 N   0  0  0  0  0  0
    3.9900   54.9799   28.5116 C   0  0  0  0  0  0
    5.3874   54.9667   27.8358 C   0  0  0  0  0  0
    6.2025   53.7658   28.2665 C   0  0  0  0  0  0
    5.3616   52.5030   28.1235 C   0  0  0  0  0  0
    3.9477   52.4976   28.7564 C   0  0  1  0  0  0
    3.3682   51.6416   28.4243 H   0  0  0  0  0  0
    3.8488   52.3734   30.2934 C   0  0  0  0  0  0
    2.8755   52.8964   30.8804 O   0  0  0  0  0  0
    7.2792   52.0573   15.5301 C   0  0  0  0  0  0
   11.9479   53.0941   16.1300 H   0  0  0  0  0  0
   10.7664   52.0602   16.9287 H   0  0  0  0  0  0
   11.2734   53.5630   17.6887 H   0  0  0  0  0  0
   10.2201   54.8653   15.8066 H   0  0  0  0  0  0
    9.7463   53.3859   15.0319 H   0  0  0  0  0  0
    5.5629   52.7849   17.6612 H   0  0  0  0  0  0
    4.7809   53.2443   19.5401 H   0  0  0  0  0  0
    3.0787   51.4644   20.8533 H   0  0  0  0  0  0
    1.7136   52.5858   20.7269 H   0  0  0  0  0  0
    3.0403   52.6758   19.5978 H   0  0  0  0  0  0
    1.7007   51.7641   22.8988 H   0  0  0  0  0  0
    1.0102   51.8331   25.2318 H   0  0  0  0  0  0
    3.4608   55.2971   25.8518 H   0  0  0  0  0  0
    4.1319   55.2777   23.5695 H   0  0  0  0  0  0
    3.3415   55.7182   28.0813 H   0  0  0  0  0  0
    4.0521   55.2072   29.5760 H   0  0  0  0  0  0
    5.3140   54.9665   26.7515 H   0  0  0  0  0  0
    5.9768   55.8404   28.0820 H   0  0  0  0  0  0
    7.1062   53.6855   27.6597 H   0  0  0  0  0  0
    6.5484   53.9002   29.2817 H   0  0  0  0  0  0
    5.2380   52.3728   27.0495 H   0  0  0  0  0  0
    5.9390   51.6967   28.4817 H   0  0  0  0  0  0
    6.3114   51.5569   15.5658 H   0  0  0  0  0  0
    7.3698   52.5315   14.5526 H   0  0  0  0  0  0
    8.0551   51.2914   15.5534 H   0  0  0  0  0  0
    4.7038   51.6967   30.8820 O   0  5  0  0  0  0
  1  2  1  0  0  0
  1 33  1  0  0  0
  1 34  1  0  0  0
  1 35  1  0  0  0
  2  3  1  0  0  0
  2 36  1  0  0  0
  2 37  1  0  0  0
  3  7  1  0  0  0
  3  4  2  0  0  0
  4  5  1  0  0  0
  4 32  1  0  0  0
  5  6  2  0  0  0
  5 38  1  0  0  0
  6  7  1  0  0  0
  6  8  1  0  0  0
  8  9  2  0  0  0
  8 10  1  0  0  0
 10 11  1  0  0  0
 10 39  1  0  0  0
 11 12  2  0  0  0
 12 13  1  0  0  0
 12 14  1  0  0  0
 13 40  1  0  0  0
 13 41  1  0  0  0
 13 42  1  0  0  0
 14 19  2  0  0  0
 14 15  1  0  0  0
 15 16  2  0  0  0
 15 43  1  0  0  0
 16 17  1  0  0  0
 16 44  1  0  0  0
 17 18  2  0  0  0
 17 20  1  0  0  0
 18 19  1  0  0  0
 18 45  1  0  0  0
 19 46  1  0  0  0
 20 21  2  0  0  0
 20 22  2  0  0  0
 20 23  1  0  0  0
 23 28  1  0  0  0
 23 24  1  0  0  0
 24 25  1  0  0  0
 24 47  1  0  0  0
 24 48  1  0  0  0
 25 26  1  0  0  0
 25 49  1  0  0  0
 25 50  1  0  0  0
 26 27  1  0  0  0
 26 51  1  0  0  0
 26 52  1  0  0  0
 27 28  1  0  0  0
 27 53  1  0  0  0
 27 54  1  0  0  0
 28 29  1  0  0  0
 28 30  1  0  0  0
 30 31  2  0  0  0
 30 58  1  0  0  0
 32 55  1  0  0  0
 32 56  1  0  0  0
 32 57  1  0  0  0
M  CHG  1  58  -1
M  END
> <i_i_glide_confnum>
100

> <i_i_glide_lignum>
3305

> <i_i_glide_posenum>
40

> <i_i_glide_rotatable_bonds>
8

> <i_m_Source_File_Index>
3564

> <b_m_subgroup_collapsed>
0

> <r_i_docking_score>
-4.37597

> <r_i_glide_ecoul>
-5.77741

> <r_i_glide_eff_state_penalty>
0

> <r_i_glide_einternal>
5.15107

> <r_i_glide_emodel>
-37.3402

> <r_i_glide_energy>
-30.3273

> <r_i_glide_erotb>
0.534938

> <r_i_glide_esite>
-0.000173139

> <r_i_glide_evdw>
-24.5499

> <r_i_glide_gscore>
-4.37597

> <r_i_glide_hbond>
-0.122317

> <r_i_glide_ligand_efficiency>
-0.136749

> <r_i_glide_ligand_efficiency_ln>
-0.979899

> <r_i_glide_ligand_efficiency_sa>
-0.434151

> <r_i_glide_lipo>
-2.33597

> <r_i_glide_metal>
0

> <r_i_glide_rewards>
-0.35834

> <s_i_glide_gridfile>
wee1_glide-grid

> <s_m_Source_File>
wee1_decoys_glide_SP.sdf

> <s_m_Source_Path>
/Users/zhangxujun/Desktop

> <s_m_entry_id>
3839

> <s_m_entry_name>
wee1_decoys_glide_SP.3564

> <s_m_subgroup_title>
wee1_decoys_glide_SP

> <s_m_subgroupid>
wee1_decoys_glide_SP


$$$$
