@<TRIPOS>MOLECULE
ZINC09925431_6089
55   58    1
SMALL
USER_CHARGES


@<TRIPOS>ATOM
      1 C1          0.1691   48.1301   20.0817 C.ar      1 UNK         0.0000 
      2 C2          1.3440   47.8875   19.3765 C.ar      1 UNK         0.0000 
      3 C3          2.3042   48.8890   19.2766 C.ar      1 UNK         0.0000 
      4 C4          2.1018   50.1311   19.8812 C.ar      1 UNK         0.0000 
      5 C5          0.9125   50.3677   20.5869 C.ar      1 UNK         0.0000 
      6 C6         -0.0498   49.3649   20.6902 C.ar      1 UNK         0.0000 
      7 N7          3.1043   51.1023   19.6818 N.am      1 UNK         0.0000 
      8 C8          3.3071   52.2506   20.3692 C.2       1 UNK         0.0000 
      9 O9          2.7599   52.5110   21.4437 O.2       1 UNK         0.0000 
     10 C10         4.3006   53.2305   19.7580 C.ar      1 UNK         0.0000 
     11 C11         4.4243   53.2973   18.3595 C.ar      1 UNK         0.0000 
     12 C12         5.3001   54.1886   17.7473 C.ar      1 UNK         0.0000 
     13 C13         6.0709   55.0441   18.5213 C.ar      1 UNK         0.0000 
     14 C14         5.9717   55.0029   19.9082 C.ar      1 UNK         0.0000 
     15 C15         5.1045   54.0977   20.5458 C.ar      1 UNK         0.0000 
     16 N16         4.9950   54.0546   21.9540 N.am      1 UNK         0.0000 
     17 C17         5.8386   54.4964   22.9108 C.2       1 UNK         0.0000 
     18 O18         6.9518   54.9729   22.6936 O.2       1 UNK         0.0000 
     19 C19         5.3455   54.3375   24.3305 C.ar      1 UNK         0.0000 
     20 C20         3.9749   54.3421   24.6413 C.ar      1 UNK         0.0000 
     21 C21         3.5439   54.1877   25.9593 C.ar      1 UNK         0.0000 
     22 C22         4.4735   54.0136   26.9906 C.ar      1 UNK         0.0000 
     23 C23         5.8345   54.0003   26.6868 C.ar      1 UNK         0.0000 
     24 C24         6.2673   54.1802   25.3739 C.ar      1 UNK         0.0000 
     25 Br25        7.1044   53.6984   28.0707 Br        1 UNK         0.0000 
     26 O26         4.1036   53.8391   28.3047 O.3       1 UNK         0.0000 
     27 C27         3.0861   54.6810   28.8376 C.3       1 UNK         0.0000 
     28 C28         1.9069   53.8312   29.3352 C.3       1 UNK         0.0000 
     29 H29         1.3394   53.4786   28.4713 H         1 UNK         0.0000 
     30 C30         2.2779   52.6691   30.2593 C.3       1 UNK         0.0000 
     31 C31         1.1036   52.5531   31.2104 C.3       1 UNK         0.0000 
     32 C32         0.3044   53.8348   31.0001 C.3       1 UNK         0.0000 
     33 O33         1.1084   54.6629   30.1686 O.3       1 UNK         0.0000 
     34 H34        -0.5814   47.3584   20.1582 H         1 UNK         0.0000 
     35 H35         1.5074   46.9314   18.9038 H         1 UNK         0.0000 
     36 H36         3.2054   48.6903   18.7168 H         1 UNK         0.0000 
     37 H37         0.7043   51.3222   21.0446 H         1 UNK         0.0000 
     38 H38        -0.9670   49.5499   21.2304 H         1 UNK         0.0000 
     39 H39         3.7536   50.9012   18.9243 H         1 UNK         0.0000 
     40 H40         3.8376   52.6537   17.7176 H         1 UNK         0.0000 
     41 H41         5.3766   54.2153   16.6696 H         1 UNK         0.0000 
     42 H42         6.7464   55.7423   18.0473 H         1 UNK         0.0000 
     43 H43         6.5751   55.7003   20.4660 H         1 UNK         0.0000 
     44 H44         4.1623   53.5735   22.2705 H         1 UNK         0.0000 
     45 H45         3.2268   54.4692   23.8716 H         1 UNK         0.0000 
     46 H46         2.4851   54.1752   26.1719 H         1 UNK         0.0000 
     47 H47         7.3269   54.1641   25.1649 H         1 UNK         0.0000 
     48 H48         3.5422   55.2011   29.6812 H         1 UNK         0.0000 
     49 H49         2.7400   55.4598   28.1557 H         1 UNK         0.0000 
     50 H50         2.5049   51.7605   29.6990 H         1 UNK         0.0000 
     51 H51         3.1881   52.8997   30.8151 H         1 UNK         0.0000 
     52 H52         0.4737   51.6967   30.9707 H         1 UNK         0.0000 
     53 H53         1.4299   52.4471   32.2459 H         1 UNK         0.0000 
     54 H54        -0.6326   53.6338   30.4831 H         1 UNK         0.0000 
     55 H55         0.0609   54.3410   31.9362 H         1 UNK         0.0000 
@<TRIPOS>BOND
     1    1    6 ar   
     2    1    2 ar   
     3    1   34 1    
     4    2    3 ar   
     5    2   35 1    
     6    3    4 ar   
     7    3   36 1    
     8    4    5 ar   
     9    4    7 1    
    10    5    6 ar   
    11    5   37 1    
    12    6   38 1    
    13    7    8 am   BACKBONE|DICT|INTERRES
    14    7   39 1    
    15    8    9 2    
    16    8   10 1    
    17   10   15 ar   
    18   10   11 ar   
    19   11   12 ar   
    20   11   40 1    
    21   12   13 ar   
    22   12   41 1    
    23   13   14 ar   
    24   13   42 1    
    25   14   15 ar   
    26   14   43 1    
    27   15   16 1    
    28   16   17 am   BACKBONE|DICT|INTERRES
    29   16   44 1    
    30   17   18 2    
    31   17   19 1    
    32   19   24 ar   
    33   19   20 ar   
    34   20   21 ar   
    35   20   45 1    
    36   21   22 ar   
    37   21   46 1    
    38   22   23 ar   
    39   22   26 1    
    40   23   24 ar   
    41   23   25 1    
    42   24   47 1    
    43   26   27 1    
    44   27   28 1    
    45   27   48 1    
    46   27   49 1    
    47   28   29 1    
    48   28   33 1    
    49   28   30 1    
    50   30   31 1    
    51   30   50 1    
    52   30   51 1    
    53   31   32 1    
    54   31   52 1    
    55   31   53 1    
    56   32   33 1    
    57   32   54 1    
    58   32   55 1    
@<TRIPOS>SUBSTRUCTURE
     1 UNK         1 GROUP             0       ****    0 ROOT    
