@<TRIPOS>MOLECULE
ZINC35337739_3657
59   62    1
SMALL
USER_CHARGES


@<TRIPOS>ATOM
      1 C1          4.3499   53.2290   27.6584 C.3       1 UNK         0.0000 
      2 C2          3.0607   53.1662   26.8338 C.2       1 UNK         0.0000 
      3 C3          2.8899   53.4082   25.5011 C.2       1 UNK         0.0000 
      4 C4          1.5257   53.0893   24.8045 C.3       1 UNK         0.0000 
      5 H5          1.1360   54.0470   24.4488 H         1 UNK         0.0000 
      6 N6          0.5117   52.6406   25.8097 N.pl3     1 UNK         0.0000 
      7 C7         -0.8516   52.4937   25.2442 C.3       1 UNK         0.0000 
      8 C8         -1.9325   52.3510   26.3355 C.3       1 UNK         0.0000 
      9 C9         -1.6554   51.2352   27.3513 C.3       1 UNK         0.0000 
     10 S10        -0.2080   51.6962   28.3178 S.3       1 UNK         0.0000 
     11 C11         0.7900   52.4262   27.1102 C.2       1 UNK         0.0000 
     12 N12         2.0060   52.6993   27.5693 N.pl3     1 UNK         0.0000 
     13 C13         1.5896   52.1820   23.5550 C.ar      1 UNK         0.0000 
     14 C14         1.6229   52.7508   22.2764 C.ar      1 UNK         0.0000 
     15 C15         1.7237   51.9424   21.1466 C.ar      1 UNK         0.0000 
     16 C16         1.7733   50.5483   21.2896 C.ar      1 UNK         0.0000 
     17 C17         1.7095   49.9761   22.5582 C.ar      1 UNK         0.0000 
     18 C18         1.5895   50.7883   23.6816 C.ar      1 UNK         0.0000 
     19 N19         1.9152   49.6682   20.2043 N.am      1 UNK         0.0000 
     20 C20         1.3945   49.7983   18.9687 C.2       1 UNK         0.0000 
     21 O21         0.7013   50.7492   18.6042 O.2       1 UNK         0.0000 
     22 C22         1.6952   48.6686   18.1213 C.2       1 UNK         0.0000 
     23 C23         1.2825   48.5924   16.8382 C.2       1 UNK         0.0000 
     24 C24         1.4990   47.4528   15.9239 C.ar      1 UNK         0.0000 
     25 C25         1.3797   47.6598   14.5437 C.ar      1 UNK         0.0000 
     26 C26         1.5553   46.6017   13.6563 C.ar      1 UNK         0.0000 
     27 C27         1.8477   45.3309   14.1498 C.ar      1 UNK         0.0000 
     28 C28         1.9817   45.1157   15.5207 C.ar      1 UNK         0.0000 
     29 C29         1.8132   46.1763   16.4052 C.ar      1 UNK         0.0000 
     30 C30         3.9561   54.0034   24.6786 C.2       1 UNK         0.0000 
     31 O31         4.1410   53.6970   23.5030 O.2       1 UNK         0.0000 
     32 N32         4.7522   54.8953   25.2973 N.am      1 UNK         0.0000 
     33 C33         5.9854   55.4448   24.7422 C.3       1 UNK         0.0000 
     34 H34         5.2240   53.0037   27.0431 H         1 UNK         0.0000 
     35 H35         4.4805   54.2046   28.1240 H         1 UNK         0.0000 
     36 H36         4.3548   52.4738   28.4468 H         1 UNK         0.0000 
     37 H37        -1.0661   53.3366   24.5866 H         1 UNK         0.0000 
     38 H38        -0.8481   51.6002   24.6183 H         1 UNK         0.0000 
     39 H39        -2.0466   53.2969   26.8661 H         1 UNK         0.0000 
     40 H40        -2.8954   52.1660   25.8576 H         1 UNK         0.0000 
     41 H41        -2.4862   51.0774   28.0418 H         1 UNK         0.0000 
     42 H42        -1.4377   50.2792   26.8716 H         1 UNK         0.0000 
     43 H43         1.6098   53.8243   22.1491 H         1 UNK         0.0000 
     44 H44         1.7821   52.4056   20.1716 H         1 UNK         0.0000 
     45 H45         1.7492   48.9017   22.6851 H         1 UNK         0.0000 
     46 H46         1.5042   50.3193   24.6489 H         1 UNK         0.0000 
     47 H47         2.4267   48.8175   20.3876 H         1 UNK         0.0000 
     48 H48         2.2778   47.8701   18.5538 H         1 UNK         0.0000 
     49 H49         0.7211   49.4163   16.4215 H         1 UNK         0.0000 
     50 H50         1.1542   48.6420   14.1549 H         1 UNK         0.0000 
     51 H51         1.4535   46.7641   12.5909 H         1 UNK         0.0000 
     52 H52         1.9717   44.5062   13.4617 H         1 UNK         0.0000 
     53 H53         2.2218   44.1291   15.8921 H         1 UNK         0.0000 
     54 H54         1.9035   45.9955   17.4642 H         1 UNK         0.0000 
     55 H55         4.5501   55.1190   26.2594 H         1 UNK         0.0000 
     56 H56         6.2470   56.3814   25.2396 H         1 UNK         0.0000 
     57 H57         6.8068   54.7386   24.9021 H         1 UNK         0.0000 
     58 H58         5.9085   55.6297   23.6712 H         1 UNK         0.0000 
     59 H59         2.1566   52.5060   28.5500 H         1 UNK         0.0000 
@<TRIPOS>BOND
     1    1    2 1    
     2    1   34 1    
     3    1   35 1    
     4    1   36 1    
     5    2   12 1    
     6    2    3 2    
     7    3    4 1    
     8    3   30 1    
     9    4    5 1    
    10    4    6 1    
    11    4   13 1    
    12    6   11 1    
    13    6    7 1    
    14    7    8 1    
    15    7   37 1    
    16    7   38 1    
    17    8    9 1    
    18    8   39 1    
    19    8   40 1    
    20    9   10 1    
    21    9   41 1    
    22    9   42 1    
    23   10   11 1    
    24   11   12 2    
    25   12   59 1    
    26   13   18 ar   
    27   13   14 ar   
    28   14   15 ar   
    29   14   43 1    
    30   15   16 ar   
    31   15   44 1    
    32   16   17 ar   
    33   16   19 1    
    34   17   18 ar   
    35   17   45 1    
    36   18   46 1    
    37   19   20 am   BACKBONE|DICT|INTERRES
    38   19   47 1    
    39   20   21 2    
    40   20   22 1    
    41   22   23 2    
    42   22   48 1    
    43   23   24 1    
    44   23   49 1    
    45   24   29 ar   
    46   24   25 ar   
    47   25   26 ar   
    48   25   50 1    
    49   26   27 ar   
    50   26   51 1    
    51   27   28 ar   
    52   27   52 1    
    53   28   29 ar   
    54   28   53 1    
    55   29   54 1    
    56   30   31 2    
    57   30   32 am   BACKBONE|DICT|INTERRES
    58   32   33 1    
    59   32   55 1    
    60   33   56 1    
    61   33   57 1    
    62   33   58 1    
@<TRIPOS>SUBSTRUCTURE
     1 UNK         1 GROUP             0       ****    0 ROOT    
