@<TRIPOS>MOLECULE
ZINC20008221_5038
50   53    1
SMALL
USER_CHARGES


@<TRIPOS>ATOM
      1 C1          2.2637   48.6817   19.4723 C.3       1 UNK         0.0000 
      2 C2          1.7827   49.7898   20.3904 C.ar      1 UNK         0.0000 
      3 C3          2.7110   50.5051   21.1443 C.ar      1 UNK         0.0000 
      4 C4          2.2924   51.5291   21.9880 C.ar      1 UNK         0.0000 
      5 C5          0.9345   51.8693   22.0840 C.ar      1 UNK         0.0000 
      6 C6          0.0064   51.1551   21.3150 C.ar      1 UNK         0.0000 
      7 C7          0.4275   50.1191   20.4773 C.ar      1 UNK         0.0000 
      8 Br8        -1.8456   51.6103   21.3710 Br        1 UNK         0.0000 
      9 O9          0.4580   52.8962   22.8786 O.3       1 UNK         0.0000 
     10 C10         1.3513   53.9179   23.3370 C.3       1 UNK         0.0000 
     11 C11         2.0097   53.5385   24.6738 C.2       1 UNK         0.0000 
     12 O12         1.5096   52.6650   25.3825 O.2       1 UNK         0.0000 
     13 N13         3.1525   54.2010   24.9575 N.am      1 UNK         0.0000 
     14 C14         3.9900   54.0986   26.0946 C.ar      1 UNK         0.0000 
     15 C15         3.4576   53.7196   27.3416 C.ar      1 UNK         0.0000 
     16 C16         4.2479   53.7004   28.4863 C.ar      1 UNK         0.0000 
     17 C17         5.5826   54.0723   28.4078 C.ar      1 UNK         0.0000 
     18 C18         6.1309   54.4466   27.1905 C.ar      1 UNK         0.0000 
     19 C19         5.3650   54.4607   26.0145 C.ar      1 UNK         0.0000 
     20 C20         6.0732   54.8969   24.7446 C.2       1 UNK         0.0000 
     21 O21         7.0047   55.6967   24.8240 O.2       1 UNK         0.0000 
     22 N22         5.6390   54.3391   23.5936 N.am      1 UNK         0.0000 
     23 C23         5.9748   54.6480   22.2621 C.ar      1 UNK         0.0000 
     24 C24         7.1040   55.4092   21.8721 C.ar      1 UNK         0.0000 
     25 C25         7.3606   55.6844   20.5210 C.ar      1 UNK         0.0000 
     26 C26         6.4753   55.1692   19.5821 C.ar      1 UNK         0.0000 
     27 C27         5.3840   54.4363   19.9493 C.ar      1 UNK         0.0000 
     28 C28         5.0989   54.1586   21.2794 C.ar      1 UNK         0.0000 
     29 O29         4.6785   54.0910   18.8421 O.3       1 UNK         0.0000 
     30 C30         5.5125   54.4069   17.7609 C.3       1 UNK         0.0000 
     31 O31         6.4968   55.2915   18.2292 O.3       1 UNK         0.0000 
     32 H32         3.1039   49.0377   18.8752 H         1 UNK         0.0000 
     33 H33         1.4886   48.3507   18.7805 H         1 UNK         0.0000 
     34 H34         2.6204   47.8309   20.0535 H         1 UNK         0.0000 
     35 H35         3.7618   50.2701   21.0749 H         1 UNK         0.0000 
     36 H36         3.0381   52.0433   22.5684 H         1 UNK         0.0000 
     37 H37        -0.3005   49.5816   19.8875 H         1 UNK         0.0000 
     38 H38         2.0850   54.1917   22.5759 H         1 UNK         0.0000 
     39 H39         0.7509   54.8097   23.5006 H         1 UNK         0.0000 
     40 H40         3.4813   54.8450   24.2537 H         1 UNK         0.0000 
     41 H41         2.4155   53.4644   27.4557 H         1 UNK         0.0000 
     42 H42         3.8200   53.4123   29.4346 H         1 UNK         0.0000 
     43 H43         6.2103   54.0838   29.2817 H         1 UNK         0.0000 
     44 H44         7.1748   54.7267   27.1799 H         1 UNK         0.0000 
     45 H45         4.9164   53.6448   23.7039 H         1 UNK         0.0000 
     46 H46         7.8058   55.7918   22.5944 H         1 UNK         0.0000 
     47 H47         8.2295   56.2533   20.2261 H         1 UNK         0.0000 
     48 H48         4.2214   53.5886   21.5338 H         1 UNK         0.0000 
     49 H49         4.9393   54.8543   16.9487 H         1 UNK         0.0000 
     50 H50         5.9852   53.4906   17.3986 H         1 UNK         0.0000 
@<TRIPOS>BOND
     1    1    2 1    
     2    1   32 1    
     3    1   33 1    
     4    1   34 1    
     5    2    7 ar   
     6    2    3 ar   
     7    3    4 ar   
     8    3   35 1    
     9    4    5 ar   
    10    4   36 1    
    11    5    6 ar   
    12    5    9 1    
    13    6    7 ar   
    14    6    8 1    
    15    7   37 1    
    16    9   10 1    
    17   10   11 1    
    18   10   38 1    
    19   10   39 1    
    20   11   12 2    
    21   11   13 am   BACKBONE|DICT|INTERRES
    22   13   14 1    
    23   13   40 1    
    24   14   19 ar   
    25   14   15 ar   
    26   15   16 ar   
    27   15   41 1    
    28   16   17 ar   
    29   16   42 1    
    30   17   18 ar   
    31   17   43 1    
    32   18   19 ar   
    33   18   44 1    
    34   19   20 1    
    35   20   21 2    
    36   20   22 am   BACKBONE|DICT|INTERRES
    37   22   23 1    
    38   22   45 1    
    39   23   28 ar   
    40   23   24 ar   
    41   24   25 ar   
    42   24   46 1    
    43   25   26 ar   
    44   25   47 1    
    45   26   31 1    
    46   26   27 ar   
    47   27   28 ar   
    48   27   29 1    
    49   28   48 1    
    50   29   30 1    
    51   30   31 1    
    52   30   49 1    
    53   30   50 1    
@<TRIPOS>SUBSTRUCTURE
     1 UNK         1 GROUP             0       ****    0 ROOT    
