@<TRIPOS>MOLECULE
ZINC18200657_4429
46   50    1
SMALL
USER_CHARGES


@<TRIPOS>ATOM
      1 C1          6.3041   54.5152   22.9957 C.2       1 UNK         0.0000 
      2 C2          4.9801   54.0969   22.8517 C.2       1 UNK         0.0000 
      3 C3          4.1902   54.2382   23.9998 C.2       1 UNK         0.0000 
      4 S4          5.1809   54.8963   25.2853 S.3       1 UNK         0.0000 
      5 C5          6.5722   54.9797   24.2659 C.2       1 UNK         0.0000 
      6 C6          2.7140   53.9095   24.2052 C.3       1 UNK         0.0000 
      7 H7          2.1571   54.8490   24.1748 H         1 UNK         0.0000 
      8 C8          2.4431   53.2642   25.5861 C.3       1 UNK         0.0000 
      9 C9          1.0471   52.6573   25.7090 C.2       1 UNK         0.0000 
     10 C10         0.2364   52.3901   24.6448 C.2       1 UNK         0.0000 
     11 C11        -1.1946   51.8127   24.8238 C.3       1 UNK         0.0000 
     12 H12        -1.9251   52.5073   24.4047 H         1 UNK         0.0000 
     13 N13        -1.4791   51.7131   26.2616 N.pl3     1 UNK         0.0000 
     14 C14        -0.6065   51.9522   27.2921 C.ar      1 UNK         0.0000 
     15 N15        -1.1649   51.6966   28.4427 N.2       1 UNK         0.0000 
     16 C16        -2.3730   51.2967   28.0736 C.ar      1 UNK         0.0000 
     17 N17        -2.6442   51.3167   26.7861 N.2       1 UNK         0.0000 
     18 N18        -3.2945   50.8956   28.9858 N.pl3     1 UNK         0.0000 
     19 N19         0.6420   52.4613   27.0197 N.pl3     1 UNK         0.0000 
     20 C20        -1.4547   50.4782   24.1056 C.ar      1 UNK         0.0000 
     21 C21        -2.3362   50.4264   23.0213 C.ar      1 UNK         0.0000 
     22 C22        -2.5683   49.2233   22.3637 C.ar      1 UNK         0.0000 
     23 C23        -1.9289   48.0542   22.7871 C.ar      1 UNK         0.0000 
     24 C24        -1.0538   48.1033   23.8789 C.ar      1 UNK         0.0000 
     25 C25        -0.8158   49.3089   24.5328 C.ar      1 UNK         0.0000 
     26 C26        -2.1929   46.7357   22.0611 C.3       1 UNK         0.0000 
     27 F27        -3.4107   46.7109   21.5162 F         1 UNK         0.0000 
     28 F28        -2.1003   45.6965   22.8899 F         1 UNK         0.0000 
     29 F29        -1.2956   46.5838   21.0883 F         1 UNK         0.0000 
     30 C30         0.6925   52.6243   23.2616 C.2       1 UNK         0.0000 
     31 O31        -0.0536   52.4962   22.2926 O.2       1 UNK         0.0000 
     32 C32         2.1498   53.0432   23.0589 C.3       1 UNK         0.0000 
     33 H33         7.0353   54.4946   22.2009 H         1 UNK         0.0000 
     34 H34         4.5987   53.7104   21.9185 H         1 UNK         0.0000 
     35 H35         7.5044   55.3723   24.6354 H         1 UNK         0.0000 
     36 H36         2.5392   54.0652   26.3217 H         1 UNK         0.0000 
     37 H37         3.1656   52.4970   25.8507 H         1 UNK         0.0000 
     38 H38        -2.9409   50.4154   29.8063 H         1 UNK         0.0000 
     39 H39        -4.1864   50.5623   28.6567 H         1 UNK         0.0000 
     40 H40         1.2543   52.7123   27.7806 H         1 UNK         0.0000 
     41 H41        -2.8346   51.3198   22.6753 H         1 UNK         0.0000 
     42 H42        -3.2444   49.2065   21.5209 H         1 UNK         0.0000 
     43 H43        -0.5514   47.2142   24.2293 H         1 UNK         0.0000 
     44 H44        -0.1416   49.3313   25.3782 H         1 UNK         0.0000 
     45 H45         2.2513   53.5215   22.0838 H         1 UNK         0.0000 
     46 H46         2.7190   52.1160   23.0038 H         1 UNK         0.0000 
@<TRIPOS>BOND
     1    1    5 2    
     2    1    2 1    
     3    1   33 1    
     4    2    3 2    
     5    2   34 1    
     6    3    4 1    
     7    3    6 1    
     8    4    5 1    
     9    5   35 1    
    10    6    7 1    
    11    6   32 1    
    12    6    8 1    
    13    8    9 1    
    14    8   36 1    
    15    8   37 1    
    16    9   19 1    
    17    9   10 2    
    18   10   11 1    
    19   10   30 1    
    20   11   12 1    
    21   11   13 1    
    22   11   20 1    
    23   13   17 ar   
    24   13   14 ar   
    25   14   15 ar   
    26   14   19 1    
    27   15   16 ar   
    28   16   17 ar   
    29   16   18 1    
    30   18   38 1    
    31   18   39 1    
    32   19   40 1    
    33   20   25 ar   
    34   20   21 ar   
    35   21   22 ar   
    36   21   41 1    
    37   22   23 ar   
    38   22   42 1    
    39   23   24 ar   
    40   23   26 1    
    41   24   25 ar   
    42   24   43 1    
    43   25   44 1    
    44   26   27 1    
    45   26   28 1    
    46   26   29 1    
    47   30   31 2    
    48   30   32 1    
    49   32   45 1    
    50   32   46 1    
@<TRIPOS>SUBSTRUCTURE
     1 UNK         1 GROUP             0       ****    0 ROOT    
