@<TRIPOS>MOLECULE
ZINC08444961_3505
40   42    1
SMALL
USER_CHARGES


@<TRIPOS>ATOM
      1 C1          6.7135   54.1608   27.6826 C.3       1 UNK         0.0000 
      2 C2          5.3823   54.0438   26.9790 C.ar      1 UNK         0.0000 
      3 C3          5.2662   54.2431   25.6087 C.ar      1 UNK         0.0000 
      4 C4          4.0039   54.0365   25.0369 C.ar      1 UNK         0.0000 
      5 N5          2.9229   53.6970   25.7883 N.ar      1 UNK         0.0000 
      6 C6          3.1185   53.5364   27.1326 C.ar      1 UNK         0.0000 
      7 N7          4.3234   53.6960   27.7524 N.ar      1 UNK         0.0000 
      8 C8          1.9437   53.0837   27.9682 C.ar      1 UNK         0.0000 
      9 C9          0.8309   52.4960   27.3371 C.ar      1 UNK         0.0000 
     10 C10        -0.2717   52.0449   28.0566 C.ar      1 UNK         0.0000 
     11 C11        -0.2865   52.1476   29.4423 C.ar      1 UNK         0.0000 
     12 C12         0.7856   52.7397   30.1027 C.ar      1 UNK         0.0000 
     13 C13         1.8922   53.2091   29.3798 C.ar      1 UNK         0.0000 
     14 O14         2.9157   53.7970   30.0811 O.3       1 UNK         0.0000 
     15 Br15        0.7051   52.8963   32.0025 Br        1 UNK         0.0000 
     16 Br16       -1.7654   51.2971   27.1465 Br        1 UNK         0.0000 
     17 N17         3.8024   54.0979   23.6530 N.pl3     1 UNK         0.0000 
     18 N18         4.8362   54.3853   22.7510 N.2       1 UNK         0.0000 
     19 C19         4.6018   54.3844   21.5066 C.2       1 UNK         0.0000 
     20 C20         5.6010   54.7999   20.4957 C.ar      1 UNK         0.0000 
     21 C21         5.2530   54.6532   19.1458 C.ar      1 UNK         0.0000 
     22 C22         6.1363   55.0092   18.1273 C.ar      1 UNK         0.0000 
     23 C23         7.3905   55.5244   18.4394 C.ar      1 UNK         0.0000 
     24 C24         7.7594   55.6898   19.7717 C.ar      1 UNK         0.0000 
     25 C25         6.8793   55.3370   20.7953 C.ar      1 UNK         0.0000 
     26 O26         7.3184   55.5454   22.0808 O.3       1 UNK         0.0000 
     27 H27         7.5053   54.4902   27.0091 H         1 UNK         0.0000 
     28 H28         6.6257   54.8933   28.4812 H         1 UNK         0.0000 
     29 H29         7.0095   53.2043   28.1136 H         1 UNK         0.0000 
     30 H30         6.1224   54.4975   25.0036 H         1 UNK         0.0000 
     31 H31         0.8095   52.3768   26.2652 H         1 UNK         0.0000 
     32 H32        -1.1314   51.7800   30.0085 H         1 UNK         0.0000 
     33 H33         3.6548   53.9855   29.4926 H         1 UNK         0.0000 
     34 H34         2.8946   53.9127   23.2508 H         1 UNK         0.0000 
     35 H35         3.6318   54.0908   21.1121 H         1 UNK         0.0000 
     36 H36         4.2878   54.2496   18.8626 H         1 UNK         0.0000 
     37 H37         5.8489   54.8790   17.0928 H         1 UNK         0.0000 
     38 H38         8.0762   55.7936   17.6516 H         1 UNK         0.0000 
     39 H39         8.7379   56.0916   20.0013 H         1 UNK         0.0000 
     40 H40         8.2629   55.6982   22.1758 H         1 UNK         0.0000 
@<TRIPOS>BOND
     1    1    2 1    
     2    1   27 1    
     3    1   28 1    
     4    1   29 1    
     5    2    7 ar   
     6    2    3 ar   
     7    3    4 ar   
     8    3   30 1    
     9    4    5 ar   
    10    4   17 1    
    11    5    6 ar   
    12    6    7 ar   
    13    6    8 1    
    14    8   13 ar   
    15    8    9 ar   
    16    9   10 ar   
    17    9   31 1    
    18   10   11 ar   
    19   10   16 1    
    20   11   12 ar   
    21   11   32 1    
    22   12   13 ar   
    23   12   15 1    
    24   13   14 1    
    25   14   33 1    
    26   17   18 1    
    27   17   34 1    
    28   18   19 2    
    29   19   20 1    
    30   19   35 1    
    31   20   25 ar   
    32   20   21 ar   
    33   21   22 ar   
    34   21   36 1    
    35   22   23 ar   
    36   22   37 1    
    37   23   24 ar   
    38   23   38 1    
    39   24   25 ar   
    40   24   39 1    
    41   25   26 1    
    42   26   40 1    
@<TRIPOS>SUBSTRUCTURE
     1 UNK         1 GROUP             0       ****    0 ROOT    
