@<TRIPOS>MOLECULE
ZINC09237767_2034
49   52    1
SMALL
USER_CHARGES


@<TRIPOS>ATOM
      1 C1          3.4496   53.9966   23.5908 C.3       1 UNK         0.0000 
      2 C2          3.4481   53.3013   22.2364 C.ar      1 UNK         0.0000 
      3 C3          4.5392   53.4857   21.3815 C.ar      1 UNK         0.0000 
      4 C4          4.5597   52.8905   20.1201 C.ar      1 UNK         0.0000 
      5 C5          3.4856   52.1079   19.7000 C.ar      1 UNK         0.0000 
      6 C6          2.3939   51.9106   20.5430 C.ar      1 UNK         0.0000 
      7 C7          2.3740   52.4942   21.8140 C.ar      1 UNK         0.0000 
      8 N8          1.2509   52.2842   22.6209 N.am      1 UNK         0.0000 
      9 C9          1.0703   51.2028   23.4085 C.2       1 UNK         0.0000 
     10 O10         1.9038   50.3012   23.4929 O.2       1 UNK         0.0000 
     11 C11        -0.2465   51.0679   24.2214 C.3       1 UNK         0.0000 
     12 H12        -0.7147   50.2587   23.6583 H         1 UNK         0.0000 
     13 C13        -0.0584   50.6058   25.7137 C.3       1 UNK         0.0000 
     14 H14         0.6618   49.7852   25.7370 H         1 UNK         0.0000 
     15 N15        -1.3543   50.0206   26.0818 N.3       1 UNK         0.0000 
     16 N16        -2.3716   50.9853   26.1077 N.pl3     1 UNK         0.0000 
     17 C17        -3.4366   51.0626   26.9752 C.ar      1 UNK         0.0000 
     18 N18        -4.1866   52.0973   26.6898 N.2       1 UNK         0.0000 
     19 N19        -3.6001   52.7485   25.6073 N.2       1 UNK         0.0000 
     20 C20        -2.5234   52.0789   25.2778 C.ar      1 UNK         0.0000 
     21 S21        -1.3815   52.5040   23.9933 S.3       1 UNK         0.0000 
     22 C22        -3.6951   50.0959   28.1101 C.3       1 UNK         0.0000 
     23 C23         0.4857   51.6454   26.7334 C.ar      1 UNK         0.0000 
     24 C24         1.2540   52.7479   26.3401 C.ar      1 UNK         0.0000 
     25 C25         1.7354   53.6674   27.2696 C.ar      1 UNK         0.0000 
     26 C26         1.4520   53.5214   28.6356 C.ar      1 UNK         0.0000 
     27 C27         0.7040   52.4104   29.0401 C.ar      1 UNK         0.0000 
     28 C28         0.2386   51.4845   28.1045 C.ar      1 UNK         0.0000 
     29 Br29        0.2880   52.1511   30.8803 Br        1 UNK         0.0000 
     30 O30         1.8571   54.4197   29.6074 O.3       1 UNK         0.0000 
     31 C31         2.4990   55.6262   29.2072 C.3       1 UNK         0.0000 
     32 H32         2.5159   54.5432   23.7378 H         1 UNK         0.0000 
     33 H33         3.5369   53.2562   24.3872 H         1 UNK         0.0000 
     34 H34         4.2694   54.7112   23.6881 H         1 UNK         0.0000 
     35 H35         5.3754   54.0980   21.6867 H         1 UNK         0.0000 
     36 H36         5.4026   53.0321   19.4602 H         1 UNK         0.0000 
     37 H37         3.5026   51.6459   18.7204 H         1 UNK         0.0000 
     38 H38         1.5681   51.3006   20.2051 H         1 UNK         0.0000 
     39 H39         0.5231   52.9797   22.5828 H         1 UNK         0.0000 
     40 H40        -1.3087   49.5524   26.9894 H         1 UNK         0.0000 
     41 H41        -4.6481   50.2827   28.6052 H         1 UNK         0.0000 
     42 H42        -3.7115   49.0609   27.7672 H         1 UNK         0.0000 
     43 H43        -2.9227   50.1564   28.8770 H         1 UNK         0.0000 
     44 H44         1.4807   52.9265   25.3050 H         1 UNK         0.0000 
     45 H45         2.3241   54.4952   26.9047 H         1 UNK         0.0000 
     46 H46        -0.3364   50.6408   28.4576 H         1 UNK         0.0000 
     47 H47         2.6619   56.2526   30.0806 H         1 UNK         0.0000 
     48 H48         3.4694   55.4258   28.7509 H         1 UNK         0.0000 
     49 H49         1.8832   56.1996   28.5115 H         1 UNK         0.0000 
@<TRIPOS>BOND
     1    1    2 1    
     2    1   32 1    
     3    1   33 1    
     4    1   34 1    
     5    2    7 ar   
     6    2    3 ar   
     7    3    4 ar   
     8    3   35 1    
     9    4    5 ar   
    10    4   36 1    
    11    5    6 ar   
    12    5   37 1    
    13    6    7 ar   
    14    6   38 1    
    15    7    8 1    
    16    8    9 am   BACKBONE|DICT|INTERRES
    17    8   39 1    
    18    9   10 2    
    19    9   11 1    
    20   11   12 1    
    21   11   21 1    
    22   11   13 1    
    23   13   14 1    
    24   13   15 1    
    25   13   23 1    
    26   15   16 1    
    27   15   40 1    
    28   16   20 ar   
    29   16   17 ar   
    30   17   18 ar   
    31   17   22 1    
    32   18   19 ar   
    33   19   20 ar   
    34   20   21 1    
    35   22   41 1    
    36   22   42 1    
    37   22   43 1    
    38   23   28 ar   
    39   23   24 ar   
    40   24   25 ar   
    41   24   44 1    
    42   25   26 ar   
    43   25   45 1    
    44   26   27 ar   
    45   26   30 1    
    46   27   28 ar   
    47   27   29 1    
    48   28   46 1    
    49   30   31 1    
    50   31   47 1    
    51   31   48 1    
    52   31   49 1    
@<TRIPOS>SUBSTRUCTURE
     1 UNK         1 GROUP             0       ****    0 ROOT    
