@<TRIPOS>MOLECULE
ZINC09238155_6087
55   59    1
SMALL
USER_CHARGES


@<TRIPOS>ATOM
      1 C1         -3.2994   48.3977   22.3538 C.3       1 UNK         0.0000 
      2 C2         -2.2204   49.4233   22.6490 C.ar      1 UNK         0.0000 
      3 C3         -2.3174   50.7076   22.1110 C.ar      1 UNK         0.0000 
      4 C4         -1.3369   51.6555   22.3916 C.ar      1 UNK         0.0000 
      5 C5         -0.2571   51.3239   23.2143 C.ar      1 UNK         0.0000 
      6 C6         -0.1639   50.0332   23.7505 C.ar      1 UNK         0.0000 
      7 C7         -1.1450   49.0871   23.4718 C.ar      1 UNK         0.0000 
      8 C8          0.8274   52.3650   23.5137 C.3       1 UNK         0.0000 
      9 H9          0.4510   53.3205   23.1448 H         1 UNK         0.0000 
     10 C10         2.2047   52.1114   22.8082 C.3       1 UNK         0.0000 
     11 H11         2.7041   51.2674   23.2809 H         1 UNK         0.0000 
     12 S12         3.2752   53.6107   22.9402 S.3       1 UNK         0.0000 
     13 C13         3.0839   53.8391   24.6748 C.ar      1 UNK         0.0000 
     14 N14         3.8981   54.5038   25.4536 N.2       1 UNK         0.0000 
     15 N15         3.4082   54.4056   26.7502 N.2       1 UNK         0.0000 
     16 C16         2.3021   53.6962   26.7116 C.ar      1 UNK         0.0000 
     17 N17         2.0556   53.2894   25.4110 N.pl3     1 UNK         0.0000 
     18 N18         0.9909   52.4980   24.9662 N.3       1 UNK         0.0000 
     19 C19         1.5122   53.3373   27.9415 C.ar      1 UNK         0.0000 
     20 C20         0.8172   52.1255   28.0547 C.ar      1 UNK         0.0000 
     21 C21         0.0881   51.8343   29.2045 C.ar      1 UNK         0.0000 
     22 C22         0.0609   52.7453   30.2567 C.ar      1 UNK         0.0000 
     23 C23         0.7487   53.9523   30.1628 C.ar      1 UNK         0.0000 
     24 C24         1.4755   54.2441   29.0102 C.ar      1 UNK         0.0000 
     25 C25         2.1022   51.6501   21.3215 C.2       1 UNK         0.0000 
     26 O26         1.6975   50.5103   21.0890 O.2       1 UNK         0.0000 
     27 N27         2.4943   52.4968   20.3450 N.am      1 UNK         0.0000 
     28 C28         2.4755   52.3117   18.9515 C.ar      1 UNK         0.0000 
     29 C29         1.4341   51.6070   18.3277 C.ar      1 UNK         0.0000 
     30 C30         1.4015   51.4731   16.9422 C.ar      1 UNK         0.0000 
     31 C31         2.4022   52.0477   16.1650 C.ar      1 UNK         0.0000 
     32 C32         3.4404   52.7501   16.7728 C.ar      1 UNK         0.0000 
     33 C33         3.4950   52.8966   18.1672 C.ar      1 UNK         0.0000 
     34 C34         4.6812   53.6443   18.7990 C.3       1 UNK         0.0000 
     35 F35         5.2732   52.8966   19.7304 F         1 UNK         0.0000 
     36 F36         5.6116   53.9853   17.9044 F         1 UNK         0.0000 
     37 F37         4.2499   54.7630   19.3782 F         1 UNK         0.0000 
     38 H38        -4.2812   48.8723   22.3221 H         1 UNK         0.0000 
     39 H39        -3.1182   47.9185   21.3913 H         1 UNK         0.0000 
     40 H40        -3.3459   47.6338   23.1310 H         1 UNK         0.0000 
     41 H41        -3.1494   50.9689   21.4743 H         1 UNK         0.0000 
     42 H42        -1.4172   52.6428   21.9651 H         1 UNK         0.0000 
     43 H43         0.6701   49.7599   24.3812 H         1 UNK         0.0000 
     44 H44        -1.0634   48.0971   23.8966 H         1 UNK         0.0000 
     45 H45         0.1410   52.8905   25.3448 H         1 UNK         0.0000 
     46 H46         0.8460   51.3869   27.2683 H         1 UNK         0.0000 
     47 H47        -0.4472   50.8978   29.2836 H         1 UNK         0.0000 
     48 H48        -0.4961   52.5086   31.1539 H         1 UNK         0.0000 
     49 H49         0.7173   54.6573   30.9811 H         1 UNK         0.0000 
     50 H50         2.0029   55.1852   28.9446 H         1 UNK         0.0000 
     51 H51         2.8859   53.3791   20.6443 H         1 UNK         0.0000 
     52 H52         0.6384   51.1663   18.9092 H         1 UNK         0.0000 
     53 H53         0.6022   50.9204   16.4714 H         1 UNK         0.0000 
     54 H54         2.3855   51.9328   15.0915 H         1 UNK         0.0000 
     55 H55         4.2141   53.1661   16.1444 H         1 UNK         0.0000 
@<TRIPOS>BOND
     1    1    2 1    
     2    1   38 1    
     3    1   39 1    
     4    1   40 1    
     5    2    7 ar   
     6    2    3 ar   
     7    3    4 ar   
     8    3   41 1    
     9    4    5 ar   
    10    4   42 1    
    11    5    6 ar   
    12    5    8 1    
    13    6    7 ar   
    14    6   43 1    
    15    7   44 1    
    16    8    9 1    
    17    8   18 1    
    18    8   10 1    
    19   10   11 1    
    20   10   12 1    
    21   10   25 1    
    22   12   13 1    
    23   13   17 ar   
    24   13   14 ar   
    25   14   15 ar   
    26   15   16 ar   
    27   16   17 ar   
    28   16   19 1    
    29   17   18 1    
    30   18   45 1    
    31   19   24 ar   
    32   19   20 ar   
    33   20   21 ar   
    34   20   46 1    
    35   21   22 ar   
    36   21   47 1    
    37   22   23 ar   
    38   22   48 1    
    39   23   24 ar   
    40   23   49 1    
    41   24   50 1    
    42   25   26 2    
    43   25   27 am   BACKBONE|DICT|INTERRES
    44   27   28 1    
    45   27   51 1    
    46   28   33 ar   
    47   28   29 ar   
    48   29   30 ar   
    49   29   52 1    
    50   30   31 ar   
    51   30   53 1    
    52   31   32 ar   
    53   31   54 1    
    54   32   33 ar   
    55   32   55 1    
    56   33   34 1    
    57   34   35 1    
    58   34   36 1    
    59   34   37 1    
@<TRIPOS>SUBSTRUCTURE
     1 UNK         1 GROUP             0       ****    0 ROOT    
