@<TRIPOS>MOLECULE
ZINC16751460_5192
47   50    1
SMALL
USER_CHARGES


@<TRIPOS>ATOM
      1 C1          9.1020   56.9609   15.7273 C.ar      1 UNK         0.0000 
      2 C2         10.1145   57.2696   16.6315 C.ar      1 UNK         0.0000 
      3 C3          9.9446   56.9847   17.9850 C.ar      1 UNK         0.0000 
      4 C4          8.7663   56.3854   18.4446 C.ar      1 UNK         0.0000 
      5 C5          7.7551   56.0812   17.5189 C.ar      1 UNK         0.0000 
      6 C6          7.9206   56.3694   16.1668 C.ar      1 UNK         0.0000 
      7 C7          8.6189   56.0966   19.8780 C.2       1 UNK         0.0000 
      8 N8          7.5457   55.6544   20.3826 N.2       1 UNK         0.0000 
      9 N9          7.5044   55.4456   21.7642 N.pl3     1 UNK         0.0000 
     10 C10         6.4270   54.8967   22.4232 C.2       1 UNK         0.0000 
     11 N11         6.3047   54.8518   23.7232 N.2       1 UNK         0.0000 
     12 C12         5.1375   54.3613   24.1206 C.2       1 UNK         0.0000 
     13 C13         4.3007   53.9394   23.0672 C.2       1 UNK         0.0000 
     14 S14         5.0870   54.2558   21.5373 S.3       1 UNK         0.0000 
     15 N15         3.0188   53.4085   23.1648 N.am      1 UNK         0.0000 
     16 C16         2.2820   52.8032   22.2058 C.2       1 UNK         0.0000 
     17 O17         2.7108   52.4971   21.0918 O.2       1 UNK         0.0000 
     18 C18         0.8627   52.4413   22.5975 C.ar      1 UNK         0.0000 
     19 C19         0.2972   52.8500   23.8217 C.ar      1 UNK         0.0000 
     20 C20        -1.0106   52.4999   24.1463 C.ar      1 UNK         0.0000 
     21 C21        -1.7731   51.7529   23.2532 C.ar      1 UNK         0.0000 
     22 C22        -1.2365   51.3515   22.0333 C.ar      1 UNK         0.0000 
     23 C23         0.0731   51.6946   21.7067 C.ar      1 UNK         0.0000 
     24 Br24       -3.5609   51.2782   23.7032 Br        1 UNK         0.0000 
     25 C25         4.8417   54.2825   25.5923 C.ar      1 UNK         0.0000 
     26 C26         3.5232   54.3696   26.0560 C.ar      1 UNK         0.0000 
     27 C27         3.2385   54.2022   27.4070 C.ar      1 UNK         0.0000 
     28 C28         4.2735   53.9699   28.3057 C.ar      1 UNK         0.0000 
     29 C29         5.5976   53.9406   27.8709 C.ar      1 UNK         0.0000 
     30 C30         5.8803   54.0959   26.5155 C.ar      1 UNK         0.0000 
     31 Cl31        3.9012   53.6985   29.9666 Cl        1 UNK         0.0000 
     32 H32         9.2311   57.1816   14.6771 H         1 UNK         0.0000 
     33 H33        11.0293   57.7273   16.2841 H         1 UNK         0.0000 
     34 H34        10.7404   57.2371   18.6715 H         1 UNK         0.0000 
     35 H35         6.8304   55.6208   17.8418 H         1 UNK         0.0000 
     36 H36         7.1360   56.1327   15.4637 H         1 UNK         0.0000 
     37 H37         9.4976   56.3020   20.4858 H         1 UNK         0.0000 
     38 H38         8.3516   55.6958   22.2647 H         1 UNK         0.0000 
     39 H39         2.6413   53.3703   24.0964 H         1 UNK         0.0000 
     40 H40         0.8494   53.4474   24.5332 H         1 UNK         0.0000 
     41 H41        -1.4388   52.8083   25.0901 H         1 UNK         0.0000 
     42 H42        -1.8300   50.7677   21.3452 H         1 UNK         0.0000 
     43 H43         0.4710   51.3730   20.7515 H         1 UNK         0.0000 
     44 H44         2.7042   54.5581   25.3795 H         1 UNK         0.0000 
     45 H45         2.2163   54.2468   27.7544 H         1 UNK         0.0000 
     46 H46         6.3996   53.7747   28.5755 H         1 UNK         0.0000 
     47 H47         6.9074   54.0334   26.1822 H         1 UNK         0.0000 
@<TRIPOS>BOND
     1    1    6 ar   
     2    1    2 ar   
     3    1   32 1    
     4    2    3 ar   
     5    2   33 1    
     6    3    4 ar   
     7    3   34 1    
     8    4    5 ar   
     9    4    7 1    
    10    5    6 ar   
    11    5   35 1    
    12    6   36 1    
    13    7    8 2    
    14    7   37 1    
    15    8    9 1    
    16    9   10 1    
    17    9   38 1    
    18   10   14 1    
    19   10   11 2    
    20   11   12 1    
    21   12   13 2    
    22   12   25 1    
    23   13   14 1    
    24   13   15 am   BACKBONE|DICT|INTERRES
    25   15   16 am   BACKBONE|DICT|INTERRES
    26   15   39 1    
    27   16   17 2    
    28   16   18 1    
    29   18   23 ar   
    30   18   19 ar   
    31   19   20 ar   
    32   19   40 1    
    33   20   21 ar   
    34   20   41 1    
    35   21   22 ar   
    36   21   24 1    
    37   22   23 ar   
    38   22   42 1    
    39   23   43 1    
    40   25   30 ar   
    41   25   26 ar   
    42   26   27 ar   
    43   26   44 1    
    44   27   28 ar   
    45   27   45 1    
    46   28   29 ar   
    47   28   31 1    
    48   29   30 ar   
    49   29   46 1    
    50   30   47 1    
@<TRIPOS>SUBSTRUCTURE
     1 UNK         1 GROUP             0       ****    0 ROOT    
