@<TRIPOS>MOLECULE
ZINC20940932_2142
57   60    1
SMALL
USER_CHARGES


@<TRIPOS>ATOM
      1 C1          1.7835   53.9651   27.3486 C.3       1 UNK         0.0000 
      2 C2          3.2825   53.9542   27.1159 C.ar      1 UNK         0.0000 
      3 C3          4.1486   53.6464   28.1672 C.ar      1 UNK         0.0000 
      4 C4          5.5243   53.6142   27.9528 C.ar      1 UNK         0.0000 
      5 C5          6.0364   53.8712   26.6830 C.ar      1 UNK         0.0000 
      6 C6          5.1814   54.1782   25.6092 C.ar      1 UNK         0.0000 
      7 C7          3.8006   54.2306   25.8463 C.ar      1 UNK         0.0000 
      8 N8          5.7292   54.5065   24.3360 N.pl3     1 UNK         0.0000 
      9 C9          5.3212   54.2171   23.0303 C.ar      1 UNK         0.0000 
     10 C10         6.2124   54.9195   22.1982 C.ar      1 UNK         0.0000 
     11 C11         7.0886   55.5226   23.0996 C.ar      1 UNK         0.0000 
     12 N12         6.8040   55.2966   24.3489 N.2       1 UNK         0.0000 
     13 C13         6.1756   55.1590   20.7661 C.2       1 UNK         0.0000 
     14 O14         5.1795   54.9091   20.0911 O.2       1 UNK         0.0000 
     15 N15         7.2841   55.7602   20.2837 N.am      1 UNK         0.0000 
     16 C16         7.4063   56.5609   19.1361 C.ar      1 UNK         0.0000 
     17 C17         8.7001   56.7977   18.6740 C.ar      1 UNK         0.0000 
     18 C18         8.9146   57.6746   17.6147 C.ar      1 UNK         0.0000 
     19 C19         7.8378   58.3355   17.0065 C.ar      1 UNK         0.0000 
     20 C20         6.5385   58.0957   17.4749 C.ar      1 UNK         0.0000 
     21 C21         6.3222   57.2101   18.5275 C.ar      1 UNK         0.0000 
     22 C22         8.1029   59.3036   15.8938 C.2       1 UNK         0.0000 
     23 O23         9.2334   59.6616   15.5619 O.2       1 UNK         0.0000 
     24 C24         6.9167   59.8215   15.0812 C.3       1 UNK         0.0000 
     25 C25         4.1291   53.3326   22.7071 C.3       1 UNK         0.0000 
     26 C26         2.8957   54.1106   22.2290 C.3       1 UNK         0.0000 
     27 C27         1.6971   53.1633   22.0584 C.3       1 UNK         0.0000 
     28 N28         2.0695   52.0976   21.0106 N.4       1 UNK         0.0000 
     29 C29         3.2809   51.2524   21.4465 C.3       1 UNK         0.0000 
     30 C30         4.4743   52.1888   21.7059 C.3       1 UNK         0.0000 
     31 H31         1.5024   53.2292   28.1034 H         1 UNK         0.0000 
     32 H32         1.4499   54.9481   27.6819 H         1 UNK         0.0000 
     33 H33         1.2468   53.6943   26.4390 H         1 UNK         0.0000 
     34 H34         3.7587   53.4316   29.1514 H         1 UNK         0.0000 
     35 H35         6.1949   53.3836   28.7677 H         1 UNK         0.0000 
     36 H36         7.1062   53.8291   26.5419 H         1 UNK         0.0000 
     37 H37         3.1181   54.5049   25.0590 H         1 UNK         0.0000 
     38 H38         7.9049   56.1744   22.8471 H         1 UNK         0.0000 
     39 H39         8.1164   55.6970   20.8480 H         1 UNK         0.0000 
     40 H40         9.5493   56.3187   19.1423 H         1 UNK         0.0000 
     41 H41         9.9293   57.8427   17.2811 H         1 UNK         0.0000 
     42 H42         5.6839   58.6074   17.0531 H         1 UNK         0.0000 
     43 H43         5.3121   57.0745   18.8834 H         1 UNK         0.0000 
     44 H44         6.2898   58.9915   14.7580 H         1 UNK         0.0000 
     45 H45         7.2586   60.3528   14.1937 H         1 UNK         0.0000 
     46 H46         6.3033   60.4940   15.6815 H         1 UNK         0.0000 
     47 H47         3.7912   52.8967   23.6363 H         1 UNK         0.0000 
     48 H48         2.6125   54.8832   22.9433 H         1 UNK         0.0000 
     49 H49         3.1045   54.5961   21.2813 H         1 UNK         0.0000 
     50 H50         1.4298   52.6360   22.9766 H         1 UNK         0.0000 
     51 H51         0.8185   53.6747   21.6772 H         1 UNK         0.0000 
     52 H52         1.2792   51.4943   20.8271 H         1 UNK         0.0000 
     53 H53         2.9749   50.6967   22.3352 H         1 UNK         0.0000 
     54 H54         3.4771   50.5482   20.6348 H         1 UNK         0.0000 
     55 H55         4.7819   52.5803   20.7378 H         1 UNK         0.0000 
     56 H56         5.2917   51.5746   22.0815 H         1 UNK         0.0000 
     57 H57         2.2893   52.5656   20.1394 H         1 UNK         0.0000 
@<TRIPOS>BOND
     1    1    2 1    
     2    1   31 1    
     3    1   32 1    
     4    1   33 1    
     5    2    7 ar   
     6    2    3 ar   
     7    3    4 ar   
     8    3   34 1    
     9    4    5 ar   
    10    4   35 1    
    11    5    6 ar   
    12    5   36 1    
    13    6    7 ar   
    14    6    8 1    
    15    7   37 1    
    16    8   12 ar   
    17    8    9 ar   
    18    9   10 ar   
    19    9   25 1    
    20   10   11 ar   
    21   10   13 1    
    22   11   12 ar   
    23   11   38 1    
    24   13   14 2    
    25   13   15 am   BACKBONE|DICT|INTERRES
    26   15   16 1    
    27   15   39 1    
    28   16   21 ar   
    29   16   17 ar   
    30   17   18 ar   
    31   17   40 1    
    32   18   19 ar   
    33   18   41 1    
    34   19   20 ar   
    35   19   22 1    
    36   20   21 ar   
    37   20   42 1    
    38   21   43 1    
    39   22   23 2    
    40   22   24 1    
    41   24   44 1    
    42   24   45 1    
    43   24   46 1    
    44   25   30 1    
    45   25   26 1    
    46   25   47 1    
    47   26   27 1    
    48   26   48 1    
    49   26   49 1    
    50   27   28 1    
    51   27   50 1    
    52   27   51 1    
    53   28   29 1    
    54   28   52 1    
    55   28   57 1    
    56   29   30 1    
    57   29   53 1    
    58   29   54 1    
    59   30   55 1    
    60   30   56 1    
@<TRIPOS>SUBSTRUCTURE
     1 UNK         1 GROUP             0       ****    0 ROOT    
