ZINC39688581_3694
                    3D
 Schrodinger Suite 2024-2.
 65 68  0  0  1  0            999 V2000
   -0.1675   51.2996   27.9440 C   0  0  0  0  0  0
    0.4815   51.9622   26.7402 C   0  0  0  0  0  0
    0.1645   51.5280   25.4466 C   0  0  0  0  0  0
    0.7039   52.1411   24.2971 C   0  0  0  0  0  0
    1.5628   53.2372   24.5114 C   0  0  0  0  0  0
    1.9124   53.6505   25.7947 C   0  0  0  0  0  0
    1.3815   53.0170   26.9111 C   0  0  0  0  0  0
    1.8683   53.6500   28.6446 Br  0  0  0  0  0  0
    0.2948   51.6030   22.9169 C   0  0  0  0  0  0
   -0.6791   50.8455   22.8666 O   0  0  0  0  0  0
    0.9669   51.9007   21.7633 N   0  0  0  0  0  0
    2.1883   52.6934   21.6261 C   0  0  0  0  0  0
    2.6202   52.4909   20.1663 C   0  0  2  0  0  0
    2.2084   53.2966   19.5657 H   0  0  0  0  0  0
    1.9700   51.1704   19.7047 C   0  0  0  0  0  0
    0.6336   51.2382   20.4863 C   0  0  0  0  0  0
    1.8382   51.1401   18.1575 C   0  0  0  0  0  0
    1.0831   49.9022   17.6532 C   0  0  0  0  0  0
    1.9044   48.6721   18.0821 N   0  3  0  0  0  0
    2.0936   48.5863   19.6143 C   0  0  0  0  0  0
    2.7720   49.8903   20.0920 C   0  0  0  0  0  0
    4.1612   52.5815   20.0853 C   0  0  0  0  0  0
    4.8768   52.0953   20.9649 O   0  0  0  0  0  0
    4.6539   53.2976   19.0587 N   0  0  0  0  0  0
    6.0762   53.5300   18.8197 C   0  0  2  0  0  0
    6.5995   52.6239   19.1229 H   0  0  0  0  0  0
    6.5973   54.7054   19.6732 C   0  0  0  0  0  0
    6.3892   53.6962   17.3169 C   0  0  0  0  0  0
    7.8544   53.4288   16.9886 C   0  0  0  0  0  0
    8.2803   52.1201   16.7452 C   0  0  0  0  0  0
    9.6228   51.8619   16.4824 C   0  0  0  0  0  0
   10.5378   52.9140   16.4703 C   0  0  0  0  0  0
   10.1198   54.2216   16.7103 C   0  0  0  0  0  0
    8.7752   54.4812   16.9648 C   0  0  0  0  0  0
   11.8432   52.6626   16.2282 F   0  0  0  0  0  0
   -0.7386   52.0324   28.5154 H   0  0  0  0  0  0
   -0.8476   50.4969   27.6621 H   0  0  0  0  0  0
    0.5934   50.8957   28.6116 H   0  0  0  0  0  0
   -0.5222   50.6976   25.3464 H   0  0  0  0  0  0
    1.9817   53.8344   23.7283 H   0  0  0  0  0  0
    2.5823   54.4917   25.9226 H   0  0  0  0  0  0
    2.9120   52.2625   22.3210 H   0  0  0  0  0  0
    2.0068   53.7570   21.7662 H   0  0  0  0  0  0
   -0.0157   51.9178   19.9329 H   0  0  0  0  0  0
    0.1291   50.2743   20.5548 H   0  0  0  0  0  0
    1.2930   52.0234   17.8184 H   0  0  0  0  0  0
    2.8211   51.2087   17.6831 H   0  0  0  0  0  0
    0.0804   49.7914   18.0700 H   0  0  0  0  0  0
    1.0333   49.8657   16.5642 H   0  0  0  0  0  0
    1.4810   47.8278   17.7260 H   0  0  0  0  0  0
    1.1090   48.4187   20.0512 H   0  0  0  0  0  0
    2.7055   47.7032   19.8010 H   0  0  0  0  0  0
    3.7779   49.9403   19.6818 H   0  0  0  0  0  0
    2.9116   49.8467   21.1743 H   0  0  0  0  0  0
    4.0148   53.6567   18.3669 H   0  0  0  0  0  0
    7.6653   54.8611   19.5214 H   0  0  0  0  0  0
    6.1020   55.6395   19.4048 H   0  0  0  0  0  0
    6.4498   54.5270   20.7388 H   0  0  0  0  0  0
    6.0920   54.6840   16.9623 H   0  0  0  0  0  0
    5.7868   52.9974   16.7323 H   0  0  0  0  0  0
    7.5754   51.3003   16.7723 H   0  0  0  0  0  0
    9.9586   50.8518   16.3035 H   0  0  0  0  0  0
   10.8410   55.0265   16.7053 H   0  0  0  0  0  0
    8.4524   55.4939   17.1585 H   0  0  0  0  0  0
    2.8207   48.7550   17.6307 H   0  0  0  0  0  0
  1  2  1  0  0  0
  1 36  1  0  0  0
  1 37  1  0  0  0
  1 38  1  0  0  0
  2  7  2  0  0  0
  2  3  1  0  0  0
  3  4  2  0  0  0
  3 39  1  0  0  0
  4  5  1  0  0  0
  4  9  1  0  0  0
  5  6  2  0  0  0
  5 40  1  0  0  0
  6  7  1  0  0  0
  6 41  1  0  0  0
  7  8  1  0  0  0
  9 10  2  0  0  0
  9 11  1  0  0  0
 11 16  1  0  0  0
 11 12  1  0  0  0
 12 13  1  0  0  0
 12 42  1  0  0  0
 12 43  1  0  0  0
 13 14  1  0  0  0
 13 15  1  0  0  0
 13 22  1  0  0  0
 15 21  1  0  0  0
 15 16  1  0  0  0
 15 17  1  0  0  0
 16 44  1  0  0  0
 16 45  1  0  0  0
 17 18  1  0  0  0
 17 46  1  0  0  0
 17 47  1  0  0  0
 18 19  1  0  0  0
 18 48  1  0  0  0
 18 49  1  0  0  0
 19 20  1  0  0  0
 19 50  1  0  0  0
 19 65  1  0  0  0
 20 21  1  0  0  0
 20 51  1  0  0  0
 20 52  1  0  0  0
 21 53  1  0  0  0
 21 54  1  0  0  0
 22 23  2  0  0  0
 22 24  1  0  0  0
 24 25  1  0  0  0
 24 55  1  0  0  0
 25 26  1  0  0  0
 25 27  1  0  0  0
 25 28  1  0  0  0
 27 56  1  0  0  0
 27 57  1  0  0  0
 27 58  1  0  0  0
 28 29  1  0  0  0
 28 59  1  0  0  0
 28 60  1  0  0  0
 29 34  2  0  0  0
 29 30  1  0  0  0
 30 31  2  0  0  0
 30 61  1  0  0  0
 31 32  1  0  0  0
 31 62  1  0  0  0
 32 33  2  0  0  0
 32 35  1  0  0  0
 33 34  1  0  0  0
 33 63  1  0  0  0
 34 64  1  0  0  0
M  CHG  1  19   1
M  END
> <i_i_glide_confnum>
245

> <i_i_glide_lignum>
3695

> <i_i_glide_posenum>
325

> <i_i_glide_rotatable_bonds>
7

> <i_m_Source_File_Index>
319

> <b_m_subgroup_collapsed>
0

> <r_i_docking_score>
-3.81082

> <r_i_glide_ecoul>
-6.84178

> <r_i_glide_eff_state_penalty>
0

> <r_i_glide_einternal>
5.29821

> <r_i_glide_emodel>
-47.7753

> <r_i_glide_energy>
-38.9423

> <r_i_glide_erotb>
0.460089

> <r_i_glide_esite>
-0.198987

> <r_i_glide_evdw>
-32.1005

> <r_i_glide_gscore>
-3.81082

> <r_i_glide_hbond>
-0.2

> <r_i_glide_ligand_efficiency>
-0.115479

> <r_i_glide_ligand_efficiency_ln>
-0.847507

> <r_i_glide_ligand_efficiency_sa>
-0.370404

> <r_i_glide_lipo>
-1.12929

> <r_i_glide_metal>
0

> <r_i_glide_rewards>
-0.111345

> <s_i_glide_gridfile>
wee1_glide-grid

> <s_m_Source_File>
wee1_decoys_glide_SP.sdf

> <s_m_Source_Path>
/Users/zhangxujun/Desktop

> <s_m_entry_id>
594

> <s_m_entry_name>
wee1_decoys_glide_SP.319

> <s_m_subgroup_title>
wee1_decoys_glide_SP

> <s_m_subgroupid>
wee1_decoys_glide_SP


$$$$
