ZINC13349230_4929
                    3D
 Schrodinger Suite 2024-2.
 58 61  0  0  1  0            999 V2000
    9.6527   50.4896   16.1339 C   0  0  0  0  0  0
    9.3821   51.9219   16.5564 C   0  0  0  0  0  0
    8.0704   52.3923   16.6172 C   0  0  0  0  0  0
    7.8193   53.7043   17.0074 C   0  0  0  0  0  0
    8.8827   54.5446   17.3465 C   0  0  0  0  0  0
   10.1968   54.0765   17.2829 C   0  0  0  0  0  0
   10.4451   52.7663   16.8812 C   0  0  0  0  0  0
    8.5649   56.2135   17.9091 S   0  0  0  0  0  0
    7.2610   56.6354   17.3896 O   0  0  0  0  0  0
    9.7734   57.0075   17.6578 O   0  0  0  0  0  0
    8.4384   56.0753   19.6695 N   0  0  0  0  0  0
    7.3775   55.5864   20.3867 C   0  0  0  0  0  0
    7.4438   55.4323   21.6765 N   0  0  0  0  0  0
    6.3004   54.8972   22.1876 C   0  0  0  0  0  0
    6.0720   54.6097   23.5469 C   0  0  0  0  0  0
    4.8234   54.0961   23.8999 C   0  0  0  0  0  0
    3.8232   53.8370   22.9511 C   0  0  0  0  0  0
    4.0505   54.0909   21.5991 C   0  0  0  0  0  0
    5.2872   54.6319   21.2279 C   0  0  0  0  0  0
    5.8704   55.0896   19.6383 S   0  0  0  0  0  0
    2.5923   53.2514   23.2937 N   0  0  0  0  0  0
    1.9611   53.3184   24.4830 C   0  0  0  0  0  0
    2.2675   54.0964   25.3878 O   0  0  0  0  0  0
    0.9652   52.4169   24.5535 N   0  0  0  0  0  0
    0.0867   52.2018   25.6322 C   0  0  0  0  0  0
   -1.2673   52.0991   25.2969 C   0  0  0  0  0  0
   -2.2283   51.8573   26.2770 C   0  0  0  0  0  0
   -1.8242   51.6857   27.6004 C   0  0  0  0  0  0
   -0.4801   51.7736   27.9453 C   0  0  0  0  0  0
    0.5014   52.0341   26.9751 C   0  0  0  0  0  0
    1.8502   52.0976   27.2795 O   0  0  0  0  0  0
    2.2874   51.9334   28.6230 C   0  0  0  0  0  0
   -3.6949   51.7484   25.9043 C   0  0  0  0  0  0
    7.1018   54.8213   24.6354 C   0  0  0  0  0  0
    8.9393   50.1659   15.3769 H   0  0  0  0  0  0
   10.6453   50.3856   15.6935 H   0  0  0  0  0  0
    9.5754   49.8180   16.9907 H   0  0  0  0  0  0
    7.2436   51.7404   16.3736 H   0  0  0  0  0  0
    6.8003   54.0606   17.0519 H   0  0  0  0  0  0
   11.0226   54.7209   17.5524 H   0  0  0  0  0  0
   11.4619   52.4068   16.8416 H   0  0  0  0  0  0
    9.3219   56.2439   20.1238 H   0  0  0  0  0  0
    4.6499   53.8554   24.9386 H   0  0  0  0  0  0
    3.2924   53.8914   20.8523 H   0  0  0  0  0  0
    2.1183   52.7689   22.5447 H   0  0  0  0  0  0
    0.7108   51.9512   23.6953 H   0  0  0  0  0  0
   -1.5823   52.2178   24.2698 H   0  0  0  0  0  0
   -2.5513   51.4634   28.3696 H   0  0  0  0  0  0
   -0.2179   51.6154   28.9817 H   0  0  0  0  0  0
    3.3714   52.0472   28.6612 H   0  0  0  0  0  0
    1.8502   52.6872   29.2796 H   0  0  0  0  0  0
    2.0421   50.9383   28.9963 H   0  0  0  0  0  0
   -4.2306   51.1062   26.6054 H   0  0  0  0  0  0
   -3.8107   51.2993   24.9174 H   0  0  0  0  0  0
   -4.1617   52.7317   25.8961 H   0  0  0  0  0  0
    7.9042   54.1017   24.4822 H   0  0  0  0  0  0
    7.5045   55.8298   24.5627 H   0  0  0  0  0  0
    6.6949   54.6922   25.6377 H   0  0  0  0  0  0
  1  2  1  0  0  0
  1 35  1  0  0  0
  1 36  1  0  0  0
  1 37  1  0  0  0
  2  7  2  0  0  0
  2  3  1  0  0  0
  3  4  2  0  0  0
  3 38  1  0  0  0
  4  5  1  0  0  0
  4 39  1  0  0  0
  5  6  2  0  0  0
  5  8  1  0  0  0
  6  7  1  0  0  0
  6 40  1  0  0  0
  7 41  1  0  0  0
  8  9  2  0  0  0
  8 10  2  0  0  0
  8 11  1  0  0  0
 11 12  1  0  0  0
 11 42  1  0  0  0
 12 20  1  0  0  0
 12 13  2  0  0  0
 13 14  1  0  0  0
 14 19  2  0  0  0
 14 15  1  0  0  0
 15 16  2  0  0  0
 15 34  1  0  0  0
 16 17  1  0  0  0
 16 43  1  0  0  0
 17 18  2  0  0  0
 17 21  1  0  0  0
 18 19  1  0  0  0
 18 44  1  0  0  0
 19 20  1  0  0  0
 21 22  1  0  0  0
 21 45  1  0  0  0
 22 23  2  0  0  0
 22 24  1  0  0  0
 24 25  1  0  0  0
 24 46  1  0  0  0
 25 30  2  0  0  0
 25 26  1  0  0  0
 26 27  2  0  0  0
 26 47  1  0  0  0
 27 28  1  0  0  0
 27 33  1  0  0  0
 28 29  2  0  0  0
 28 48  1  0  0  0
 29 30  1  0  0  0
 29 49  1  0  0  0
 30 31  1  0  0  0
 31 32  1  0  0  0
 32 50  1  0  0  0
 32 51  1  0  0  0
 32 52  1  0  0  0
 33 53  1  0  0  0
 33 54  1  0  0  0
 33 55  1  0  0  0
 34 56  1  0  0  0
 34 57  1  0  0  0
 34 58  1  0  0  0
M  END
> <i_i_glide_confnum>
142

> <i_i_glide_lignum>
4930

> <i_i_glide_posenum>
154

> <i_i_glide_rotatable_bonds>
8

> <i_m_Source_File_Index>
474

> <b_m_subgroup_collapsed>
0

> <r_i_docking_score>
-4.51026

> <r_i_glide_ecoul>
-1.81811

> <r_i_glide_eff_state_penalty>
0

> <r_i_glide_einternal>
9.61344

> <r_i_glide_emodel>
-56.3842

> <r_i_glide_energy>
-47.1493

> <r_i_glide_erotb>
0.578853

> <r_i_glide_esite>
-0.00624795

> <r_i_glide_evdw>
-45.3312

> <r_i_glide_gscore>
-4.51026

> <r_i_glide_hbond>
0

> <r_i_glide_ligand_efficiency>
-0.132655

> <r_i_glide_ligand_efficiency_ln>
-0.996444

> <r_i_glide_ligand_efficiency_sa>
-0.42975

> <r_i_glide_lipo>
-2.19856

> <r_i_glide_metal>
0

> <r_i_glide_rewards>
-0.345034

> <s_i_glide_gridfile>
wee1_glide-grid

> <s_m_Source_File>
wee1_decoys_glide_SP.sdf

> <s_m_Source_Path>
/Users/zhangxujun/Desktop

> <s_m_entry_id>
749

> <s_m_entry_name>
wee1_decoys_glide_SP.474

> <s_m_subgroup_title>
wee1_decoys_glide_SP

> <s_m_subgroupid>
wee1_decoys_glide_SP


$$$$
