@<TRIPOS>MOLECULE
ZINC39677619_5459
68   73    1
SMALL
USER_CHARGES


@<TRIPOS>ATOM
      1 C1          3.5249   52.8217   30.3482 C.ar      1 UNK         0.0000 
      2 C2          2.1746   52.4928   30.2635 C.ar      1 UNK         0.0000 
      3 C3          1.4992   52.5904   29.0500 C.ar      1 UNK         0.0000 
      4 C4          2.1805   53.0297   27.8855 C.ar      1 UNK         0.0000 
      5 C5          1.5375   53.1100   26.6271 C.ar      1 UNK         0.0000 
      6 C6          2.2444   53.4929   25.4780 C.ar      1 UNK         0.0000 
      7 C7          3.5747   53.9031   25.6026 C.ar      1 UNK         0.0000 
      8 C8          4.2322   53.8527   26.8268 C.ar      1 UNK         0.0000 
      9 C9          3.5574   53.3906   27.9804 C.ar      1 UNK         0.0000 
     10 C10         4.2154   53.2741   29.2263 C.ar      1 UNK         0.0000 
     11 C11         1.5856   53.5193   24.1178 C.2       1 UNK         0.0000 
     12 O12         1.7712   54.4948   23.3923 O.2       1 UNK         0.0000 
     13 N13         0.8155   52.4721   23.7256 N.am      1 UNK         0.0000 
     14 C14         0.1543   52.4606   22.4107 C.3       1 UNK         0.0000 
     15 C15        -0.0316   50.9581   22.1004 C.3       1 UNK         0.0000 
     16 H16        -0.9296   50.8580   21.4880 H         1 UNK         0.0000 
     17 C17        -0.2037   50.3231   23.5123 C.3       1 UNK         0.0000 
     18 C18         0.8004   51.1418   24.3509 C.3       1 UNK         0.0000 
     19 C19        -1.6724   50.5521   23.9990 C.3       1 UNK         0.0000 
     20 C20        -1.8759   50.1758   25.4834 C.3       1 UNK         0.0000 
     21 N21        -1.4739   48.6981   25.6817 N.4       1 UNK         0.0000 
     22 C22        -0.1172   48.2959   25.0615 C.3       1 UNK         0.0000 
     23 C23        -0.0418   48.7851   23.6028 C.3       1 UNK         0.0000 
     24 C24         1.1971   50.4888   21.2700 C.2       1 UNK         0.0000 
     25 O25         2.2235   50.0745   21.8082 O.2       1 UNK         0.0000 
     26 N26         1.0285   50.5142   19.9366 N.am      1 UNK         0.0000 
     27 C27         2.0626   50.2850   18.9283 C.3       1 UNK         0.0000 
     28 C28         2.2059   51.5508   18.1138 C.2       1 UNK         0.0000 
     29 C29         1.6910   51.8631   16.8562 C.2       1 UNK         0.0000 
     30 C30         1.9902   53.1562   16.4167 C.2       1 UNK         0.0000 
     31 C31         2.7841   53.8720   17.3093 C.2       1 UNK         0.0000 
     32 S32         3.1247   52.9024   18.7180 S.3       1 UNK         0.0000 
     33 C33         3.3129   55.2650   17.2056 C.ar      1 UNK         0.0000 
     34 C34         4.5263   55.6546   17.7868 C.ar      1 UNK         0.0000 
     35 C35         4.9725   56.9641   17.5988 C.ar      1 UNK         0.0000 
     36 C36         4.2005   57.8547   16.8480 C.ar      1 UNK         0.0000 
     37 C37         3.0011   57.3965   16.3015 C.ar      1 UNK         0.0000 
     38 N38         2.5588   56.1226   16.4620 N.ar      1 UNK         0.0000 
     39 H39         4.0443   52.7259   31.2917 H         1 UNK         0.0000 
     40 H40         1.6446   52.1516   31.1422 H         1 UNK         0.0000 
     41 H41         0.4536   52.3228   28.9876 H         1 UNK         0.0000 
     42 H42         0.4868   52.8629   26.5758 H         1 UNK         0.0000 
     43 H43         4.1219   54.2382   24.7320 H         1 UNK         0.0000 
     44 H44         5.2699   54.1436   26.8946 H         1 UNK         0.0000 
     45 H45         5.2630   53.5291   29.2830 H         1 UNK         0.0000 
     46 H46         0.7064   52.9597   21.6077 H         1 UNK         0.0000 
     47 H47        -0.8430   52.8924   22.4895 H         1 UNK         0.0000 
     48 H48         0.6385   51.0911   25.4238 H         1 UNK         0.0000 
     49 H49         1.7921   50.7101   24.2054 H         1 UNK         0.0000 
     50 H50        -1.9290   51.6100   23.9288 H         1 UNK         0.0000 
     51 H51        -2.3916   50.0464   23.3520 H         1 UNK         0.0000 
     52 H52        -1.2717   50.7578   26.1810 H         1 UNK         0.0000 
     53 H53        -2.9183   50.2523   25.7985 H         1 UNK         0.0000 
     54 H54        -1.4540   48.4989   26.6905 H         1 UNK         0.0000 
     55 H55         0.6644   48.7062   25.7045 H         1 UNK         0.0000 
     56 H56        -0.0945   47.2125   25.1226 H         1 UNK         0.0000 
     57 H57        -0.7505   48.2633   22.9591 H         1 UNK         0.0000 
     58 H58         0.9461   48.4962   23.2477 H         1 UNK         0.0000 
     59 H59         0.1445   50.8417   19.5750 H         1 UNK         0.0000 
     60 H60         1.7709   49.4456   18.2939 H         1 UNK         0.0000 
     61 H61         3.0254   50.0154   19.3689 H         1 UNK         0.0000 
     62 H62         1.0994   51.1698   16.2742 H         1 UNK         0.0000 
     63 H63         1.6547   53.5569   15.4680 H         1 UNK         0.0000 
     64 H64         5.1227   54.9575   18.3570 H         1 UNK         0.0000 
     65 H65         5.9093   57.2882   18.0265 H         1 UNK         0.0000 
     66 H66         4.5232   58.8763   16.6909 H         1 UNK         0.0000 
     67 H67         2.3784   58.0552   15.7106 H         1 UNK         0.0000 
     68 H68        -2.1992   48.1033   25.3075 H         1 UNK         0.0000 
@<TRIPOS>BOND
     1    1   10 ar   
     2    1    2 ar   
     3    1   39 1    
     4    2    3 ar   
     5    2   40 1    
     6    3    4 ar   
     7    3   41 1    
     8    4    9 ar   
     9    4    5 ar   
    10    5    6 ar   
    11    5   42 1    
    12    6    7 ar   
    13    6   11 1    
    14    7    8 ar   
    15    7   43 1    
    16    8    9 ar   
    17    8   44 1    
    18    9   10 ar   
    19   10   45 1    
    20   11   12 2    
    21   11   13 am   BACKBONE|DICT|INTERRES
    22   13   18 1    
    23   13   14 1    
    24   14   15 1    
    25   14   46 1    
    26   14   47 1    
    27   15   16 1    
    28   15   17 1    
    29   15   24 1    
    30   17   23 1    
    31   17   18 1    
    32   17   19 1    
    33   18   48 1    
    34   18   49 1    
    35   19   20 1    
    36   19   50 1    
    37   19   51 1    
    38   20   21 1    
    39   20   52 1    
    40   20   53 1    
    41   21   22 1    
    42   21   54 1    
    43   21   68 1    
    44   22   23 1    
    45   22   55 1    
    46   22   56 1    
    47   23   57 1    
    48   23   58 1    
    49   24   25 2    
    50   24   26 am   BACKBONE|DICT|INTERRES
    51   26   27 1    
    52   26   59 1    
    53   27   28 1    
    54   27   60 1    
    55   27   61 1    
    56   28   32 1    
    57   28   29 2    
    58   29   30 1    
    59   29   62 1    
    60   30   31 2    
    61   30   63 1    
    62   31   32 1    
    63   31   33 1    
    64   33   38 ar   
    65   33   34 ar   
    66   34   35 ar   
    67   34   64 1    
    68   35   36 ar   
    69   35   65 1    
    70   36   37 ar   
    71   36   66 1    
    72   37   38 ar   
    73   37   67 1    
@<TRIPOS>SUBSTRUCTURE
     1 UNK         1 GROUP             0       ****    0 ROOT    
