@<TRIPOS>MOLECULE
ZINC39724666_5969
56   59    1
SMALL
USER_CHARGES


@<TRIPOS>ATOM
      1 C1         -2.7851   51.9821   18.4324 C.3       1 UNK         0.0000 
      2 C2         -1.2882   52.2580   18.2013 C.3       1 UNK         0.0000 
      3 O3         -0.4587   51.2914   18.8403 O.3       1 UNK         0.0000 
      4 C4         -0.2645   51.2935   20.1793 C.2       1 UNK         0.0000 
      5 O5         -0.7466   52.0976   20.9794 O.2       1 UNK         0.0000 
      6 C6          0.6621   50.1514   20.6464 C.3       1 UNK         0.0000 
      7 H7          1.0322   49.6722   19.7395 H         1 UNK         0.0000 
      8 C8          1.9019   50.5888   21.4821 C.3       1 UNK         0.0000 
      9 H9          2.6971   49.8833   21.2236 H         1 UNK         0.0000 
     10 S10         1.5563   50.1725   23.2020 S.3       1 UNK         0.0000 
     11 C11         0.2099   49.1070   22.7803 C.2       1 UNK         0.0000 
     12 C12        -0.1051   49.1203   21.4666 C.2       1 UNK         0.0000 
     13 C13        -1.2600   48.2985   20.8937 C.3       1 UNK         0.0000 
     14 C14        -1.6535   47.1359   21.8283 C.3       1 UNK         0.0000 
     15 C15        -1.7714   47.5988   23.2915 C.3       1 UNK         0.0000 
     16 C16        -0.4599   48.2191   23.8247 C.3       1 UNK         0.0000 
     17 N17         2.3608   51.9750   21.2888 N.am      1 UNK         0.0000 
     18 C18         3.6450   52.3813   21.2547 C.2       1 UNK         0.0000 
     19 O19         4.5977   51.6001   21.2817 O.2       1 UNK         0.0000 
     20 C20         3.8768   53.8971   21.1740 C.3       1 UNK         0.0000 
     21 S21         5.4881   54.4779   21.8302 S.3       1 UNK         0.0000 
     22 C22         5.2287   54.4618   23.6232 C.ar      1 UNK         0.0000 
     23 N23         6.2576   54.8516   24.2883 N.2       1 UNK         0.0000 
     24 C24         6.2063   54.9151   25.6176 C.ar      1 UNK         0.0000 
     25 O25         7.0985   55.2961   26.3652 O.2       1 UNK         0.0000 
     26 C26         4.9657   54.5051   26.2695 C.ar      1 UNK         0.0000 
     27 C27         3.9287   54.0949   25.4779 C.ar      1 UNK         0.0000 
     28 N28         4.0748   54.0966   24.1019 N.ar      1 UNK         0.0000 
     29 C29         2.6287   53.5712   26.0210 C.ar      1 UNK         0.0000 
     30 C30         1.6340   53.0640   25.1666 C.ar      1 UNK         0.0000 
     31 C31         0.4674   52.4957   25.6703 C.ar      1 UNK         0.0000 
     32 C32         0.2658   52.4431   27.0453 C.ar      1 UNK         0.0000 
     33 C33         1.2168   52.9627   27.9170 C.ar      1 UNK         0.0000 
     34 C34         2.3846   53.5222   27.4059 C.ar      1 UNK         0.0000 
     35 H35        -3.4008   52.6799   17.8635 H         1 UNK         0.0000 
     36 H36        -3.0462   50.9709   18.1176 H         1 UNK         0.0000 
     37 H37        -3.0579   52.0820   19.4830 H         1 UNK         0.0000 
     38 H38        -1.0220   53.2661   18.5172 H         1 UNK         0.0000 
     39 H39        -1.0797   52.2119   17.1313 H         1 UNK         0.0000 
     40 H40        -1.0315   47.9319   19.8920 H         1 UNK         0.0000 
     41 H41        -2.1258   48.9447   20.7405 H         1 UNK         0.0000 
     42 H42        -2.5953   46.6954   21.4976 H         1 UNK         0.0000 
     43 H43        -0.9054   46.3463   21.7541 H         1 UNK         0.0000 
     44 H44        -2.5685   48.3391   23.3664 H         1 UNK         0.0000 
     45 H45        -2.0707   46.7673   23.9307 H         1 UNK         0.0000 
     46 H46        -0.6671   48.7694   24.7441 H         1 UNK         0.0000 
     47 H47         0.2272   47.4282   24.1280 H         1 UNK         0.0000 
     48 H48         1.6427   52.6839   21.3265 H         1 UNK         0.0000 
     49 H49         3.8212   54.1826   20.1246 H         1 UNK         0.0000 
     50 H50         3.0715   54.4274   21.6842 H         1 UNK         0.0000 
     51 H51         4.9333   54.5126   27.3449 H         1 UNK         0.0000 
     52 H52         1.7704   53.0779   24.0967 H         1 UNK         0.0000 
     53 H53        -0.2719   52.0880   24.9962 H         1 UNK         0.0000 
     54 H54        -0.6358   51.9948   27.4388 H         1 UNK         0.0000 
     55 H55         1.0536   52.9207   28.9824 H         1 UNK         0.0000 
     56 H56         3.1043   53.8959   28.1147 H         1 UNK         0.0000 
@<TRIPOS>BOND
     1    1    2 1    
     2    1   35 1    
     3    1   36 1    
     4    1   37 1    
     5    2    3 1    
     6    2   38 1    
     7    2   39 1    
     8    3    4 1    
     9    4    5 2    
    10    4    6 1    
    11    6    7 1    
    12    6   12 1    
    13    6    8 1    
    14    8    9 1    
    15    8   10 1    
    16    8   17 1    
    17   10   11 1    
    18   11   16 1    
    19   11   12 2    
    20   12   13 1    
    21   13   14 1    
    22   13   40 1    
    23   13   41 1    
    24   14   15 1    
    25   14   42 1    
    26   14   43 1    
    27   15   16 1    
    28   15   44 1    
    29   15   45 1    
    30   16   46 1    
    31   16   47 1    
    32   17   18 am   BACKBONE|DICT|INTERRES
    33   17   48 1    
    34   18   19 2    
    35   18   20 1    
    36   20   21 1    
    37   20   49 1    
    38   20   50 1    
    39   21   22 1    
    40   22   28 ar   
    41   22   23 ar   
    42   23   24 ar   
    43   24   25 2    
    44   24   26 ar   
    45   26   27 ar   
    46   26   51 1    
    47   27   28 ar   
    48   27   29 1    
    49   29   34 ar   
    50   29   30 ar   
    51   30   31 ar   
    52   30   52 1    
    53   31   32 ar   
    54   31   53 1    
    55   32   33 ar   
    56   32   54 1    
    57   33   34 ar   
    58   33   55 1    
    59   34   56 1    
@<TRIPOS>SUBSTRUCTURE
     1 UNK         1 GROUP             0       ****    0 ROOT    
