ZINC13131859_3599
                    3D
 Schrodinger Suite 2024-2.
 48 51  0  0  1  0            999 V2000
    6.9906   53.4896   28.1790 C   0  0  0  0  0  0
    6.7419   54.5369   27.0862 C   0  0  0  0  0  0
    5.4852   54.3144   26.2548 C   0  0  0  0  0  0
    5.5432   54.4963   24.8715 C   0  0  0  0  0  0
    4.4148   54.2674   24.0896 C   0  0  0  0  0  0
    3.2150   53.8575   24.6801 C   0  0  0  0  0  0
    3.1563   53.6974   26.0713 C   0  0  0  0  0  0
    4.2807   53.9378   26.8543 C   0  0  0  0  0  0
    2.0078   53.5800   23.7778 C   0  0  1  0  0  0
    1.9411   54.4725   23.1520 H   0  0  0  0  0  0
    2.2193   52.3264   22.8941 C   0  0  0  0  0  0
    1.0824   52.1109   21.8664 C   0  0  2  0  0  0
    1.0930   52.9562   21.1790 H   0  0  0  0  0  0
   -0.1747   52.2407   22.6234 N   0  0  0  0  0  0
   -0.3373   52.8661   23.8378 C   0  0  0  0  0  0
   -1.5752   52.7809   24.2413 N   0  0  0  0  0  0
   -2.1362   52.0985   23.2608 C   0  0  0  0  0  0
   -1.3796   51.8077   22.2262 N   0  0  0  0  0  0
   -3.4285   51.6941   23.3315 N   0  0  0  0  0  0
    0.7229   53.4674   24.4814 N   0  0  0  0  0  0
    1.2781   50.8202   21.0463 C   0  0  0  0  0  0
    0.5651   49.6544   21.3720 C   0  0  0  0  0  0
    0.6927   48.4969   20.6133 C   0  0  0  0  0  0
    1.6077   48.4465   19.5690 C   0  0  0  0  0  0
    2.3637   49.5751   19.2694 C   0  0  0  0  0  0
    2.1923   50.7696   19.9727 C   0  0  0  0  0  0
    3.0154   51.9755   19.5307 C   0  0  0  0  0  0
    7.1195   52.4967   27.7497 H   0  0  0  0  0  0
    7.8917   53.7258   28.7479 H   0  0  0  0  0  0
    6.1676   53.4454   28.8883 H   0  0  0  0  0  0
    6.7033   55.5324   27.5291 H   0  0  0  0  0  0
    7.6003   54.5033   26.4197 H   0  0  0  0  0  0
    6.4641   54.7975   24.3934 H   0  0  0  0  0  0
    4.4800   54.3989   23.0198 H   0  0  0  0  0  0
    2.2471   53.3745   26.5568 H   0  0  0  0  0  0
    4.2090   53.8090   27.9237 H   0  0  0  0  0  0
    3.1771   52.3845   22.3795 H   0  0  0  0  0  0
    2.3042   51.4413   23.5279 H   0  0  0  0  0  0
   -3.9666   51.8284   24.1745 H   0  0  0  0  0  0
   -3.8274   51.0912   22.6270 H   0  0  0  0  0  0
    0.5421   54.2243   25.1185 H   0  0  0  0  0  0
   -0.1141   49.6309   22.2100 H   0  0  0  0  0  0
    0.1004   47.6321   20.8734 H   0  0  0  0  0  0
    1.7428   47.5391   18.9980 H   0  0  0  0  0  0
    3.1030   49.5234   18.4818 H   0  0  0  0  0  0
    3.7947   52.2087   20.2555 H   0  0  0  0  0  0
    3.5010   51.8015   18.5675 H   0  0  0  0  0  0
    2.3890   52.8595   19.4034 H   0  0  0  0  0  0
  1  2  1  0  0  0
  1 28  1  0  0  0
  1 29  1  0  0  0
  1 30  1  0  0  0
  2  3  1  0  0  0
  2 31  1  0  0  0
  2 32  1  0  0  0
  3  8  2  0  0  0
  3  4  1  0  0  0
  4  5  2  0  0  0
  4 33  1  0  0  0
  5  6  1  0  0  0
  5 34  1  0  0  0
  6  7  2  0  0  0
  6  9  1  0  0  0
  7  8  1  0  0  0
  7 35  1  0  0  0
  8 36  1  0  0  0
  9 10  1  0  0  0
  9 20  1  0  0  0
  9 11  1  0  0  0
 11 12  1  0  0  0
 11 37  1  0  0  0
 11 38  1  0  0  0
 12 13  1  0  0  0
 12 14  1  0  0  0
 12 21  1  0  0  0
 14 18  1  0  0  0
 14 15  1  0  0  0
 15 16  2  0  0  0
 15 20  1  0  0  0
 16 17  1  0  0  0
 17 18  2  0  0  0
 17 19  1  0  0  0
 19 39  1  0  0  0
 19 40  1  0  0  0
 20 41  1  0  0  0
 21 26  2  0  0  0
 21 22  1  0  0  0
 22 23  2  0  0  0
 22 42  1  0  0  0
 23 24  1  0  0  0
 23 43  1  0  0  0
 24 25  2  0  0  0
 24 44  1  0  0  0
 25 26  1  0  0  0
 25 45  1  0  0  0
 26 27  1  0  0  0
 27 46  1  0  0  0
 27 47  1  0  0  0
 27 48  1  0  0  0
M  END
> <i_i_glide_confnum>
2

> <i_i_glide_lignum>
3600

> <i_i_glide_posenum>
250

> <i_i_glide_rotatable_bonds>
3

> <i_m_Source_File_Index>
4933

> <b_m_subgroup_collapsed>
0

> <r_i_docking_score>
-5.2152

> <r_i_glide_ecoul>
-1.53822

> <r_i_glide_eff_state_penalty>
0

> <r_i_glide_einternal>
6.95299

> <r_i_glide_emodel>
-39.8526

> <r_i_glide_energy>
-32.4199

> <r_i_glide_erotb>
0.339057

> <r_i_glide_esite>
-0.000598055

> <r_i_glide_evdw>
-30.8816

> <r_i_glide_gscore>
-5.2152

> <r_i_glide_hbond>
0

> <r_i_glide_ligand_efficiency>
-0.208608

> <r_i_glide_ligand_efficiency_ln>
-1.23616

> <r_i_glide_ligand_efficiency_sa>
-0.609973

> <r_i_glide_lipo>
-2.31055

> <r_i_glide_metal>
0

> <r_i_glide_rewards>
-1.4683

> <s_i_glide_gridfile>
wee1_glide-grid

> <s_m_Source_File>
wee1_decoys_glide_SP.sdf

> <s_m_Source_Path>
/Users/zhangxujun/Desktop

> <s_m_entry_id>
5208

> <s_m_entry_name>
wee1_decoys_glide_SP.4933

> <s_m_subgroup_title>
wee1_decoys_glide_SP

> <s_m_subgroupid>
wee1_decoys_glide_SP


$$$$
