ZINC63467762_5267
                    3D
 Schrodinger Suite 2024-2.
 57 61  0  0  1  0            999 V2000
    7.1045   54.4347   24.8928 C   0  0  0  0  0  0
    5.7946   54.0967   25.4729 N   0  0  0  0  0  0
    4.7177   54.0034   24.5436 C   0  0  0  0  0  0
    4.9306   53.6970   23.1859 C   0  0  0  0  0  0
    3.8627   53.5216   22.2917 C   0  0  0  0  0  0
    2.5590   53.7484   22.7530 C   0  0  0  0  0  0
    2.3317   54.0761   24.0879 C   0  0  0  0  0  0
    3.3998   54.1669   24.9803 C   0  0  0  0  0  0
    3.1045   54.4947   26.6789 S   0  0  0  0  0  0
    4.4328   53.5525   27.3885 C   0  0  0  0  0  0
    4.2524   52.7001   28.4293 C   0  0  0  0  0  0
    2.9473   52.4049   29.0796 C   0  0  0  0  0  0
    1.8023   52.1099   28.3218 C   0  0  0  0  0  0
    0.5511   51.9907   28.9270 C   0  0  0  0  0  0
    0.4271   52.1559   30.3041 C   0  0  0  0  0  0
    1.5621   52.3954   31.0765 C   0  0  0  0  0  0
    2.8160   52.4968   30.4702 C   0  0  0  0  0  0
    3.9044   52.6806   31.2457 F   0  0  0  0  0  0
    5.7573   53.8083   26.8201 C   0  0  0  0  0  0
    6.7634   53.7978   27.5368 O   0  0  0  0  0  0
    4.1305   52.9815   20.9059 C   0  0  0  0  0  0
    5.1048   52.2576   20.7124 O   0  0  0  0  0  0
    3.2620   53.2967   19.9283 N   0  0  0  0  0  0
    3.3156   52.7449   18.5730 C   0  0  0  0  0  0
    4.3526   53.4211   17.6536 C   0  0  0  0  0  0
    4.1625   54.9142   17.4226 C   0  0  0  0  0  0
    5.0018   55.9496   17.6120 C   0  0  0  0  0  0
    6.3780   55.9865   18.1291 C   0  0  0  0  0  0
    7.0509   57.1517   18.2101 C   0  0  0  0  0  0
    6.3776   58.3640   17.7632 C   0  0  0  0  0  0
    5.1082   58.3526   17.2815 C   0  0  0  0  0  0
    4.3979   57.1458   17.2013 C   0  0  0  0  0  0
    3.1797   56.9216   16.7726 N   0  3  0  0  0  0
    2.8748   55.4810   16.8572 C   0  0  0  0  0  0
    7.0006   55.1612   24.0861 H   0  0  0  0  0  0
    7.7793   54.8868   25.6160 H   0  0  0  0  0  0
    7.5809   53.5436   24.4817 H   0  0  0  0  0  0
    5.9333   53.5067   22.8312 H   0  0  0  0  0  0
    1.7097   53.6258   22.0960 H   0  0  0  0  0  0
    1.3197   54.2188   24.4388 H   0  0  0  0  0  0
    5.1042   52.1762   28.8418 H   0  0  0  0  0  0
    1.8740   51.9984   27.2495 H   0  0  0  0  0  0
   -0.3215   51.7713   28.3284 H   0  0  0  0  0  0
   -0.5385   52.0605   30.7823 H   0  0  0  0  0  0
    1.4673   52.4824   32.1498 H   0  0  0  0  0  0
    2.5311   53.9790   20.1068 H   0  0  0  0  0  0
    3.5002   51.6678   18.6090 H   0  0  0  0  0  0
    2.3216   52.8586   18.1404 H   0  0  0  0  0  0
    5.3554   53.2239   18.0382 H   0  0  0  0  0  0
    4.3222   52.9316   16.6788 H   0  0  0  0  0  0
    6.8828   55.0877   18.4554 H   0  0  0  0  0  0
    8.0649   57.1840   18.5819 H   0  0  0  0  0  0
    6.9070   59.3026   17.8081 H   0  0  0  0  0  0
    4.6734   59.2954   16.9614 H   0  0  0  0  0  0
    2.6433   55.1222   15.8534 H   0  0  0  0  0  0
    2.0118   55.3520   17.5110 H   0  0  0  0  0  0
    2.5399   57.6308   16.4227 H   0  0  0  0  0  0
  1  2  1  0  0  0
  1 35  1  0  0  0
  1 36  1  0  0  0
  1 37  1  0  0  0
  2 19  1  0  0  0
  2  3  1  0  0  0
  3  8  2  0  0  0
  3  4  1  0  0  0
  4  5  2  0  0  0
  4 38  1  0  0  0
  5  6  1  0  0  0
  5 21  1  0  0  0
  6  7  2  0  0  0
  6 39  1  0  0  0
  7  8  1  0  0  0
  7 40  1  0  0  0
  8  9  1  0  0  0
  9 10  1  0  0  0
 10 11  2  0  0  0
 10 19  1  0  0  0
 11 12  1  0  0  0
 11 41  1  0  0  0
 12 17  2  0  0  0
 12 13  1  0  0  0
 13 14  2  0  0  0
 13 42  1  0  0  0
 14 15  1  0  0  0
 14 43  1  0  0  0
 15 16  2  0  0  0
 15 44  1  0  0  0
 16 17  1  0  0  0
 16 45  1  0  0  0
 17 18  1  0  0  0
 19 20  2  0  0  0
 21 22  2  0  0  0
 21 23  1  0  0  0
 23 24  1  0  0  0
 23 46  1  0  0  0
 24 25  1  0  0  0
 24 47  1  0  0  0
 24 48  1  0  0  0
 25 26  1  0  0  0
 25 49  1  0  0  0
 25 50  1  0  0  0
 26 34  1  0  0  0
 26 27  2  0  0  0
 27 32  1  0  0  0
 27 28  1  0  0  0
 28 29  2  0  0  0
 28 51  1  0  0  0
 29 30  1  0  0  0
 29 52  1  0  0  0
 30 31  2  0  0  0
 30 53  1  0  0  0
 31 32  1  0  0  0
 31 54  1  0  0  0
 32 33  2  0  0  0
 33 34  1  0  0  0
 33 57  1  0  0  0
 34 55  1  0  0  0
 34 56  1  0  0  0
M  CHG  1  33   1
M  END
> <i_i_glide_confnum>
1

> <i_i_glide_lignum>
5268

> <i_i_glide_posenum>
76

> <i_i_glide_rotatable_bonds>
6

> <i_m_Source_File_Index>
3470

> <b_m_subgroup_collapsed>
0

> <r_i_docking_score>
-7.23249

> <r_i_glide_ecoul>
-9.64359

> <r_i_glide_eff_state_penalty>
0

> <r_i_glide_einternal>
1.6933

> <r_i_glide_emodel>
-73.9099

> <r_i_glide_energy>
-51.8613

> <r_i_glide_erotb>
0.362207

> <r_i_glide_esite>
-0.0181375

> <r_i_glide_evdw>
-42.2177

> <r_i_glide_gscore>
-7.23249

> <r_i_glide_hbond>
-0.32

> <r_i_glide_ligand_efficiency>
-0.21272

> <r_i_glide_ligand_efficiency_ln>
-1.59786

> <r_i_glide_ligand_efficiency_sa>
-0.689131

> <r_i_glide_lipo>
-2.55288

> <r_i_glide_metal>
0

> <r_i_glide_rewards>
-1.14625

> <s_i_glide_gridfile>
wee1_glide-grid

> <s_m_Source_File>
wee1_decoys_glide_SP.sdf

> <s_m_Source_Path>
/Users/zhangxujun/Desktop

> <s_m_entry_id>
3745

> <s_m_entry_name>
wee1_decoys_glide_SP.3470

> <s_m_subgroup_title>
wee1_decoys_glide_SP

> <s_m_subgroupid>
wee1_decoys_glide_SP


$$$$
