@<TRIPOS>MOLECULE
ZINC20558487_6112
57   61    1
SMALL
USER_CHARGES


@<TRIPOS>ATOM
      1 C1          1.2862   47.8545   19.2348 C.3       1 UNK         0.0000 
      2 C2          2.0454   49.1742   19.0195 C.3       1 UNK         0.0000 
      3 C3          1.9068   50.1589   20.1731 C.ar      1 UNK         0.0000 
      4 C4          2.3932   49.8219   21.4369 C.ar      1 UNK         0.0000 
      5 C5          2.3037   50.7324   22.4826 C.ar      1 UNK         0.0000 
      6 C6          1.7266   51.9907   22.2792 C.ar      1 UNK         0.0000 
      7 C7          1.2339   52.3216   21.0129 C.ar      1 UNK         0.0000 
      8 C8          1.3255   51.4116   19.9636 C.ar      1 UNK         0.0000 
      9 C9          1.6465   53.0168   23.4179 C.3       1 UNK         0.0000 
     10 H10         1.0162   53.8254   23.0427 H         1 UNK         0.0000 
     11 C11         3.0047   53.6593   23.7663 C.2       1 UNK         0.0000 
     12 C12         3.3208   53.9634   25.0417 C.2       1 UNK         0.0000 
     13 O13         2.5070   53.6738   26.0881 O.3       1 UNK         0.0000 
     14 C14         1.3862   52.8970   25.9393 C.2       1 UNK         0.0000 
     15 C15         0.9412   52.5459   24.7150 C.2       1 UNK         0.0000 
     16 S16        -0.5744   51.6168   24.4690 S.o2      1 UNK         0.0000 
     17 O17        -1.4889   52.4191   23.6488 O.2       1 UNK         0.0000 
     18 O18        -0.2598   50.2720   23.9736 O.2       1 UNK         0.0000 
     19 N19        -1.2251   51.4665   26.1404 N.pl3     1 UNK         0.0000 
     20 C20        -0.5340   51.9177   27.3021 C.ar      1 UNK         0.0000 
     21 C21         0.7122   52.5846   27.2221 C.ar      1 UNK         0.0000 
     22 C22         1.3426   52.9853   28.4175 C.ar      1 UNK         0.0000 
     23 C23         0.7674   52.7475   29.6619 C.ar      1 UNK         0.0000 
     24 C24        -0.4533   52.0964   29.7405 C.ar      1 UNK         0.0000 
     25 C25        -1.0906   51.6875   28.5745 C.ar      1 UNK         0.0000 
     26 C26        -2.4685   50.6820   26.1945 C.3       1 UNK         0.0000 
     27 C27        -3.7148   51.4948   26.5343 C.ar      1 UNK         0.0000 
     28 C28        -4.5911   51.0154   27.5138 C.ar      1 UNK         0.0000 
     29 C29        -5.7800   51.6923   27.7796 C.ar      1 UNK         0.0000 
     30 C30        -6.0951   52.8428   27.0584 C.ar      1 UNK         0.0000 
     31 C31        -5.2268   53.3284   26.0823 C.ar      1 UNK         0.0000 
     32 C32        -4.0366   52.6554   25.8220 C.ar      1 UNK         0.0000 
     33 F33        -7.2481   53.5030   27.3155 F         1 UNK         0.0000 
     34 N34         4.4851   54.4973   25.5223 N.pl3     1 UNK         0.0000 
     35 C35         3.9506   53.9032   22.7230 C.1       1 UNK         0.0000 
     36 N36         4.7531   54.0995   21.9140 N.1       1 UNK         0.0000 
     37 H37         1.3715   47.2124   18.3575 H         1 UNK         0.0000 
     38 H38         0.2253   48.0336   19.4166 H         1 UNK         0.0000 
     39 H39         1.6905   47.2983   20.0820 H         1 UNK         0.0000 
     40 H40         3.1069   48.9646   18.8802 H         1 UNK         0.0000 
     41 H41         1.7155   49.6371   18.0875 H         1 UNK         0.0000 
     42 H42         2.8476   48.8579   21.6088 H         1 UNK         0.0000 
     43 H43         2.6942   50.4534   23.4514 H         1 UNK         0.0000 
     44 H44         0.7948   53.2934   20.8357 H         1 UNK         0.0000 
     45 H45         0.9606   51.6905   18.9864 H         1 UNK         0.0000 
     46 H46         2.2958   53.4922   28.4016 H         1 UNK         0.0000 
     47 H47         1.2698   53.0616   30.5641 H         1 UNK         0.0000 
     48 H48        -0.8961   51.8842   30.7045 H         1 UNK         0.0000 
     49 H49        -2.0242   51.1570   28.6895 H         1 UNK         0.0000 
     50 H50        -2.6598   50.2254   25.2215 H         1 UNK         0.0000 
     51 H51        -2.3427   49.8445   26.8820 H         1 UNK         0.0000 
     52 H52        -4.3556   50.1114   28.0606 H         1 UNK         0.0000 
     53 H53        -6.4591   51.3214   28.5324 H         1 UNK         0.0000 
     54 H54        -5.4854   54.2160   25.5225 H         1 UNK         0.0000 
     55 H55        -3.3816   53.0335   25.0522 H         1 UNK         0.0000 
     56 H56         5.2052   54.8022   24.8827 H         1 UNK         0.0000 
     57 H57         4.7561   54.3309   26.4801 H         1 UNK         0.0000 
@<TRIPOS>BOND
     1    1    2 1    
     2    1   37 1    
     3    1   38 1    
     4    1   39 1    
     5    2    3 1    
     6    2   40 1    
     7    2   41 1    
     8    3    8 ar   
     9    3    4 ar   
    10    4    5 ar   
    11    4   42 1    
    12    5    6 ar   
    13    5   43 1    
    14    6    7 ar   
    15    6    9 1    
    16    7    8 ar   
    17    7   44 1    
    18    8   45 1    
    19    9   10 1    
    20    9   15 1    
    21    9   11 1    
    22   11   12 2    
    23   11   35 1    
    24   12   13 1    
    25   12   34 1    
    26   13   14 1    
    27   14   21 1    
    28   14   15 2    
    29   15   16 1    
    30   16   17 2    
    31   16   18 2    
    32   16   19 1    
    33   19   20 1    
    34   19   26 1    
    35   20   25 ar   
    36   20   21 ar   
    37   21   22 ar   
    38   22   23 ar   
    39   22   46 1    
    40   23   24 ar   
    41   23   47 1    
    42   24   25 ar   
    43   24   48 1    
    44   25   49 1    
    45   26   27 1    
    46   26   50 1    
    47   26   51 1    
    48   27   32 ar   
    49   27   28 ar   
    50   28   29 ar   
    51   28   52 1    
    52   29   30 ar   
    53   29   53 1    
    54   30   31 ar   
    55   30   33 1    
    56   31   32 ar   
    57   31   54 1    
    58   32   55 1    
    59   34   56 1    
    60   34   57 1    
    61   35   36 3    
@<TRIPOS>SUBSTRUCTURE
     1 UNK         1 GROUP             0       ****    0 ROOT    
