@<TRIPOS>MOLECULE
ZINC56813690_4755
45   48    1
SMALL
USER_CHARGES


@<TRIPOS>ATOM
      1 C1          5.0267   54.4382   27.9009 C.ar      1 UNK         0.0000 
      2 C2          4.4938   54.1821   26.6492 C.ar      1 UNK         0.0000 
      3 C3          5.5496   54.4968   25.7686 C.ar      1 UNK         0.0000 
      4 N4          6.6315   54.9176   26.3871 N.2       1 UNK         0.0000 
      5 N5          6.3003   54.8891   27.6812 N.pl3     1 UNK         0.0000 
      6 H6          6.9380   55.2035   28.4079 H         1 UNK         0.0000 
      7 N7          3.2189   53.6969   26.4032 N.am      1 UNK         0.0000 
      8 C8          2.6011   53.6508   25.2059 C.2       1 UNK         0.0000 
      9 O9          3.0284   54.1392   24.1592 O.2       1 UNK         0.0000 
     10 N10         1.4421   52.9707   25.2865 N.am      1 UNK         0.0000 
     11 C11         0.4600   52.8066   24.1995 C.3       1 UNK         0.0000 
     12 C12         0.8173   51.7321   23.1405 C.3       1 UNK         0.0000 
     13 H13         1.8443   51.9205   22.8175 H         1 UNK         0.0000 
     14 C14        -0.0935   51.9287   21.8975 C.3       1 UNK         0.0000 
     15 C15        -1.6029   51.8425   22.2313 C.3       1 UNK         0.0000 
     16 C16        -1.9927   52.6417   23.5035 C.3       1 UNK         0.0000 
     17 C17        -0.9853   52.5138   24.6836 C.3       1 UNK         0.0000 
     18 H18        -1.2519   53.2942   25.4011 H         1 UNK         0.0000 
     19 C19        -1.0464   51.1419   25.4025 C.3       1 UNK         0.0000 
     20 N20        -0.5929   50.0310   24.4284 N.4       1 UNK         0.0000 
     21 C21         0.7691   50.2944   23.7381 C.3       1 UNK         0.0000 
     22 C22        -0.6414   48.6570   25.1127 C.3       1 UNK         0.0000 
     23 C23        -1.9863   47.9886   25.2823 C.3       1 UNK         0.0000 
     24 C24        -0.9946   47.4447   24.2857 C.3       1 UNK         0.0000 
     25 H25         4.6274   54.3593   28.9004 H         1 UNK         0.0000 
     26 H26         5.5229   54.4098   24.6920 H         1 UNK         0.0000 
     27 H27         2.7414   53.2978   27.1960 H         1 UNK         0.0000 
     28 H28         1.1068   52.7435   26.2104 H         1 UNK         0.0000 
     29 H29         0.4402   53.7819   23.6998 H         1 UNK         0.0000 
     30 H30         0.1265   52.8953   21.4369 H         1 UNK         0.0000 
     31 H31         0.1421   51.1768   21.1418 H         1 UNK         0.0000 
     32 H32        -1.9033   50.8005   22.3384 H         1 UNK         0.0000 
     33 H33        -2.1816   52.2057   21.3806 H         1 UNK         0.0000 
     34 H34        -2.9916   52.3437   23.8254 H         1 UNK         0.0000 
     35 H35        -2.0848   53.6967   23.2417 H         1 UNK         0.0000 
     36 H36        -0.4071   51.0784   26.2855 H         1 UNK         0.0000 
     37 H37        -2.0750   50.8919   25.6714 H         1 UNK         0.0000 
     38 H38         0.8508   49.5419   22.9527 H         1 UNK         0.0000 
     39 H39         1.5439   50.1221   24.4814 H         1 UNK         0.0000 
     40 H40         0.0962   48.5874   25.9177 H         1 UNK         0.0000 
     41 H41        -2.1611   47.4539   26.2184 H         1 UNK         0.0000 
     42 H42        -2.8815   48.4997   24.9296 H         1 UNK         0.0000 
     43 H43        -1.1794   47.5712   23.2192 H         1 UNK         0.0000 
     44 H44        -0.4968   46.5056   24.5160 H         1 UNK         0.0000 
     45 H45        -1.2776   50.0414   23.6869 H         1 UNK         0.0000 
@<TRIPOS>BOND
     1    1    5 ar   
     2    1    2 ar   
     3    1   25 1    
     4    2    3 ar   
     5    2    7 1    
     6    3    4 ar   
     7    3   26 1    
     8    4    5 ar   
     9    5    6 1    
    10    7    8 am   BACKBONE|DICT|INTERRES
    11    7   27 1    
    12    8    9 2    
    13    8   10 am   BACKBONE|DICT|INTERRES
    14   10   11 1    
    15   10   28 1    
    16   11   17 1    
    17   11   12 1    
    18   11   29 1    
    19   12   13 1    
    20   12   21 1    
    21   12   14 1    
    22   14   15 1    
    23   14   30 1    
    24   14   31 1    
    25   15   16 1    
    26   15   32 1    
    27   15   33 1    
    28   16   17 1    
    29   16   34 1    
    30   16   35 1    
    31   17   18 1    
    32   17   19 1    
    33   19   20 1    
    34   19   36 1    
    35   19   37 1    
    36   20   21 1    
    37   20   22 1    
    38   20   45 1    
    39   21   38 1    
    40   21   39 1    
    41   22   24 1    
    42   22   23 1    
    43   22   40 1    
    44   23   24 1    
    45   23   41 1    
    46   23   42 1    
    47   24   43 1    
    48   24   44 1    
@<TRIPOS>SUBSTRUCTURE
     1 UNK         1 GROUP             0       ****    0 ROOT    
