@<TRIPOS>MOLECULE
ZINC14169230_15
47   50    1
SMALL
USER_CHARGES


@<TRIPOS>ATOM
      1 C1          1.7659   56.5389   16.5053 C.3       1 UNK         0.0000 
      2 C2          2.9053   57.5300   16.3168 C.2       1 UNK         0.0000 
      3 C3          2.8959   58.7202   15.6812 C.2       1 UNK         0.0000 
      4 N4          4.1434   59.2967   15.7237 N.pl3     1 UNK         0.0000 
      5 H5          4.3035   60.2685   16.0806 H         1 UNK         0.0000 
      6 O6          4.9535   58.4299   16.4932 O.3       1 UNK         0.0000 
      7 C7          4.2232   57.3347   16.8697 C.2       1 UNK         0.0000 
      8 N8          4.6670   56.3546   17.5575 N.2       1 UNK         0.0000 
      9 S9          6.3576   56.3102   18.0737 S.o2      1 UNK         0.0000 
     10 O10         7.0026   57.5923   18.3863 O.2       1 UNK         0.0000 
     11 O11         7.2090   55.3201   17.4065 O.2       1 UNK         0.0000 
     12 C12         6.1447   55.5585   19.7077 C.ar      1 UNK         0.0000 
     13 C13         5.1043   54.6660   19.9923 C.ar      1 UNK         0.0000 
     14 C14         4.9402   54.1726   21.2887 C.ar      1 UNK         0.0000 
     15 C15         5.8195   54.5489   22.3095 C.ar      1 UNK         0.0000 
     16 C16         6.9146   55.3678   21.9942 C.ar      1 UNK         0.0000 
     17 C17         7.0760   55.8598   20.7033 C.ar      1 UNK         0.0000 
     18 N18         5.4805   54.1460   23.6202 N.am      1 UNK         0.0000 
     19 C19         6.0359   54.5096   24.8015 C.2       1 UNK         0.0000 
     20 O20         7.1042   55.1033   24.9438 O.2       1 UNK         0.0000 
     21 C21         5.2306   54.1936   25.9537 C.2       1 UNK         0.0000 
     22 C22         3.8333   54.0964   26.0444 C.2       1 UNK         0.0000 
     23 C23         3.3988   53.9157   27.3605 C.2       1 UNK         0.0000 
     24 C24         4.4277   53.9043   28.2715 C.2       1 UNK         0.0000 
     25 S25         5.9808   54.0966   27.5358 S.3       1 UNK         0.0000 
     26 C26         3.9478   53.7635   29.6889 C.3       1 UNK         0.0000 
     27 C27         2.4385   54.0218   29.5211 C.3       1 UNK         0.0000 
     28 C28         2.0792   53.7073   28.0569 C.3       1 UNK         0.0000 
     29 C29         1.7982   59.4739   14.9617 C.3       1 UNK         0.0000 
     30 H30         0.8072   56.9683   16.2133 H         1 UNK         0.0000 
     31 H31         1.9414   55.6510   15.8961 H         1 UNK         0.0000 
     32 H32         1.6880   56.2163   17.5449 H         1 UNK         0.0000 
     33 H33         4.3951   54.3819   19.2279 H         1 UNK         0.0000 
     34 H34         4.0950   53.5317   21.4956 H         1 UNK         0.0000 
     35 H35         7.6365   55.6744   22.7322 H         1 UNK         0.0000 
     36 H36         7.9222   56.4944   20.4821 H         1 UNK         0.0000 
     37 H37         4.6329   53.6057   23.6842 H         1 UNK         0.0000 
     38 H38         3.1563   54.1616   25.2044 H         1 UNK         0.0000 
     39 H39         4.3956   54.4960   30.3607 H         1 UNK         0.0000 
     40 H40         4.1526   52.7708   30.0913 H         1 UNK         0.0000 
     41 H41         2.2288   55.0752   29.7190 H         1 UNK         0.0000 
     42 H42         1.8363   53.4457   30.2257 H         1 UNK         0.0000 
     43 H43         1.7427   52.6733   27.9652 H         1 UNK         0.0000 
     44 H44         1.2792   54.3499   27.6869 H         1 UNK         0.0000 
     45 H45         0.8602   58.9215   14.9762 H         1 UNK         0.0000 
     46 H46         1.6316   60.4383   15.4440 H         1 UNK         0.0000 
     47 H47         2.0767   59.6496   13.9223 H         1 UNK         0.0000 
@<TRIPOS>BOND
     1    1    2 1    
     2    1   30 1    
     3    1   31 1    
     4    1   32 1    
     5    2    7 1    
     6    2    3 2    
     7    3    4 1    
     8    3   29 1    
     9    4    5 1    
    10    4    6 1    
    11    6    7 1    
    12    7    8 2    
    13    8    9 1    
    14    9   10 2    
    15    9   11 2    
    16    9   12 1    
    17   12   17 ar   
    18   12   13 ar   
    19   13   14 ar   
    20   13   33 1    
    21   14   15 ar   
    22   14   34 1    
    23   15   16 ar   
    24   15   18 1    
    25   16   17 ar   
    26   16   35 1    
    27   17   36 1    
    28   18   19 am   BACKBONE|DICT|INTERRES
    29   18   37 1    
    30   19   20 2    
    31   19   21 1    
    32   21   25 1    
    33   21   22 2    
    34   22   23 1    
    35   22   38 1    
    36   23   28 1    
    37   23   24 2    
    38   24   25 1    
    39   24   26 1    
    40   26   27 1    
    41   26   39 1    
    42   26   40 1    
    43   27   28 1    
    44   27   41 1    
    45   27   42 1    
    46   28   43 1    
    47   28   44 1    
    48   29   45 1    
    49   29   46 1    
    50   29   47 1    
@<TRIPOS>SUBSTRUCTURE
     1 UNK         1 GROUP             0       ****    0 ROOT    
