@<TRIPOS>MOLECULE
ZINC12228924_2087
57   60    1
SMALL
USER_CHARGES


@<TRIPOS>ATOM
      1 C1          2.6364   51.1229   21.3921 C.ar      1 UNK         0.0000 
      2 C2          3.6108   52.0949   21.1782 C.ar      1 UNK         0.0000 
      3 C3          3.7379   53.1517   22.0769 C.ar      1 UNK         0.0000 
      4 C4          2.8991   53.2322   23.1935 C.ar      1 UNK         0.0000 
      5 C5          1.9050   52.2640   23.3851 C.ar      1 UNK         0.0000 
      6 C6          1.7813   51.2042   22.4886 C.ar      1 UNK         0.0000 
      7 C7          3.0425   54.3920   24.1709 C.3       1 UNK         0.0000 
      8 C8          4.2828   54.3475   25.0779 C.ar      1 UNK         0.0000 
      9 C9          5.4985   54.8029   24.5520 C.ar      1 UNK         0.0000 
     10 C10         6.6511   54.8464   25.3286 C.ar      1 UNK         0.0000 
     11 C11         6.6048   54.4387   26.6578 C.ar      1 UNK         0.0000 
     12 C12         5.4064   53.9837   27.2041 C.ar      1 UNK         0.0000 
     13 C13         4.2316   53.9399   26.4295 C.ar      1 UNK         0.0000 
     14 N14         3.0098   53.4582   26.9423 N.am      1 UNK         0.0000 
     15 C15         2.5764   53.4051   28.2231 C.2       1 UNK         0.0000 
     16 O16         3.2145   53.8320   29.1905 O.2       1 UNK         0.0000 
     17 C17         1.2120   52.7803   28.4393 C.ar      1 UNK         0.0000 
     18 C18         0.7741   52.5047   29.7439 C.ar      1 UNK         0.0000 
     19 C19        -0.4919   51.9724   29.9760 C.ar      1 UNK         0.0000 
     20 C20        -1.3354   51.6967   28.9089 C.ar      1 UNK         0.0000 
     21 C21        -0.9377   51.9704   27.6025 C.ar      1 UNK         0.0000 
     22 C22         0.3374   52.4965   27.3721 C.ar      1 UNK         0.0000 
     23 S23        -2.0922   51.7501   26.2410 S.o2      1 UNK         0.0000 
     24 O24        -3.1968   52.6857   26.4780 O.2       1 UNK         0.0000 
     25 O25        -1.3052   51.8352   25.0055 O.2       1 UNK         0.0000 
     26 N26        -2.7151   50.0970   26.3356 N.pl3     1 UNK         0.0000 
     27 C27        -3.7263   49.6386   27.3221 C.3       1 UNK         0.0000 
     28 H28        -3.2646   49.6962   28.3049 H         1 UNK         0.0000 
     29 C29        -5.0492   50.4384   27.2855 C.3       1 UNK         0.0000 
     30 C30        -6.1095   49.6583   28.0835 C.3       1 UNK         0.0000 
     31 S31        -5.7819   47.8526   27.7032 S.o2      1 UNK         0.0000 
     32 O32        -5.6951   47.1002   28.9568 O.2       1 UNK         0.0000 
     33 O33        -6.6531   47.3958   26.6155 O.2       1 UNK         0.0000 
     34 C34        -4.0735   48.1712   27.0118 C.3       1 UNK         0.0000 
     35 H35         2.5380   50.3032   20.6931 H         1 UNK         0.0000 
     36 H36         4.2591   52.0353   20.3161 H         1 UNK         0.0000 
     37 H37         4.4943   53.9019   21.9003 H         1 UNK         0.0000 
     38 H38         1.2315   52.3225   24.2244 H         1 UNK         0.0000 
     39 H39         1.0206   50.4513   22.6445 H         1 UNK         0.0000 
     40 H40         3.0932   55.2968   23.5689 H         1 UNK         0.0000 
     41 H41         2.1278   54.4966   24.7542 H         1 UNK         0.0000 
     42 H42         5.5609   55.1281   23.5257 H         1 UNK         0.0000 
     43 H43         7.5734   55.1872   24.8837 H         1 UNK         0.0000 
     44 H44         7.4946   54.4596   27.2707 H         1 UNK         0.0000 
     45 H45         5.4186   53.6489   28.2291 H         1 UNK         0.0000 
     46 H46         2.3704   53.1358   26.2366 H         1 UNK         0.0000 
     47 H47         1.4062   52.7093   30.5965 H         1 UNK         0.0000 
     48 H48        -0.8230   51.7653   30.9820 H         1 UNK         0.0000 
     49 H49        -2.3190   51.3123   29.1229 H         1 UNK         0.0000 
     50 H50         0.6128   52.7239   26.3546 H         1 UNK         0.0000 
     51 H51        -2.0182   49.3835   26.1065 H         1 UNK         0.0000 
     52 H52        -4.9310   51.4370   27.7063 H         1 UNK         0.0000 
     53 H53        -5.3834   50.5609   26.2543 H         1 UNK         0.0000 
     54 H54        -5.8892   49.7930   29.1441 H         1 UNK         0.0000 
     55 H55        -7.1600   49.9019   27.9265 H         1 UNK         0.0000 
     56 H56        -4.1967   48.0895   25.9332 H         1 UNK         0.0000 
     57 H57        -3.3389   47.4112   27.2776 H         1 UNK         0.0000 
@<TRIPOS>BOND
     1    1    6 ar   
     2    1    2 ar   
     3    1   35 1    
     4    2    3 ar   
     5    2   36 1    
     6    3    4 ar   
     7    3   37 1    
     8    4    5 ar   
     9    4    7 1    
    10    5    6 ar   
    11    5   38 1    
    12    6   39 1    
    13    7    8 1    
    14    7   40 1    
    15    7   41 1    
    16    8   13 ar   
    17    8    9 ar   
    18    9   10 ar   
    19    9   42 1    
    20   10   11 ar   
    21   10   43 1    
    22   11   12 ar   
    23   11   44 1    
    24   12   13 ar   
    25   12   45 1    
    26   13   14 1    
    27   14   15 am   BACKBONE|DICT|INTERRES
    28   14   46 1    
    29   15   16 2    
    30   15   17 1    
    31   17   22 ar   
    32   17   18 ar   
    33   18   19 ar   
    34   18   47 1    
    35   19   20 ar   
    36   19   48 1    
    37   20   21 ar   
    38   20   49 1    
    39   21   22 ar   
    40   21   23 1    
    41   22   50 1    
    42   23   24 2    
    43   23   25 2    
    44   23   26 1    
    45   26   27 1    
    46   26   51 1    
    47   27   28 1    
    48   27   34 1    
    49   27   29 1    
    50   29   30 1    
    51   29   52 1    
    52   29   53 1    
    53   30   31 1    
    54   30   54 1    
    55   30   55 1    
    56   31   32 2    
    57   31   33 2    
    58   31   34 1    
    59   34   56 1    
    60   34   57 1    
@<TRIPOS>SUBSTRUCTURE
     1 UNK         1 GROUP             0       ****    0 ROOT    
