ZINC40329584_1584
                    3D
 Schrodinger Suite 2024-2.
 39 40  0  0  1  0            999 V2000
    1.5800   53.5540   23.4514 C   0  0  0  0  0  0
    2.8254   54.1709   23.5638 C   0  0  0  0  0  0
    3.4636   54.2496   24.8019 C   0  0  0  0  0  0
    2.8568   53.6965   25.9363 C   0  0  0  0  0  0
    1.6199   53.0574   25.8178 C   0  0  0  0  0  0
    0.9766   52.9854   24.5772 C   0  0  0  0  0  0
   -0.6087   52.1541   24.4435 S   0  0  0  0  0  0
   -1.2922   52.7341   23.2814 O   0  0  0  0  0  0
   -1.2417   52.2482   25.7642 O   0  0  0  0  0  0
   -0.2562   50.4307   24.0959 N   0  0  0  0  0  0
   -0.5032   49.4155   25.1358 C   0  0  0  0  0  0
   -1.5377   48.3510   24.7210 C   0  0  0  0  0  0
   -1.9558   48.2382   23.5708 O   0  0  0  0  0  0
   -1.9877   47.5516   25.6817 N   0  0  0  0  0  0
    0.5330   50.0084   22.8866 C   0  0  0  0  0  0
    0.0927   50.5464   21.5183 C   0  0  0  0  0  0
    1.3130   50.2926   20.6328 C   0  0  0  0  0  0
    2.5016   50.6148   21.5427 C   0  0  0  0  0  0
    2.0537   50.2173   22.9605 C   0  0  0  0  0  0
    3.4790   53.7685   27.1853 N   0  0  0  0  0  0
    4.6685   54.8642   24.8907 F   0  0  0  0  0  0
    1.1046   53.4998   22.4822 H   0  0  0  0  0  0
    3.2951   54.5920   22.6864 H   0  0  0  0  0  0
    1.1541   52.6189   26.6898 H   0  0  0  0  0  0
    0.4280   48.9391   25.4477 H   0  0  0  0  0  0
   -0.8827   49.8719   26.0487 H   0  0  0  0  0  0
   -1.6970   47.6979   26.6507 H   0  0  0  0  0  0
   -2.7001   46.8747   25.4712 H   0  0  0  0  0  0
    0.3684   48.9300   22.8663 H   0  0  0  0  0  0
   -0.1003   51.6173   21.5304 H   0  0  0  0  0  0
   -0.7973   50.0393   21.1431 H   0  0  0  0  0  0
    1.3079   50.9021   19.7280 H   0  0  0  0  0  0
    1.3464   49.2451   20.3253 H   0  0  0  0  0  0
    2.7205   51.6840   21.5026 H   0  0  0  0  0  0
    3.4072   50.0923   21.2301 H   0  0  0  0  0  0
    2.5461   49.2967   23.2666 H   0  0  0  0  0  0
    2.3281   50.9728   23.6876 H   0  0  0  0  0  0
    4.4123   54.1519   27.2394 H   0  0  0  0  0  0
    3.0734   53.2847   27.9729 H   0  0  0  0  0  0
  1  6  2  0  0  0
  1  2  1  0  0  0
  1 22  1  0  0  0
  2  3  2  0  0  0
  2 23  1  0  0  0
  3  4  1  0  0  0
  3 21  1  0  0  0
  4  5  2  0  0  0
  4 20  1  0  0  0
  5  6  1  0  0  0
  5 24  1  0  0  0
  6  7  1  0  0  0
  7  8  2  0  0  0
  7  9  2  0  0  0
  7 10  1  0  0  0
 10 11  1  0  0  0
 10 15  1  0  0  0
 11 12  1  0  0  0
 11 25  1  0  0  0
 11 26  1  0  0  0
 12 13  2  0  0  0
 12 14  1  0  0  0
 14 27  1  0  0  0
 14 28  1  0  0  0
 15 19  1  0  0  0
 15 16  1  0  0  0
 15 29  1  0  0  0
 16 17  1  0  0  0
 16 30  1  0  0  0
 16 31  1  0  0  0
 17 18  1  0  0  0
 17 32  1  0  0  0
 17 33  1  0  0  0
 18 19  1  0  0  0
 18 34  1  0  0  0
 18 35  1  0  0  0
 19 36  1  0  0  0
 19 37  1  0  0  0
 20 38  1  0  0  0
 20 39  1  0  0  0
M  END
> <i_i_glide_confnum>
7

> <i_i_glide_lignum>
1585

> <i_i_glide_posenum>
122

> <i_i_glide_rotatable_bonds>
5

> <i_m_Source_File_Index>
4869

> <b_m_subgroup_collapsed>
0

> <r_i_docking_score>
-4.73221

> <r_i_glide_ecoul>
-6.18376

> <r_i_glide_eff_state_penalty>
0

> <r_i_glide_einternal>
2.07702

> <r_i_glide_emodel>
-41.7767

> <r_i_glide_energy>
-31.4976

> <r_i_glide_erotb>
0.748141

> <r_i_glide_esite>
-0.162336

> <r_i_glide_evdw>
-25.3139

> <r_i_glide_gscore>
-4.73221

> <r_i_glide_hbond>
-0.16

> <r_i_glide_ligand_efficiency>
-0.225343

> <r_i_glide_ligand_efficiency_ln>
-1.17003

> <r_i_glide_ligand_efficiency_sa>
-0.621705

> <r_i_glide_lipo>
-1.44358

> <r_i_glide_metal>
0

> <r_i_glide_rewards>
-1.52118

> <s_i_glide_gridfile>
wee1_glide-grid

> <s_m_Source_File>
wee1_decoys_glide_SP.sdf

> <s_m_Source_Path>
/Users/zhangxujun/Desktop

> <s_m_entry_id>
5144

> <s_m_entry_name>
wee1_decoys_glide_SP.4869

> <s_m_subgroup_title>
wee1_decoys_glide_SP

> <s_m_subgroupid>
wee1_decoys_glide_SP


$$$$
