@<TRIPOS>MOLECULE
ZINC63820519_5018
53   56    1
SMALL
USER_CHARGES


@<TRIPOS>ATOM
      1 C1          4.1677   53.8706   21.5505 C.2       1 UNK         0.0000 
      2 C2          5.3853   54.4951   21.0556 C.2       1 UNK         0.0000 
      3 C3          6.3805   54.8957   21.8910 C.2       1 UNK         0.0000 
      4 C4          6.2594   54.7145   23.2745 C.2       1 UNK         0.0000 
      5 N5          7.1043   55.0025   24.2311 N.pl3     1 UNK         0.0000 
      6 C6          6.4926   54.7296   25.5440 C.3       1 UNK         0.0000 
      7 C7          5.1799   54.0966   25.1465 C.2       1 UNK         0.0000 
      8 C8          5.0960   54.1441   23.8035 C.2       1 UNK         0.0000 
      9 C9          4.0376   53.6991   22.8814 C.2       1 UNK         0.0000 
     10 C10         4.2398   53.5227   26.1872 C.3       1 UNK         0.0000 
     11 C11         3.6034   54.6042   27.0877 C.3       1 UNK         0.0000 
     12 C12         2.3402   54.2167   27.8701 C.2       1 UNK         0.0000 
     13 O13         1.9017   55.0141   28.7011 O.2       1 UNK         0.0000 
     14 N14         1.7537   53.0380   27.5792 N.am      1 UNK         0.0000 
     15 C15         0.6061   52.5203   28.1902 C.ar      1 UNK         0.0000 
     16 C16        -0.4928   52.2426   27.3691 C.ar      1 UNK         0.0000 
     17 C17        -1.6557   51.6965   27.9161 C.ar      1 UNK         0.0000 
     18 C18        -1.6953   51.3647   29.2704 C.ar      1 UNK         0.0000 
     19 C19        -0.6255   51.6968   30.0925 C.ar      1 UNK         0.0000 
     20 C20         0.5337   52.2575   29.5706 C.ar      1 UNK         0.0000 
     21 O21         1.5755   52.4977   30.4344 O.3       1 UNK         0.0000 
     22 S22        -3.1179   51.4880   26.9091 S.o2      1 UNK         0.0000 
     23 O23        -4.2529   51.2919   27.8174 O.2       1 UNK         0.0000 
     24 O24        -3.1266   52.5742   25.9236 O.2       1 UNK         0.0000 
     25 N25        -2.8869   49.9588   26.0611 N.pl3     1 UNK         0.0000 
     26 C26        -1.8639   49.8053   25.1222 C.ar      1 UNK         0.0000 
     27 C27        -1.0007   48.7229   25.2703 C.ar      1 UNK         0.0000 
     28 C28         0.0511   48.5478   24.3803 C.ar      1 UNK         0.0000 
     29 C29         0.2523   49.4657   23.3506 C.ar      1 UNK         0.0000 
     30 C30        -0.6277   50.5304   23.1773 C.ar      1 UNK         0.0000 
     31 C31        -1.6974   50.6927   24.0532 C.ar      1 UNK         0.0000 
     32 Cl32        1.6039   49.2964   22.2892 Cl        1 UNK         0.0000 
     33 H33         3.3918   53.5559   20.8646 H         1 UNK         0.0000 
     34 H34         5.4975   54.6383   19.9887 H         1 UNK         0.0000 
     35 H35         7.2659   55.3436   21.4644 H         1 UNK         0.0000 
     36 H36         7.1259   54.0490   26.1085 H         1 UNK         0.0000 
     37 H37         6.3785   55.6808   26.0721 H         1 UNK         0.0000 
     38 H38         3.1290   53.2356   23.2394 H         1 UNK         0.0000 
     39 H39         3.4979   52.9118   25.6679 H         1 UNK         0.0000 
     40 H40         4.8071   52.8323   26.8116 H         1 UNK         0.0000 
     41 H41         4.3451   54.9556   27.8048 H         1 UNK         0.0000 
     42 H42         3.3441   55.4627   26.4757 H         1 UNK         0.0000 
     43 H43         2.1189   52.5037   26.8077 H         1 UNK         0.0000 
     44 H44        -0.4571   52.4765   26.3140 H         1 UNK         0.0000 
     45 H45        -2.5690   50.8966   29.7045 H         1 UNK         0.0000 
     46 H46        -0.6970   51.4633   31.1454 H         1 UNK         0.0000 
     47 H47         1.2969   52.4021   31.3484 H         1 UNK         0.0000 
     48 H48        -3.0160   49.1753   26.6860 H         1 UNK         0.0000 
     49 H49        -1.1285   48.0205   26.0817 H         1 UNK         0.0000 
     50 H50         0.7044   47.7017   24.5136 H         1 UNK         0.0000 
     51 H51        -0.4810   51.2276   22.3670 H         1 UNK         0.0000 
     52 H52        -2.3824   51.5116   23.8961 H         1 UNK         0.0000 
     53 H53         8.0517   55.3656   24.0812 H         1 UNK         0.0000 
@<TRIPOS>BOND
     1    1    9 2    
     2    1    2 1    
     3    1   33 1    
     4    2    3 2    
     5    2   34 1    
     6    3    4 1    
     7    3   35 1    
     8    4    8 1    
     9    4    5 2    
    10    5    6 1    
    11    5   53 1    
    12    6    7 1    
    13    6   36 1    
    14    6   37 1    
    15    7    8 2    
    16    7   10 1    
    17    8    9 1    
    18    9   38 1    
    19   10   11 1    
    20   10   39 1    
    21   10   40 1    
    22   11   12 1    
    23   11   41 1    
    24   11   42 1    
    25   12   13 2    
    26   12   14 am   BACKBONE|DICT|INTERRES
    27   14   15 1    
    28   14   43 1    
    29   15   20 ar   
    30   15   16 ar   
    31   16   17 ar   
    32   16   44 1    
    33   17   18 ar   
    34   17   22 1    
    35   18   19 ar   
    36   18   45 1    
    37   19   20 ar   
    38   19   46 1    
    39   20   21 1    
    40   21   47 1    
    41   22   23 2    
    42   22   24 2    
    43   22   25 1    
    44   25   26 1    
    45   25   48 1    
    46   26   31 ar   
    47   26   27 ar   
    48   27   28 ar   
    49   27   49 1    
    50   28   29 ar   
    51   28   50 1    
    52   29   30 ar   
    53   29   32 1    
    54   30   31 ar   
    55   30   51 1    
    56   31   52 1    
@<TRIPOS>SUBSTRUCTURE
     1 UNK         1 GROUP             0       ****    0 ROOT    
