@<TRIPOS>MOLECULE
ZINC65380893_6215
54   56    1
SMALL
USER_CHARGES


@<TRIPOS>ATOM
      1 C1          3.2902   53.9231   26.8439 C.3       1 UNK         0.0000 
      2 C2          4.2938   54.0970   25.7177 C.2       1 UNK         0.0000 
      3 C3          5.6361   54.4359   25.8925 C.2       1 UNK         0.0000 
      4 S4          6.4928   54.5941   24.3710 S.3       1 UNK         0.0000 
      5 C5          5.0812   54.0966   23.4784 C.ar      1 UNK         0.0000 
      6 C6          3.9615   53.8735   24.3330 C.ar      1 UNK         0.0000 
      7 C7          2.7781   53.4499   23.6685 C.ar      1 UNK         0.0000 
      8 N8          2.7569   53.3077   22.3144 N.ar      1 UNK         0.0000 
      9 C9          3.9042   53.5261   21.6300 C.ar      1 UNK         0.0000 
     10 N10         5.0899   53.9291   22.1515 N.ar      1 UNK         0.0000 
     11 C11         3.8883   53.2202   20.1303 C.3       1 UNK         0.0000 
     12 C12         2.9180   52.0813   19.7276 C.3       1 UNK         0.0000 
     13 N13         3.1044   51.6968   18.2521 N.4       1 UNK         0.0000 
     14 N14         1.6252   53.0839   24.3909 N.pl3     1 UNK         0.0000 
     15 C15         0.3976   52.6586   23.7185 C.3       1 UNK         0.0000 
     16 C16         0.3937   51.1768   23.2638 C.3       1 UNK         0.0000 
     17 H17         1.2666   51.0080   22.6308 H         1 UNK         0.0000 
     18 C18        -0.8651   50.8289   22.4783 C.3       1 UNK         0.0000 
     19 C19        -1.7902   50.0926   23.4414 C.2       1 UNK         0.0000 
     20 O20        -2.9847   49.8725   23.2504 O.2       1 UNK         0.0000 
     21 N21        -1.0126   49.7267   24.4848 N.am      1 UNK         0.0000 
     22 C22         0.3773   50.1657   24.4028 C.3       1 UNK         0.0000 
     23 C23        -1.4572   48.8052   25.5352 C.3       1 UNK         0.0000 
     24 C24        -1.2928   47.3067   25.1866 C.3       1 UNK         0.0000 
     25 O25        -2.1179   46.8309   24.1252 O.3       1 UNK         0.0000 
     26 C26        -3.5036   46.7589   24.4351 C.3       1 UNK         0.0000 
     27 C27         6.3889   54.6661   27.1860 C.3       1 UNK         0.0000 
     28 H28         2.3796   54.4966   26.6760 H         1 UNK         0.0000 
     29 H29         3.6770   54.2504   27.8087 H         1 UNK         0.0000 
     30 H30         3.0005   52.8791   26.9650 H         1 UNK         0.0000 
     31 H31         3.6307   54.1408   19.6048 H         1 UNK         0.0000 
     32 H32         4.8993   52.9415   19.8263 H         1 UNK         0.0000 
     33 H33         3.0977   51.1513   20.2688 H         1 UNK         0.0000 
     34 H34         1.8700   52.3740   19.8126 H         1 UNK         0.0000 
     35 H35         2.4254   51.0051   17.9674 H         1 UNK         0.0000 
     36 H36         3.0295   52.5001   17.6461 H         1 UNK         0.0000 
     37 H37         1.7174   52.9118   25.3823 H         1 UNK         0.0000 
     38 H38        -0.4529   52.8753   24.3674 H         1 UNK         0.0000 
     39 H39         0.2550   53.2966   22.8461 H         1 UNK         0.0000 
     40 H40        -1.3620   51.6959   22.0425 H         1 UNK         0.0000 
     41 H41        -0.6385   50.1357   21.6674 H         1 UNK         0.0000 
     42 H42         1.0012   49.3053   24.1564 H         1 UNK         0.0000 
     43 H43         0.7641   50.5729   25.3374 H         1 UNK         0.0000 
     44 H44        -0.9700   49.0333   26.4817 H         1 UNK         0.0000 
     45 H45        -2.5144   49.0018   25.7101 H         1 UNK         0.0000 
     46 H46        -0.2602   47.1319   24.8821 H         1 UNK         0.0000 
     47 H47        -1.4421   46.6985   26.0802 H         1 UNK         0.0000 
     48 H48        -4.0370   46.3228   23.5913 H         1 UNK         0.0000 
     49 H49        -3.6853   46.1283   25.3064 H         1 UNK         0.0000 
     50 H50        -3.9374   47.7410   24.6227 H         1 UNK         0.0000 
     51 H51         6.0147   54.0371   27.9950 H         1 UNK         0.0000 
     52 H52         7.4524   54.4381   27.0937 H         1 UNK         0.0000 
     53 H53         6.3083   55.6967   27.5248 H         1 UNK         0.0000 
     54 H54         4.0249   51.2580   18.1109 H         1 UNK         0.0000 
@<TRIPOS>BOND
     1    1    2 1    
     2    1   28 1    
     3    1   29 1    
     4    1   30 1    
     5    2    6 1    
     6    2    3 2    
     7    3    4 1    
     8    3   27 1    
     9    4    5 1    
    10    5   10 ar   
    11    5    6 ar   
    12    6    7 ar   
    13    7    8 ar   
    14    7   14 1    
    15    8    9 ar   
    16    9   10 ar   
    17    9   11 1    
    18   11   12 1    
    19   11   31 1    
    20   11   32 1    
    21   12   13 1    
    22   12   33 1    
    23   12   34 1    
    24   13   35 1    
    25   13   36 1    
    26   13   54 1    
    27   14   15 1    
    28   14   37 1    
    29   15   16 1    
    30   15   38 1    
    31   15   39 1    
    32   16   17 1    
    33   16   22 1    
    34   16   18 1    
    35   18   19 1    
    36   18   40 1    
    37   18   41 1    
    38   19   20 2    
    39   19   21 am   BACKBONE|DICT|INTERRES
    40   21   22 1    
    41   21   23 1    
    42   22   42 1    
    43   22   43 1    
    44   23   24 1    
    45   23   44 1    
    46   23   45 1    
    47   24   25 1    
    48   24   46 1    
    49   24   47 1    
    50   25   26 1    
    51   26   48 1    
    52   26   49 1    
    53   26   50 1    
    54   27   51 1    
    55   27   52 1    
    56   27   53 1    
@<TRIPOS>SUBSTRUCTURE
     1 UNK         1 GROUP             0       ****    0 ROOT    
