@<TRIPOS>MOLECULE
ZINC39578198_5057
51   53    1
SMALL
USER_CHARGES


@<TRIPOS>ATOM
      1 C1          1.8917   53.8735   24.5759 C.3       1 UNK         0.0000 
      2 C2          3.2860   54.2345   25.1603 C.3       1 UNK         0.0000 
      3 H3          3.2831   55.3149   25.2820 H         1 UNK         0.0000 
      4 C4          3.5106   53.6977   26.5988 C.ar      1 UNK         0.0000 
      5 C5          2.5375   52.8968   27.2299 C.ar      1 UNK         0.0000 
      6 C6          2.7046   52.4322   28.5308 C.ar      1 UNK         0.0000 
      7 C7          3.8582   52.7456   29.2378 C.ar      1 UNK         0.0000 
      8 C8          4.8300   53.5514   28.6455 C.ar      1 UNK         0.0000 
      9 C9          4.6662   54.0291   27.3420 C.ar      1 UNK         0.0000 
     10 Cl10        5.9307   55.0257   26.7010 Cl        1 UNK         0.0000 
     11 Cl11        4.0755   52.1098   30.8288 Cl        1 UNK         0.0000 
     12 N12         4.4196   53.9608   24.2514 N.am      1 UNK         0.0000 
     13 C13         4.4834   54.1883   22.9251 C.2       1 UNK         0.0000 
     14 O14         3.5038   54.4967   22.2526 O.2       1 UNK         0.0000 
     15 C15         5.8852   54.1468   22.2780 C.3       1 UNK         0.0000 
     16 N16         5.8348   54.4971   20.8311 N.am      1 UNK         0.0000 
     17 C17         5.3347   53.6611   19.8916 C.2       1 UNK         0.0000 
     18 O18         4.8532   52.5415   20.0805 O.2       1 UNK         0.0000 
     19 C19         5.5602   54.3449   18.5421 C.3       1 UNK         0.0000 
     20 N20         6.3788   55.4424   18.9925 N.am      1 UNK         0.0000 
     21 C21         6.3949   55.6206   20.3160 C.2       1 UNK         0.0000 
     22 O22         6.7031   56.6613   20.8929 O.2       1 UNK         0.0000 
     23 C23         6.3939   53.4073   17.6342 C.3       1 UNK         0.0000 
     24 C24         4.2452   54.7846   17.8542 C.ar      1 UNK         0.0000 
     25 C25         4.0064   56.1217   17.5031 C.ar      1 UNK         0.0000 
     26 C26         2.8169   56.4892   16.8815 C.ar      1 UNK         0.0000 
     27 C27         1.8329   55.5406   16.6129 C.ar      1 UNK         0.0000 
     28 C28         2.0692   54.1996   16.9456 C.ar      1 UNK         0.0000 
     29 C29         3.2641   53.8282   17.5567 C.ar      1 UNK         0.0000 
     30 O30         0.6773   56.0083   16.0172 O.3       1 UNK         0.0000 
     31 C31        -0.5098   55.2191   16.0443 C.3       1 UNK         0.0000 
     32 F32        -0.4297   54.1337   15.2735 F         1 UNK         0.0000 
     33 F33        -0.8985   54.9108   17.2837 F         1 UNK         0.0000 
     34 H34         1.1043   54.0966   25.2870 H         1 UNK         0.0000 
     35 H35         1.6283   54.4598   23.6978 H         1 UNK         0.0000 
     36 H36         1.8278   52.8183   24.3076 H         1 UNK         0.0000 
     37 H37         1.6335   52.5918   26.7273 H         1 UNK         0.0000 
     38 H38         1.9443   51.8079   28.9779 H         1 UNK         0.0000 
     39 H39         5.7237   53.8087   29.1942 H         1 UNK         0.0000 
     40 H40         5.2884   53.7526   24.7210 H         1 UNK         0.0000 
     41 H41         6.5405   54.8326   22.8174 H         1 UNK         0.0000 
     42 H42         6.2967   53.1466   22.4131 H         1 UNK         0.0000 
     43 H43         7.0347   55.8939   18.3728 H         1 UNK         0.0000 
     44 H44         5.8478   52.4967   17.3889 H         1 UNK         0.0000 
     45 H45         6.6308   53.8937   16.6873 H         1 UNK         0.0000 
     46 H46         7.3416   53.1060   18.0829 H         1 UNK         0.0000 
     47 H47         4.7343   56.8934   17.7048 H         1 UNK         0.0000 
     48 H48         2.6468   57.5250   16.6234 H         1 UNK         0.0000 
     49 H49         1.3379   53.4322   16.7469 H         1 UNK         0.0000 
     50 H50         3.4236   52.7875   17.8067 H         1 UNK         0.0000 
     51 H51        -1.3175   55.8166   15.6215 H         1 UNK         0.0000 
@<TRIPOS>BOND
     1    1    2 1    
     2    1   34 1    
     3    1   35 1    
     4    1   36 1    
     5    2    3 1    
     6    2    4 1    
     7    2   12 1    
     8    4    9 ar   
     9    4    5 ar   
    10    5    6 ar   
    11    5   37 1    
    12    6    7 ar   
    13    6   38 1    
    14    7    8 ar   
    15    7   11 1    
    16    8    9 ar   
    17    8   39 1    
    18    9   10 1    
    19   12   13 am   BACKBONE|DICT|INTERRES
    20   12   40 1    
    21   13   14 2    
    22   13   15 1    
    23   15   16 1    
    24   15   41 1    
    25   15   42 1    
    26   16   21 am   BACKBONE|DICT|INTERRES
    27   16   17 am   BACKBONE|DICT|INTERRES
    28   17   18 2    
    29   17   19 1    
    30   19   20 1    
    31   19   23 1    
    32   19   24 1    
    33   20   21 am   BACKBONE|DICT|INTERRES
    34   20   43 1    
    35   21   22 2    
    36   23   44 1    
    37   23   45 1    
    38   23   46 1    
    39   24   29 ar   
    40   24   25 ar   
    41   25   26 ar   
    42   25   47 1    
    43   26   27 ar   
    44   26   48 1    
    45   27   28 ar   
    46   27   30 1    
    47   28   29 ar   
    48   28   49 1    
    49   29   50 1    
    50   30   31 1    
    51   31   32 1    
    52   31   33 1    
    53   31   51 1    
@<TRIPOS>SUBSTRUCTURE
     1 UNK         1 GROUP             0       ****    0 ROOT    
