@<TRIPOS>MOLECULE
ZINC35303136_4945
61   65    1
SMALL
USER_CHARGES


@<TRIPOS>ATOM
      1 C1         -0.7646   51.8966   17.9534 C.3       1 UNK         0.0000 
      2 C2         -0.0423   50.6757   18.5432 C.3       1 UNK         0.0000 
      3 C3          1.5061   50.7476   18.4878 C.3       1 UNK         0.0000 
      4 H4          1.7507   50.7751   17.4249 H         1 UNK         0.0000 
      5 C5          2.1192   49.4258   19.0036 C.3       1 UNK         0.0000 
      6 C6          2.1406   52.0450   19.1084 C.3       1 UNK         0.0000 
      7 H7          1.5523   52.8967   18.7678 H         1 UNK         0.0000 
      8 C8          2.0443   52.1048   20.6691 C.2       1 UNK         0.0000 
      9 O9          1.2037   51.4298   21.2672 O.2       1 UNK         0.0000 
     10 N10         2.9114   52.9506   21.2675 N.am      1 UNK         0.0000 
     11 C11         3.0058   53.2986   22.6009 C.2       1 UNK         0.0000 
     12 N12         3.9588   54.0942   23.0173 N.2       1 UNK         0.0000 
     13 N13         3.9055   54.3151   24.3865 N.2       1 UNK         0.0000 
     14 C14         2.9066   53.6967   24.9754 C.2       1 UNK         0.0000 
     15 S15         1.9043   52.7964   23.8621 S.3       1 UNK         0.0000 
     16 C16         2.6622   53.6965   26.4525 C.ar      1 UNK         0.0000 
     17 C17         3.6145   54.2723   27.3232 C.ar      1 UNK         0.0000 
     18 C18         3.4358   54.2564   28.7121 C.ar      1 UNK         0.0000 
     19 C19         2.2777   53.6642   29.1982 C.ar      1 UNK         0.0000 
     20 C20         1.3419   53.1178   28.3723 C.ar      1 UNK         0.0000 
     21 C21         1.5039   53.1053   26.9937 C.ar      1 UNK         0.0000 
     22 O22         0.3291   52.5955   29.1159 O.3       1 UNK         0.0000 
     23 C23         0.5635   53.0356   30.4273 C.3       1 UNK         0.0000 
     24 O24         1.8908   53.4893   30.4856 O.3       1 UNK         0.0000 
     25 N25         3.5044   52.2660   18.5917 N.am      1 UNK         0.0000 
     26 C26         4.0911   53.4577   18.3911 C.2       1 UNK         0.0000 
     27 O27         3.5046   54.5339   18.4814 O.2       1 UNK         0.0000 
     28 N28         5.4027   53.2967   18.1482 N.am      1 UNK         0.0000 
     29 C29         6.4539   54.2342   18.1663 C.ar      1 UNK         0.0000 
     30 C30         6.3299   55.4963   18.7683 C.ar      1 UNK         0.0000 
     31 C31         7.4134   56.3590   18.8589 C.ar      1 UNK         0.0000 
     32 C32         8.6636   55.9824   18.3815 C.ar      1 UNK         0.0000 
     33 C33         8.8426   54.7212   17.7683 C.ar      1 UNK         0.0000 
     34 C34         7.7275   53.8323   17.6394 C.ar      1 UNK         0.0000 
     35 C35         7.9431   52.5782   16.9904 C.ar      1 UNK         0.0000 
     36 C36         9.2026   52.2252   16.5157 C.ar      1 UNK         0.0000 
     37 C37        10.2790   53.0901   16.6640 C.ar      1 UNK         0.0000 
     38 C38        10.1136   54.3255   17.2806 C.ar      1 UNK         0.0000 
     39 H39        -1.8164   51.6718   17.7680 H         1 UNK         0.0000 
     40 H40        -0.7270   52.7490   18.6344 H         1 UNK         0.0000 
     41 H41        -0.3197   52.2010   17.0033 H         1 UNK         0.0000 
     42 H42        -0.3723   49.7943   17.9926 H         1 UNK         0.0000 
     43 H43        -0.3871   50.5161   19.5644 H         1 UNK         0.0000 
     44 H44         1.8910   49.2397   20.0536 H         1 UNK         0.0000 
     45 H45         1.7452   48.5769   18.4328 H         1 UNK         0.0000 
     46 H46         3.2017   49.4269   18.8941 H         1 UNK         0.0000 
     47 H47         3.5440   53.4354   20.6471 H         1 UNK         0.0000 
     48 H48         4.5114   54.7237   26.9267 H         1 UNK         0.0000 
     49 H49         4.1794   54.6836   29.3695 H         1 UNK         0.0000 
     50 H50         0.7533   52.6488   26.3666 H         1 UNK         0.0000 
     51 H51         0.3811   52.2353   31.1478 H         1 UNK         0.0000 
     52 H52        -0.1041   53.8684   30.6527 H         1 UNK         0.0000 
     53 H53         4.0620   51.4256   18.4403 H         1 UNK         0.0000 
     54 H54         5.6972   52.3314   18.0472 H         1 UNK         0.0000 
     55 H55         5.3949   55.8265   19.1926 H         1 UNK         0.0000 
     56 H56         7.2857   57.3291   19.3132 H         1 UNK         0.0000 
     57 H57         9.5043   56.6529   18.4768 H         1 UNK         0.0000 
     58 H58         7.1275   51.8801   16.8677 H         1 UNK         0.0000 
     59 H59         9.3463   51.2689   16.0340 H         1 UNK         0.0000 
     60 H60        11.2525   52.7980   16.2991 H         1 UNK         0.0000 
     61 H61        10.9578   54.9905   17.3960 H         1 UNK         0.0000 
@<TRIPOS>BOND
     1    1    2 1    
     2    1   39 1    
     3    1   40 1    
     4    1   41 1    
     5    2    3 1    
     6    2   42 1    
     7    2   43 1    
     8    3    4 1    
     9    3    5 1    
    10    3    6 1    
    11    5   44 1    
    12    5   45 1    
    13    5   46 1    
    14    6    7 1    
    15    6    8 1    
    16    6   25 1    
    17    8    9 2    
    18    8   10 am   BACKBONE|DICT|INTERRES
    19   10   11 am   BACKBONE|DICT|INTERRES
    20   10   47 1    
    21   11   15 1    
    22   11   12 2    
    23   12   13 1    
    24   13   14 2    
    25   14   15 1    
    26   14   16 1    
    27   16   21 ar   
    28   16   17 ar   
    29   17   18 ar   
    30   17   48 1    
    31   18   19 ar   
    32   18   49 1    
    33   19   24 1    
    34   19   20 ar   
    35   20   21 ar   
    36   20   22 1    
    37   21   50 1    
    38   22   23 1    
    39   23   24 1    
    40   23   51 1    
    41   23   52 1    
    42   25   26 am   BACKBONE|DICT|INTERRES
    43   25   53 1    
    44   26   27 2    
    45   26   28 am   BACKBONE|DICT|INTERRES
    46   28   29 1    
    47   28   54 1    
    48   29   34 ar   
    49   29   30 ar   
    50   30   31 ar   
    51   30   55 1    
    52   31   32 ar   
    53   31   56 1    
    54   32   33 ar   
    55   32   57 1    
    56   33   38 ar   
    57   33   34 ar   
    58   34   35 ar   
    59   35   36 ar   
    60   35   58 1    
    61   36   37 ar   
    62   36   59 1    
    63   37   38 ar   
    64   37   60 1    
    65   38   61 1    
@<TRIPOS>SUBSTRUCTURE
     1 UNK         1 GROUP             0       ****    0 ROOT    
