@<TRIPOS>MOLECULE
ZINC14543946_5205
61   66    1
SMALL
USER_CHARGES


@<TRIPOS>ATOM
      1 C1          1.2989   52.0669   20.7627 C.3       1 UNK         0.0000 
      2 O2          0.8737   52.5088   22.0488 O.3       1 UNK         0.0000 
      3 C3          1.8016   53.0310   22.9316 C.ar      1 UNK         0.0000 
      4 C4          2.9988   53.5939   22.4809 C.ar      1 UNK         0.0000 
      5 C5          3.9401   54.0960   23.3628 C.ar      1 UNK         0.0000 
      6 C6          3.7133   54.0569   24.7524 C.ar      1 UNK         0.0000 
      7 C7          4.6918   54.5487   25.6515 C.ar      1 UNK         0.0000 
      8 C8          4.4841   54.4920   27.0235 C.ar      1 UNK         0.0000 
      9 C9          3.3156   53.9422   27.5305 C.ar      1 UNK         0.0000 
     10 C10         2.3363   53.4469   26.6754 C.ar      1 UNK         0.0000 
     11 C11         2.4953   53.4950   25.2534 C.ar      1 UNK         0.0000 
     12 C12         1.5177   53.0003   24.3127 C.ar      1 UNK         0.0000 
     13 C13         0.1960   52.3992   24.8449 C.3       1 UNK         0.0000 
     14 H14        -0.0074   52.8960   25.7902 H         1 UNK         0.0000 
     15 C15         0.2872   50.8717   25.1138 C.3       1 UNK         0.0000 
     16 H16         1.1041   50.7315   25.8223 H         1 UNK         0.0000 
     17 C17         0.5904   49.9666   23.9095 C.3       1 UNK         0.0000 
     18 C18        -0.1157   48.6782   24.2597 C.2       1 UNK         0.0000 
     19 C19        -0.9636   48.8508   25.2847 C.2       1 UNK         0.0000 
     20 C20        -0.9676   50.2859   25.7789 C.3       1 UNK         0.0000 
     21 H21        -0.8623   50.3197   26.8659 H         1 UNK         0.0000 
     22 C22        -2.2482   51.0477   25.4248 C.ar      1 UNK         0.0000 
     23 C23        -3.4821   50.6336   25.9395 C.ar      1 UNK         0.0000 
     24 C24        -4.6562   51.3425   25.6751 C.ar      1 UNK         0.0000 
     25 C25        -4.6090   52.4827   24.8740 C.ar      1 UNK         0.0000 
     26 C26        -3.3962   52.9018   24.3346 C.ar      1 UNK         0.0000 
     27 C27        -2.2265   52.1838   24.5865 C.ar      1 UNK         0.0000 
     28 N28        -1.0201   52.7092   24.0923 N.pl3     1 UNK         0.0000 
     29 S29        -6.2196   50.7987   26.3531 S.o2      1 UNK         0.0000 
     30 O30        -7.2646   51.2392   25.4233 O.2       1 UNK         0.0000 
     31 O31        -6.0937   49.3886   26.7367 O.2       1 UNK         0.0000 
     32 N32        -6.4616   51.7504   27.8293 N.pl3     1 UNK         0.0000 
     33 C33        -6.0823   51.3192   29.1079 C.ar      1 UNK         0.0000 
     34 C34        -6.8985   51.6687   30.1858 C.ar      1 UNK         0.0000 
     35 C35        -6.5683   51.2574   31.4752 C.ar      1 UNK         0.0000 
     36 C36        -5.4169   50.5022   31.6819 C.ar      1 UNK         0.0000 
     37 C37        -4.5896   50.1598   30.6168 C.ar      1 UNK         0.0000 
     38 C38        -4.9208   50.5723   29.3293 C.ar      1 UNK         0.0000 
     39 H39         0.4868   51.5127   20.2935 H         1 UNK         0.0000 
     40 H40         1.5483   52.8970   20.1040 H         1 UNK         0.0000 
     41 H41         2.1567   51.3963   20.8290 H         1 UNK         0.0000 
     42 H42         3.2166   53.6526   21.4255 H         1 UNK         0.0000 
     43 H43         4.8608   54.5163   22.9837 H         1 UNK         0.0000 
     44 H44         5.6089   54.9691   25.2637 H         1 UNK         0.0000 
     45 H45         5.2387   54.8683   27.6995 H         1 UNK         0.0000 
     46 H46         3.1712   53.8930   28.5997 H         1 UNK         0.0000 
     47 H47         1.4635   53.0076   27.1292 H         1 UNK         0.0000 
     48 H48         0.1929   50.3625   22.9763 H         1 UNK         0.0000 
     49 H49         1.6640   49.8212   23.7838 H         1 UNK         0.0000 
     50 H50         0.0649   47.7571   23.7275 H         1 UNK         0.0000 
     51 H51        -1.5890   48.0934   25.7356 H         1 UNK         0.0000 
     52 H52        -3.5134   49.7452   26.5552 H         1 UNK         0.0000 
     53 H53        -5.5097   53.0417   24.6627 H         1 UNK         0.0000 
     54 H54        -3.3691   53.7926   23.7235 H         1 UNK         0.0000 
     55 H55        -0.9977   53.6026   23.6249 H         1 UNK         0.0000 
     56 H56        -7.1921   52.4409   27.7679 H         1 UNK         0.0000 
     57 H57        -7.7989   52.2440   30.0277 H         1 UNK         0.0000 
     58 H58        -7.2035   51.5152   32.3109 H         1 UNK         0.0000 
     59 H59        -5.1527   50.1897   32.6826 H         1 UNK         0.0000 
     60 H60        -3.6955   49.5771   30.7862 H         1 UNK         0.0000 
     61 H61        -4.2677   50.2982   28.5189 H         1 UNK         0.0000 
@<TRIPOS>BOND
     1    1    2 1    
     2    1   39 1    
     3    1   40 1    
     4    1   41 1    
     5    2    3 1    
     6    3   12 ar   
     7    3    4 ar   
     8    4    5 ar   
     9    4   42 1    
    10    5    6 ar   
    11    5   43 1    
    12    6   11 ar   
    13    6    7 ar   
    14    7    8 ar   
    15    7   44 1    
    16    8    9 ar   
    17    8   45 1    
    18    9   10 ar   
    19    9   46 1    
    20   10   11 ar   
    21   10   47 1    
    22   11   12 ar   
    23   12   13 1    
    24   13   14 1    
    25   13   28 1    
    26   13   15 1    
    27   15   16 1    
    28   15   20 1    
    29   15   17 1    
    30   17   18 1    
    31   17   48 1    
    32   17   49 1    
    33   18   19 2    
    34   18   50 1    
    35   19   20 1    
    36   19   51 1    
    37   20   21 1    
    38   20   22 1    
    39   22   27 ar   
    40   22   23 ar   
    41   23   24 ar   
    42   23   52 1    
    43   24   25 ar   
    44   24   29 1    
    45   25   26 ar   
    46   25   53 1    
    47   26   27 ar   
    48   26   54 1    
    49   27   28 1    
    50   28   55 1    
    51   29   30 2    
    52   29   31 2    
    53   29   32 1    
    54   32   33 1    
    55   32   56 1    
    56   33   38 ar   
    57   33   34 ar   
    58   34   35 ar   
    59   34   57 1    
    60   35   36 ar   
    61   35   58 1    
    62   36   37 ar   
    63   36   59 1    
    64   37   38 ar   
    65   37   60 1    
    66   38   61 1    
@<TRIPOS>SUBSTRUCTURE
     1 UNK         1 GROUP             0       ****    0 ROOT    
