ZINC36072040_5965
                    3D
 Schrodinger Suite 2024-2.
 54 57  0  0  1  0            999 V2000
    2.6684   54.7300   27.9384 C   0  0  0  0  0  0
    1.7660   53.6964   27.2613 C   0  0  0  0  0  0
    0.8389   52.8943   27.8740 C   0  0  0  0  0  0
    0.0948   51.7954   27.0580 C   0  0  2  0  0  0
    0.3089   50.8416   27.5449 H   0  0  0  0  0  0
    0.7045   51.6814   25.7017 N   0  0  0  0  0  0
    0.4519   50.6532   24.8045 C   0  0  0  0  0  0
    0.9274   50.9423   23.5777 C   0  0  0  0  0  0
    1.7574   52.4987   23.4889 S   0  0  0  0  0  0
    1.5164   52.7106   25.2330 C   0  0  0  0  0  0
    1.9916   53.6837   25.9131 N   0  0  0  0  0  0
   -0.3293   49.4676   25.1443 C   0  0  0  0  0  0
   -0.9554   48.6039   24.3249 C   0  0  0  0  0  0
   -0.9878   48.5185   23.0420 O   0  5  0  0  0  0
   -1.7340   47.6177   24.8811 N   0  0  0  0  0  0
   -3.1732   47.5333   24.6447 C   0  0  0  0  0  0
   -3.8014   46.3139   25.2752 C   0  0  0  0  0  0
   -3.6102   45.6322   26.4695 C   0  0  0  0  0  0
   -4.5387   44.5920   26.4938 C   0  0  0  0  0  0
   -5.2948   44.7126   25.3424 C   0  0  0  0  0  0
   -4.8447   45.7574   24.6033 O   0  0  0  0  0  0
   -1.4419   51.8937   27.0084 C   0  0  0  0  0  0
   -2.1026   52.4973   25.9306 C   0  0  0  0  0  0
   -3.4926   52.5059   25.8684 C   0  0  0  0  0  0
   -4.2312   51.9008   26.8816 C   0  0  0  0  0  0
   -3.5878   51.2936   27.9579 C   0  0  0  0  0  0
   -2.1972   51.2968   28.0216 C   0  0  0  0  0  0
   -5.9554   51.9130   26.8084 Cl  0  0  0  0  0  0
    0.6193   52.8881   29.3073 C   0  0  0  0  0  0
   -0.4322   53.3394   29.7629 O   0  0  0  0  0  0
    1.5938   52.3538   30.0958 N   0  0  0  0  0  0
    1.4625   52.3265   31.5567 C   0  0  0  0  0  0
    2.8164   51.7161   29.5872 C   0  0  0  0  0  0
    3.6936   54.3635   27.9570 H   0  0  0  0  0  0
    2.6919   55.6775   27.4034 H   0  0  0  0  0  0
    2.3702   54.9426   28.9637 H   0  0  0  0  0  0
    0.8332   50.3261   22.6960 H   0  0  0  0  0  0
   -0.4403   49.2684   26.2011 H   0  0  0  0  0  0
   -1.5917   47.6285   25.8822 H   0  0  0  0  0  0
   -3.3680   47.5354   23.5704 H   0  0  0  0  0  0
   -3.6436   48.4261   25.0617 H   0  0  0  0  0  0
   -2.8769   45.8611   27.2317 H   0  0  0  0  0  0
   -4.6491   43.8538   27.2761 H   0  0  0  0  0  0
   -6.1302   44.1619   24.9351 H   0  0  0  0  0  0
   -1.5408   52.9537   25.1299 H   0  0  0  0  0  0
   -3.9942   52.9712   25.0334 H   0  0  0  0  0  0
   -4.1573   50.8160   28.7415 H   0  0  0  0  0  0
   -1.7064   50.8114   28.8532 H   0  0  0  0  0  0
    0.5298   52.7648   31.9172 H   0  0  0  0  0  0
    1.5068   51.3061   31.9379 H   0  0  0  0  0  0
    2.2795   52.8831   32.0080 H   0  0  0  0  0  0
    3.4331   52.4245   29.0375 H   0  0  0  0  0  0
    3.4400   51.3237   30.3905 H   0  0  0  0  0  0
    2.5674   50.8971   28.9102 H   0  0  0  0  0  0
  1  2  1  0  0  0
  1 34  1  0  0  0
  1 35  1  0  0  0
  1 36  1  0  0  0
  2 11  1  0  0  0
  2  3  2  0  0  0
  3  4  1  0  0  0
  3 29  1  0  0  0
  4  5  1  0  0  0
  4  6  1  0  0  0
  4 22  1  0  0  0
  6 10  1  0  0  0
  6  7  1  0  0  0
  7  8  2  0  0  0
  7 12  1  0  0  0
  8  9  1  0  0  0
  8 37  1  0  0  0
  9 10  1  0  0  0
 10 11  2  0  0  0
 12 13  2  0  0  0
 12 38  1  0  0  0
 13 14  1  0  0  0
 13 15  1  0  0  0
 15 16  1  0  0  0
 15 39  1  0  0  0
 16 17  1  0  0  0
 16 40  1  0  0  0
 16 41  1  0  0  0
 17 21  1  0  0  0
 17 18  2  0  0  0
 18 19  1  0  0  0
 18 42  1  0  0  0
 19 20  2  0  0  0
 19 43  1  0  0  0
 20 21  1  0  0  0
 20 44  1  0  0  0
 22 27  2  0  0  0
 22 23  1  0  0  0
 23 24  2  0  0  0
 23 45  1  0  0  0
 24 25  1  0  0  0
 24 46  1  0  0  0
 25 26  2  0  0  0
 25 28  1  0  0  0
 26 27  1  0  0  0
 26 47  1  0  0  0
 27 48  1  0  0  0
 29 30  2  0  0  0
 29 31  1  0  0  0
 31 32  1  0  0  0
 31 33  1  0  0  0
 32 49  1  0  0  0
 32 50  1  0  0  0
 32 51  1  0  0  0
 33 52  1  0  0  0
 33 53  1  0  0  0
 33 54  1  0  0  0
M  CHG  1  14  -1
M  END
> <i_i_glide_confnum>
91

> <i_i_glide_lignum>
5966

> <i_i_glide_posenum>
205

> <i_i_glide_rotatable_bonds>
7

> <i_m_Source_File_Index>
3143

> <b_m_subgroup_collapsed>
0

> <r_i_docking_score>
-3.6636

> <r_i_glide_ecoul>
-3.99428

> <r_i_glide_eff_state_penalty>
0

> <r_i_glide_einternal>
4.35755

> <r_i_glide_emodel>
-49.0094

> <r_i_glide_energy>
-40.4689

> <r_i_glide_erotb>
0.457323

> <r_i_glide_esite>
-0.0703592

> <r_i_glide_evdw>
-36.4746

> <r_i_glide_gscore>
-3.6636

> <r_i_glide_hbond>
0

> <r_i_glide_ligand_efficiency>
-0.114487

> <r_i_glide_ligand_efficiency_ln>
-0.820379

> <r_i_glide_ligand_efficiency_sa>
-0.363475

> <r_i_glide_lipo>
-0.930638

> <r_i_glide_metal>
0

> <r_i_glide_rewards>
-0.69705

> <s_i_glide_gridfile>
wee1_glide-grid

> <s_m_Source_File>
wee1_decoys_glide_SP.sdf

> <s_m_Source_Path>
/Users/zhangxujun/Desktop

> <s_m_entry_id>
3418

> <s_m_entry_name>
wee1_decoys_glide_SP.3143

> <s_m_subgroup_title>
wee1_decoys_glide_SP

> <s_m_subgroupid>
wee1_decoys_glide_SP


$$$$
