@<TRIPOS>MOLECULE
ZINC39665287_639
63   66    1
SMALL
USER_CHARGES


@<TRIPOS>ATOM
      1 C1          2.5500   49.7140   20.8349 C.3       1 UNK         0.0000 
      2 C2          1.6618   50.9698   20.7554 C.3       1 UNK         0.0000 
      3 H3          1.5272   51.2551   19.7110 H         1 UNK         0.0000 
      4 C4          0.2413   50.7171   21.3104 C.3       1 UNK         0.0000 
      5 N5          0.2012   50.5368   22.7674 N.am      1 UNK         0.0000 
      6 C6         -0.0831   51.5181   23.6376 C.2       1 UNK         0.0000 
      7 O7         -0.3525   52.6670   23.2820 O.2       1 UNK         0.0000 
      8 C8          0.0442   51.1717   25.1383 C.3       1 UNK         0.0000 
      9 H9          0.5761   50.2231   25.2480 H         1 UNK         0.0000 
     10 C10         0.9013   52.2772   25.7815 C.3       1 UNK         0.0000 
     11 N11         0.5129   52.2398   27.1905 N.am      1 UNK         0.0000 
     12 C12        -0.7329   51.4777   27.3778 C.3       1 UNK         0.0000 
     13 C13        -1.2765   51.1543   25.9583 C.3       1 UNK         0.0000 
     14 C14        -2.3358   52.2117   25.5052 C.3       1 UNK         0.0000 
     15 C15        -3.5860   52.2366   26.4134 C.3       1 UNK         0.0000 
     16 N16        -4.2067   50.8217   26.4544 N.4       1 UNK         0.0000 
     17 C17        -3.1972   49.7125   26.8186 C.3       1 UNK         0.0000 
     18 C18        -2.0157   49.7999   25.8341 C.3       1 UNK         0.0000 
     19 C19         1.2759   52.6354   28.2486 C.2       1 UNK         0.0000 
     20 O20         0.8671   52.5200   29.4060 O.2       1 UNK         0.0000 
     21 C21         2.6811   53.1746   28.0217 C.ar      1 UNK         0.0000 
     22 C22         2.9957   54.0255   26.9450 C.ar      1 UNK         0.0000 
     23 C23         4.3161   54.3980   26.6867 C.ar      1 UNK         0.0000 
     24 C24         5.3364   54.0032   27.5407 C.ar      1 UNK         0.0000 
     25 C25         5.0354   53.2126   28.6400 C.ar      1 UNK         0.0000 
     26 C26         3.7277   52.7925   28.8838 C.ar      1 UNK         0.0000 
     27 F27         3.5101   51.9817   29.9475 F         1 UNK         0.0000 
     28 Cl28        4.7126   55.2968   25.2780 Cl        1 UNK         0.0000 
     29 O29         2.2603   52.0494   21.4829 O.3       1 UNK         0.0000 
     30 C30         3.3424   52.7447   20.9779 C.ar      1 UNK         0.0000 
     31 C31         3.8903   53.7253   21.8084 C.ar      1 UNK         0.0000 
     32 C32         4.9707   54.4943   21.3818 C.ar      1 UNK         0.0000 
     33 C33         5.5045   54.2844   20.1148 C.ar      1 UNK         0.0000 
     34 C34         4.9812   53.3001   19.2797 C.ar      1 UNK         0.0000 
     35 C35         3.9025   52.5344   19.7086 C.ar      1 UNK         0.0000 
     36 H36         2.0832   48.8633   20.3376 H         1 UNK         0.0000 
     37 H37         3.5041   49.8864   20.3399 H         1 UNK         0.0000 
     38 H38         2.7546   49.4331   21.8703 H         1 UNK         0.0000 
     39 H39        -0.4041   51.5440   21.0081 H         1 UNK         0.0000 
     40 H40        -0.1857   49.8302   20.8431 H         1 UNK         0.0000 
     41 H41         0.4476   49.6264   23.1241 H         1 UNK         0.0000 
     42 H42         1.9568   52.0950   25.5814 H         1 UNK         0.0000 
     43 H43         0.5708   53.2515   25.4120 H         1 UNK         0.0000 
     44 H44        -1.4489   51.8923   28.0852 H         1 UNK         0.0000 
     45 H45        -0.4247   50.5245   27.8151 H         1 UNK         0.0000 
     46 H46        -1.8850   53.2050   25.5276 H         1 UNK         0.0000 
     47 H47        -2.6379   52.0588   24.4682 H         1 UNK         0.0000 
     48 H48        -3.3724   52.4961   27.4457 H         1 UNK         0.0000 
     49 H49        -4.3598   52.9070   26.0354 H         1 UNK         0.0000 
     50 H50        -4.9758   50.8014   27.1124 H         1 UNK         0.0000 
     51 H51        -2.9035   49.8878   27.8552 H         1 UNK         0.0000 
     52 H52        -3.7243   48.7597   26.7586 H         1 UNK         0.0000 
     53 H53        -2.3225   49.6035   24.8054 H         1 UNK         0.0000 
     54 H54        -1.3264   48.9888   26.0830 H         1 UNK         0.0000 
     55 H55         2.2351   54.3907   26.2745 H         1 UNK         0.0000 
     56 H56         6.3579   54.2936   27.3465 H         1 UNK         0.0000 
     57 H57         5.8397   52.8971   29.2810 H         1 UNK         0.0000 
     58 H58         3.4650   53.8931   22.7866 H         1 UNK         0.0000 
     59 H59         5.3923   55.2471   22.0290 H         1 UNK         0.0000 
     60 H60         6.3407   54.8797   19.7768 H         1 UNK         0.0000 
     61 H61         5.4076   53.1228   18.3024 H         1 UNK         0.0000 
     62 H62         3.5226   51.7850   19.0312 H         1 UNK         0.0000 
     63 H63        -4.5994   50.6084   25.5468 H         1 UNK         0.0000 
@<TRIPOS>BOND
     1    1    2 1    
     2    1   36 1    
     3    1   37 1    
     4    1   38 1    
     5    2    3 1    
     6    2    4 1    
     7    2   29 1    
     8    4    5 1    
     9    4   39 1    
    10    4   40 1    
    11    5    6 am   BACKBONE|DICT|INTERRES
    12    5   41 1    
    13    6    7 2    
    14    6    8 1    
    15    8    9 1    
    16    8   13 1    
    17    8   10 1    
    18   10   11 1    
    19   10   42 1    
    20   10   43 1    
    21   11   12 1    
    22   11   19 am   BACKBONE|DICT|INTERRES
    23   12   13 1    
    24   12   44 1    
    25   12   45 1    
    26   13   18 1    
    27   13   14 1    
    28   14   15 1    
    29   14   46 1    
    30   14   47 1    
    31   15   16 1    
    32   15   48 1    
    33   15   49 1    
    34   16   17 1    
    35   16   50 1    
    36   16   63 1    
    37   17   18 1    
    38   17   51 1    
    39   17   52 1    
    40   18   53 1    
    41   18   54 1    
    42   19   20 2    
    43   19   21 1    
    44   21   26 ar   
    45   21   22 ar   
    46   22   23 ar   
    47   22   55 1    
    48   23   24 ar   
    49   23   28 1    
    50   24   25 ar   
    51   24   56 1    
    52   25   26 ar   
    53   25   57 1    
    54   26   27 1    
    55   29   30 1    
    56   30   35 ar   
    57   30   31 ar   
    58   31   32 ar   
    59   31   58 1    
    60   32   33 ar   
    61   32   59 1    
    62   33   34 ar   
    63   33   60 1    
    64   34   35 ar   
    65   34   61 1    
    66   35   62 1    
@<TRIPOS>SUBSTRUCTURE
     1 UNK         1 GROUP             0       ****    0 ROOT    
