@<TRIPOS>MOLECULE
ZINC65638345_6221
58   59    1
SMALL
USER_CHARGES


@<TRIPOS>ATOM
      1 C1         -0.5248   51.7424   27.4639 C.3       1 UNK         0.0000 
      2 C2         -0.5536   51.7915   29.0013 C.3       1 UNK         0.0000 
      3 C3          0.0869   53.0525   29.6222 C.3       1 UNK         0.0000 
      4 C4          1.6161   53.0858   29.4979 C.2       1 UNK         0.0000 
      5 O5          2.3037   52.5811   30.3872 O.2       1 UNK         0.0000 
      6 N6          2.1021   53.6752   28.3847 N.am      1 UNK         0.0000 
      7 C7          3.4474   53.8530   28.0103 C.ar      1 UNK         0.0000 
      8 C8          4.5059   53.9111   28.9277 C.ar      1 UNK         0.0000 
      9 C9          5.8165   54.0713   28.4819 C.ar      1 UNK         0.0000 
     10 C10         6.0820   54.1917   27.1243 C.ar      1 UNK         0.0000 
     11 C11         5.0327   54.1809   26.1946 C.ar      1 UNK         0.0000 
     12 C12         3.7189   54.0048   26.6455 C.ar      1 UNK         0.0000 
     13 N13         5.2373   54.2850   24.8083 N.am      1 UNK         0.0000 
     14 C14         6.2702   54.8966   24.1753 C.2       1 UNK         0.0000 
     15 O15         7.1044   55.5855   24.7658 O.2       1 UNK         0.0000 
     16 C16         6.3030   54.7551   22.6779 C.2       1 UNK         0.0000 
     17 O17         7.0069   55.4948   21.9868 O.2       1 UNK         0.0000 
     18 N18         5.5067   53.7972   22.1404 N.am      1 UNK         0.0000 
     19 C19         5.3135   53.5599   20.7011 C.3       1 UNK         0.0000 
     20 C20         3.8291   53.5176   20.2649 C.3       1 UNK         0.0000 
     21 C21         3.6276   52.8645   18.8852 C.3       1 UNK         0.0000 
     22 C22         2.7762   51.6066   19.0810 C.3       1 UNK         0.0000 
     23 N23         2.8550   51.3067   20.5924 N.4       1 UNK         0.0000 
     24 C24         2.8939   52.7232   21.2001 C.3       1 UNK         0.0000 
     25 C25         1.7479   50.3742   21.1472 C.3       1 UNK         0.0000 
     26 C26         1.7497   49.0439   20.3674 C.3       1 UNK         0.0000 
     27 C27         1.9790   50.1294   22.6523 C.3       1 UNK         0.0000 
     28 H28        -1.0309   50.8467   27.0982 H         1 UNK         0.0000 
     29 H29        -1.0312   52.6045   27.0276 H         1 UNK         0.0000 
     30 H30         0.4935   51.7174   27.0777 H         1 UNK         0.0000 
     31 H31        -0.0732   50.8967   29.3944 H         1 UNK         0.0000 
     32 H32        -1.5924   51.7214   29.3283 H         1 UNK         0.0000 
     33 H33        -0.1473   53.0728   30.6894 H         1 UNK         0.0000 
     34 H34        -0.3561   53.9580   29.2047 H         1 UNK         0.0000 
     35 H35         1.4206   53.9453   27.6938 H         1 UNK         0.0000 
     36 H36         4.3339   53.8292   29.9899 H         1 UNK         0.0000 
     37 H37         6.6332   54.0998   29.1872 H         1 UNK         0.0000 
     38 H38         7.1113   54.2824   26.8129 H         1 UNK         0.0000 
     39 H39         2.9073   53.9727   25.9337 H         1 UNK         0.0000 
     40 H40         4.5114   53.8806   24.2452 H         1 UNK         0.0000 
     41 H41         5.0201   53.1672   22.7531 H         1 UNK         0.0000 
     42 H42         5.8094   52.6351   20.4035 H         1 UNK         0.0000 
     43 H43         5.8106   54.3383   20.1161 H         1 UNK         0.0000 
     44 H44         3.5050   54.5574   20.2123 H         1 UNK         0.0000 
     45 H45         4.5648   52.6440   18.3697 H         1 UNK         0.0000 
     46 H46         3.0768   53.5422   18.2289 H         1 UNK         0.0000 
     47 H47         3.1040   50.7337   18.5138 H         1 UNK         0.0000 
     48 H48         1.7207   51.7855   18.8595 H         1 UNK         0.0000 
     49 H49         1.8694   53.1024   21.1989 H         1 UNK         0.0000 
     50 H50         3.2012   52.6467   22.2410 H         1 UNK         0.0000 
     51 H51         0.8094   50.9117   20.9818 H         1 UNK         0.0000 
     52 H52         0.9765   48.3709   20.7409 H         1 UNK         0.0000 
     53 H53         2.7038   48.5232   20.4582 H         1 UNK         0.0000 
     54 H54         1.5512   49.1846   19.3041 H         1 UNK         0.0000 
     55 H55         1.2384   49.4352   23.0536 H         1 UNK         0.0000 
     56 H56         2.9598   49.6933   22.8479 H         1 UNK         0.0000 
     57 H57         1.8953   51.0415   23.2409 H         1 UNK         0.0000 
     58 H58         3.7376   50.8506   20.7667 H         1 UNK         0.0000 
@<TRIPOS>BOND
     1    1    2 1    
     2    1   28 1    
     3    1   29 1    
     4    1   30 1    
     5    2    3 1    
     6    2   31 1    
     7    2   32 1    
     8    3    4 1    
     9    3   33 1    
    10    3   34 1    
    11    4    5 2    
    12    4    6 am   BACKBONE|DICT|INTERRES
    13    6    7 1    
    14    6   35 1    
    15    7   12 ar   
    16    7    8 ar   
    17    8    9 ar   
    18    8   36 1    
    19    9   10 ar   
    20    9   37 1    
    21   10   11 ar   
    22   10   38 1    
    23   11   12 ar   
    24   11   13 1    
    25   12   39 1    
    26   13   14 am   BACKBONE|DICT|INTERRES
    27   13   40 1    
    28   14   15 2    
    29   14   16 1    
    30   16   17 2    
    31   16   18 am   BACKBONE|DICT|INTERRES
    32   18   19 1    
    33   18   41 1    
    34   19   20 1    
    35   19   42 1    
    36   19   43 1    
    37   20   24 1    
    38   20   21 1    
    39   20   44 1    
    40   21   22 1    
    41   21   45 1    
    42   21   46 1    
    43   22   23 1    
    44   22   47 1    
    45   22   48 1    
    46   23   24 1    
    47   23   25 1    
    48   23   58 1    
    49   24   49 1    
    50   24   50 1    
    51   25   26 1    
    52   25   27 1    
    53   25   51 1    
    54   26   52 1    
    55   26   53 1    
    56   26   54 1    
    57   27   55 1    
    58   27   56 1    
    59   27   57 1    
@<TRIPOS>SUBSTRUCTURE
     1 UNK         1 GROUP             0       ****    0 ROOT    
