ZINC37276542_5208
                    3D
 Schrodinger Suite 2024-2.
 61 64  0  0  1  0            999 V2000
   -1.4403   51.3012   29.1094 C   0  0  0  0  0  0
   -0.9796   51.8047   27.7416 C   0  0  1  0  0  0
   -1.7403   52.4980   27.3788 H   0  0  0  0  0  0
    0.3233   52.6045   27.8914 C   0  0  0  0  0  0
    0.3351   53.7605   28.6830 C   0  0  0  0  0  0
    1.5079   54.4885   28.8640 C   0  0  0  0  0  0
    2.6841   54.0521   28.2629 C   0  0  0  0  0  0
    2.6881   52.9020   27.4795 C   0  0  0  0  0  0
    1.5063   52.1891   27.2852 C   0  0  0  0  0  0
   -1.0077   50.6800   26.7999 N   0  0  0  0  0  0
   -1.0449   50.7672   25.4570 C   0  0  0  0  0  0
   -0.8139   51.8239   24.8732 O   0  0  0  0  0  0
   -1.5025   49.5167   24.7226 C   0  0  0  0  0  0
   -2.4313   48.6690   25.3611 C   0  0  0  0  0  0
   -2.9386   47.5332   24.7378 C   0  0  0  0  0  0
   -2.5454   47.2207   23.4446 C   0  0  0  0  0  0
   -1.6430   48.0466   22.7838 C   0  0  0  0  0  0
   -1.1148   49.1937   23.3928 C   0  0  0  0  0  0
   -0.1941   49.8768   22.6111 N   0  0  0  0  0  0
    1.2404   49.7022   22.8671 C   0  0  0  0  0  0
    2.0418   49.8216   21.5513 C   0  0  0  0  0  0
    1.8341   51.1797   20.8559 C   0  0  0  0  0  0
    0.3157   51.3204   20.6387 C   0  0  0  0  0  0
   -0.5062   51.1473   21.9347 C   0  0  0  0  0  0
    2.3780   52.2415   21.7064 N   0  0  0  0  0  0
    3.3738   53.0721   21.3572 C   0  0  0  0  0  0
    3.7672   53.1979   20.1969 O   0  0  0  0  0  0
    4.1100   53.7349   22.4954 C   0  0  0  0  0  0
    5.4630   54.0355   22.3195 C   0  0  0  0  0  0
    6.2344   54.5002   23.3787 C   0  0  0  0  0  0
    5.6350   54.7118   24.6157 C   0  0  0  0  0  0
    4.2692   54.4981   24.7879 C   0  0  0  0  0  0
    3.5042   54.0016   23.7336 C   0  0  0  0  0  0
    6.6965   55.2919   26.0794 Br  0  0  0  0  0  0
   -1.6955   52.1323   29.7479 H   0  0  0  0  0  0
   -2.3153   50.6521   29.0527 H   0  0  0  0  0  0
   -0.6393   50.7722   29.6179 H   0  0  0  0  0  0
   -0.5627   54.0985   29.1746 H   0  0  0  0  0  0
    1.5061   55.3803   29.4726 H   0  0  0  0  0  0
    3.6002   54.6074   28.4047 H   0  0  0  0  0  0
    3.6055   52.5658   27.0208 H   0  0  0  0  0  0
    1.5046   51.3009   26.6774 H   0  0  0  0  0  0
   -1.1945   49.7734   27.2242 H   0  0  0  0  0  0
   -2.7762   48.8752   26.3662 H   0  0  0  0  0  0
   -3.6445   46.9050   25.2596 H   0  0  0  0  0  0
   -2.9410   46.3456   22.9503 H   0  0  0  0  0  0
   -1.3448   47.7856   21.7781 H   0  0  0  0  0  0
    1.5721   50.4216   23.6172 H   0  0  0  0  0  0
    1.4127   48.7085   23.2804 H   0  0  0  0  0  0
    3.1017   49.6903   21.7703 H   0  0  0  0  0  0
    1.7963   48.9927   20.8855 H   0  0  0  0  0  0
    2.3426   51.1583   19.8877 H   0  0  0  0  0  0
   -0.0389   50.6233   19.8781 H   0  0  0  0  0  0
    0.1111   52.3054   20.2175 H   0  0  0  0  0  0
   -1.5664   51.1536   21.6795 H   0  0  0  0  0  0
   -0.3282   51.9968   22.5893 H   0  0  0  0  0  0
    2.0232   52.2787   22.6485 H   0  0  0  0  0  0
    5.9095   53.8661   21.3530 H   0  0  0  0  0  0
    7.2901   54.6879   23.2436 H   0  0  0  0  0  0
    3.8085   54.6985   25.7418 H   0  0  0  0  0  0
    2.4536   53.8081   23.8986 H   0  0  0  0  0  0
  1  2  1  0  0  0
  1 35  1  0  0  0
  1 36  1  0  0  0
  1 37  1  0  0  0
  2  3  1  0  0  0
  2  4  1  0  0  0
  2 10  1  0  0  0
  4  9  2  0  0  0
  4  5  1  0  0  0
  5  6  2  0  0  0
  5 38  1  0  0  0
  6  7  1  0  0  0
  6 39  1  0  0  0
  7  8  2  0  0  0
  7 40  1  0  0  0
  8  9  1  0  0  0
  8 41  1  0  0  0
  9 42  1  0  0  0
 10 11  1  0  0  0
 10 43  1  0  0  0
 11 12  2  0  0  0
 11 13  1  0  0  0
 13 18  2  0  0  0
 13 14  1  0  0  0
 14 15  2  0  0  0
 14 44  1  0  0  0
 15 16  1  0  0  0
 15 45  1  0  0  0
 16 17  2  0  0  0
 16 46  1  0  0  0
 17 18  1  0  0  0
 17 47  1  0  0  0
 18 19  1  0  0  0
 19 24  1  0  0  0
 19 20  1  0  0  0
 20 21  1  0  0  0
 20 48  1  0  0  0
 20 49  1  0  0  0
 21 22  1  0  0  0
 21 50  1  0  0  0
 21 51  1  0  0  0
 22 23  1  0  0  0
 22 25  1  0  0  0
 22 52  1  0  0  0
 23 24  1  0  0  0
 23 53  1  0  0  0
 23 54  1  0  0  0
 24 55  1  0  0  0
 24 56  1  0  0  0
 25 26  1  0  0  0
 25 57  1  0  0  0
 26 27  2  0  0  0
 26 28  1  0  0  0
 28 33  2  0  0  0
 28 29  1  0  0  0
 29 30  2  0  0  0
 29 58  1  0  0  0
 30 31  1  0  0  0
 30 59  1  0  0  0
 31 32  2  0  0  0
 31 34  1  0  0  0
 32 33  1  0  0  0
 32 60  1  0  0  0
 33 61  1  0  0  0
M  END
> <i_i_glide_confnum>
8

> <i_i_glide_lignum>
5209

> <i_i_glide_posenum>
97

> <i_i_glide_rotatable_bonds>
8

> <i_m_Source_File_Index>
2420

> <b_m_subgroup_collapsed>
0

> <r_i_docking_score>
-5.33914

> <r_i_glide_ecoul>
-3.33424

> <r_i_glide_eff_state_penalty>
0

> <r_i_glide_einternal>
5.92995

> <r_i_glide_emodel>
-56.9053

> <r_i_glide_energy>
-44.3648

> <r_i_glide_erotb>
0.558416

> <r_i_glide_esite>
-0.12351

> <r_i_glide_evdw>
-41.0305

> <r_i_glide_gscore>
-5.33914

> <r_i_glide_hbond>
-0.16

> <r_i_glide_ligand_efficiency>
-0.161792

> <r_i_glide_ligand_efficiency_ln>
-1.1874

> <r_i_glide_ligand_efficiency_sa>
-0.518954

> <r_i_glide_lipo>
-2.94041

> <r_i_glide_metal>
0

> <r_i_glide_rewards>
-0.121968

> <s_i_glide_gridfile>
wee1_glide-grid

> <s_m_Source_File>
wee1_decoys_glide_SP.sdf

> <s_m_Source_Path>
/Users/zhangxujun/Desktop

> <s_m_entry_id>
2695

> <s_m_entry_name>
wee1_decoys_glide_SP.2420

> <s_m_subgroup_title>
wee1_decoys_glide_SP

> <s_m_subgroupid>
wee1_decoys_glide_SP


$$$$
