@<TRIPOS>MOLECULE
ZINC12533004_2708
54   59    1
SMALL
USER_CHARGES


@<TRIPOS>ATOM
      1 C1          3.9256   56.7862   14.7227 C.3       1 UNK         0.0000 
      2 C2          4.0147   56.2810   16.1749 C.3       1 UNK         0.0000 
      3 H3          3.2151   56.7784   16.7297 H         1 UNK         0.0000 
      4 C4          3.8493   54.7485   16.2483 C.3       1 UNK         0.0000 
      5 C5          3.7111   54.2441   17.7008 C.3       1 UNK         0.0000 
      6 C6          4.7681   54.9138   18.5830 C.2       1 UNK         0.0000 
      7 C7          5.5026   56.0279   18.1654 C.2       1 UNK         0.0000 
      8 S8          6.6708   56.5878   19.3399 S.3       1 UNK         0.0000 
      9 C9          6.1098   55.3874   20.4790 C.ar      1 UNK         0.0000 
     10 C10         5.0896   54.5508   19.9331 C.ar      1 UNK         0.0000 
     11 C11         4.5943   53.5613   20.8207 C.ar      1 UNK         0.0000 
     12 N12         5.0432   53.4626   22.0954 N.ar      1 UNK         0.0000 
     13 C13         6.0114   54.3311   22.4734 C.ar      1 UNK         0.0000 
     14 N14         6.5948   55.2974   21.7196 N.ar      1 UNK         0.0000 
     15 C15         6.4892   54.2278   23.9044 C.3       1 UNK         0.0000 
     16 S16         5.9215   55.6273   24.9085 S.3       1 UNK         0.0000 
     17 C17         4.6894   54.7621   25.8285 C.ar      1 UNK         0.0000 
     18 N18         3.5039   54.4891   25.3530 N.2       1 UNK         0.0000 
     19 N19         2.8015   53.8412   26.3578 N.2       1 UNK         0.0000 
     20 C20         3.5758   53.7472   27.4165 C.ar      1 UNK         0.0000 
     21 N21         4.8222   54.2932   27.1223 N.pl3     1 UNK         0.0000 
     22 C22         5.9957   54.4750   27.9786 C.3       1 UNK         0.0000 
     23 C23         6.8773   53.2971   28.3323 C.3       1 UNK         0.0000 
     24 C24         7.3788   54.2831   27.3621 C.3       1 UNK         0.0000 
     25 C25         3.0707   53.1772   28.7237 C.ar      1 UNK         0.0000 
     26 C26         1.6922   53.2010   29.0029 C.ar      1 UNK         0.0000 
     27 C27         1.2200   52.6746   30.2082 C.ar      1 UNK         0.0000 
     28 N28         2.0371   52.1371   31.1476 N.ar      1 UNK         0.0000 
     29 C29         3.3647   52.1123   30.8800 C.ar      1 UNK         0.0000 
     30 C30         3.9037   52.5977   29.6892 C.ar      1 UNK         0.0000 
     31 N31         3.6171   52.6407   20.4477 N.pl3     1 UNK         0.0000 
     32 C32         5.3732   56.6861   16.7967 C.3       1 UNK         0.0000 
     33 H33         4.6966   56.3381   14.0944 H         1 UNK         0.0000 
     34 H34         2.9576   56.5469   14.2809 H         1 UNK         0.0000 
     35 H35         4.0425   57.8704   14.6754 H         1 UNK         0.0000 
     36 H36         4.6672   54.2499   15.7239 H         1 UNK         0.0000 
     37 H37         2.9583   54.4508   15.6953 H         1 UNK         0.0000 
     38 H38         2.7127   54.4625   18.0810 H         1 UNK         0.0000 
     39 H39         3.8201   53.1588   17.7058 H         1 UNK         0.0000 
     40 H40         6.1582   53.2962   24.3513 H         1 UNK         0.0000 
     41 H41         7.5744   54.1795   23.9156 H         1 UNK         0.0000 
     42 H42         5.8706   55.2745   28.7096 H         1 UNK         0.0000 
     43 H43         7.3953   53.2969   29.2815 H         1 UNK         0.0000 
     44 H44         6.6035   52.3029   27.9884 H         1 UNK         0.0000 
     45 H45         7.5043   53.9232   26.3475 H         1 UNK         0.0000 
     46 H46         8.2019   54.9010   27.6902 H         1 UNK         0.0000 
     47 H47         0.9926   53.6237   28.2964 H         1 UNK         0.0000 
     48 H48         0.1640   52.6777   30.4429 H         1 UNK         0.0000 
     49 H49         4.0032   51.6942   31.6432 H         1 UNK         0.0000 
     50 H50         4.9551   52.4934   29.5369 H         1 UNK         0.0000 
     51 H51         3.2632   52.6500   19.5007 H         1 UNK         0.0000 
     52 H52         3.2971   51.9583   21.1173 H         1 UNK         0.0000 
     53 H53         6.1931   56.3545   16.1591 H         1 UNK         0.0000 
     54 H54         5.4466   57.7721   16.8746 H         1 UNK         0.0000 
@<TRIPOS>BOND
     1    1    2 1    
     2    1   33 1    
     3    1   34 1    
     4    1   35 1    
     5    2    3 1    
     6    2   32 1    
     7    2    4 1    
     8    4    5 1    
     9    4   36 1    
    10    4   37 1    
    11    5    6 1    
    12    5   38 1    
    13    5   39 1    
    14    6   10 1    
    15    6    7 2    
    16    7    8 1    
    17    7   32 1    
    18    8    9 1    
    19    9   14 ar   
    20    9   10 ar   
    21   10   11 ar   
    22   11   12 ar   
    23   11   31 1    
    24   12   13 ar   
    25   13   14 ar   
    26   13   15 1    
    27   15   16 1    
    28   15   40 1    
    29   15   41 1    
    30   16   17 1    
    31   17   21 ar   
    32   17   18 ar   
    33   18   19 ar   
    34   19   20 ar   
    35   20   21 ar   
    36   20   25 1    
    37   21   22 1    
    38   22   24 1    
    39   22   23 1    
    40   22   42 1    
    41   23   24 1    
    42   23   43 1    
    43   23   44 1    
    44   24   45 1    
    45   24   46 1    
    46   25   30 ar   
    47   25   26 ar   
    48   26   27 ar   
    49   26   47 1    
    50   27   28 ar   
    51   27   48 1    
    52   28   29 ar   
    53   29   30 ar   
    54   29   49 1    
    55   30   50 1    
    56   31   51 1    
    57   31   52 1    
    58   32   53 1    
    59   32   54 1    
@<TRIPOS>SUBSTRUCTURE
     1 UNK         1 GROUP             0       ****    0 ROOT    
