@<TRIPOS>MOLECULE
ZINC36899622_3879
27   29    1
SMALL
USER_CHARGES


@<TRIPOS>ATOM
      1 C1          3.5969   54.0955   23.0381 C.ar      1 UNK         0.0000 
      2 C2          3.1267   54.0983   24.3532 C.ar      1 UNK         0.0000 
      3 C3          4.0843   54.2122   25.3745 C.ar      1 UNK         0.0000 
      4 C4          5.4677   54.3641   25.0749 C.ar      1 UNK         0.0000 
      5 C5          5.9070   54.3574   23.7445 C.ar      1 UNK         0.0000 
      6 C6          4.9535   54.2103   22.7373 C.ar      1 UNK         0.0000 
      7 Br7         5.5038   54.2192   20.9181 Br        1 UNK         0.0000 
      8 N8          6.2132   54.5041   26.2084 N.2       1 UNK         0.0000 
      9 C9          5.3450   54.3986   27.1755 C.ar      1 UNK         0.0000 
     10 N10         4.0232   54.2278   26.7658 N.pl3     1 UNK         0.0000 
     11 C11         2.8724   54.0772   27.5962 C.ar      1 UNK         0.0000 
     12 C12         2.6993   54.9303   28.6969 C.ar      1 UNK         0.0000 
     13 C13         1.5853   54.8103   29.5267 C.ar      1 UNK         0.0000 
     14 C14         0.6259   53.8358   29.2646 C.ar      1 UNK         0.0000 
     15 C15         0.7643   52.9995   28.1595 C.ar      1 UNK         0.0000 
     16 C16         1.8755   53.1212   27.3225 C.ar      1 UNK         0.0000 
     17 F17         1.9743   52.2815   26.2684 F         1 UNK         0.0000 
     18 F18        -0.1824   52.0666   27.8983 F         1 UNK         0.0000 
     19 F19        -0.4401   53.7028   30.0828 F         1 UNK         0.0000 
     20 N20         5.7299   54.4414   28.4821 N.pl3     1 UNK         0.0000 
     21 H21         2.8905   54.0097   22.2241 H         1 UNK         0.0000 
     22 H22         2.0697   54.0149   24.5575 H         1 UNK         0.0000 
     23 H23         6.9553   54.4632   23.5054 H         1 UNK         0.0000 
     24 H24         3.4247   55.6966   28.9199 H         1 UNK         0.0000 
     25 H25         1.4628   55.4722   30.3717 H         1 UNK         0.0000 
     26 H26         6.6360   54.8093   28.7533 H         1 UNK         0.0000 
     27 H27         5.1096   54.1573   29.2254 H         1 UNK         0.0000 
@<TRIPOS>BOND
     1    1    6 ar   
     2    1    2 ar   
     3    1   21 1    
     4    2    3 ar   
     5    2   22 1    
     6    3   10 ar   
     7    3    4 ar   
     8    4    5 ar   
     9    4    8 ar   
    10    5    6 ar   
    11    5   23 1    
    12    6    7 1    
    13    8    9 ar   
    14    9   10 ar   
    15    9   20 1    
    16   10   11 1    
    17   11   16 ar   
    18   11   12 ar   
    19   12   13 ar   
    20   12   24 1    
    21   13   14 ar   
    22   13   25 1    
    23   14   15 ar   
    24   14   19 1    
    25   15   16 ar   
    26   15   18 1    
    27   16   17 1    
    28   20   26 1    
    29   20   27 1    
@<TRIPOS>SUBSTRUCTURE
     1 UNK         1 GROUP             0       ****    0 ROOT    
