@<TRIPOS>MOLECULE
ZINC39560852_742
64   69    1
SMALL
USER_CHARGES


@<TRIPOS>ATOM
      1 C1         -4.3193   53.6880   24.9634 C.3       1 UNK         0.0000 
      2 O2         -3.3819   52.7038   25.3713 O.3       1 UNK         0.0000 
      3 C3         -2.3495   52.3633   24.5671 C.2       1 UNK         0.0000 
      4 O4         -2.1129   52.8778   23.4668 O.2       1 UNK         0.0000 
      5 C5         -1.5048   51.1946   25.1665 C.3       1 UNK         0.0000 
      6 H6         -2.2290   50.3928   25.3036 H         1 UNK         0.0000 
      7 C7         -0.9529   51.4901   26.5921 C.3       1 UNK         0.0000 
      8 C8          0.3208   52.3201   26.5538 C.2       1 UNK         0.0000 
      9 C9          0.9491   53.0723   27.4594 C.2       1 UNK         0.0000 
     10 C10         0.6093   53.3830   28.9249 C.3       1 UNK         0.0000 
     11 C11         1.6360   54.3688   29.5029 C.2       1 UNK         0.0000 
     12 C12         2.6913   54.8425   28.8088 C.2       1 UNK         0.0000 
     13 C13         2.9304   54.4567   27.4275 C.2       1 UNK         0.0000 
     14 C14         2.0882   53.6294   26.7754 C.2       1 UNK         0.0000 
     15 N15         2.1228   53.2155   25.4929 N.2       1 UNK         0.0000 
     16 C16         1.1044   52.4521   25.3564 C.2       1 UNK         0.0000 
     17 C17         0.6862   51.7119   24.0568 C.3       1 UNK         0.0000 
     18 H18         0.3001   52.4768   23.3817 H         1 UNK         0.0000 
     19 N19        -0.3891   50.7069   24.2996 N.3       1 UNK         0.0000 
     20 C20        -0.8021   49.9243   23.1121 C.3       1 UNK         0.0000 
     21 H21        -1.2753   50.6146   22.4136 H         1 UNK         0.0000 
     22 C22         0.4217   49.2771   22.4115 C.3       1 UNK         0.0000 
     23 C23         1.5833   50.2392   22.0920 C.3       1 UNK         0.0000 
     24 H24         2.4399   49.6981   21.6781 H         1 UNK         0.0000 
     25 C25         1.9048   51.0416   23.3686 C.3       1 UNK         0.0000 
     26 N26         1.0683   51.2071   21.0059 N.4       1 UNK         0.0000 
     27 C27         2.1465   52.1040   20.3762 C.3       1 UNK         0.0000 
     28 C28         3.0683   51.5303   19.3189 C.3       1 UNK         0.0000 
     29 C29         1.9877   52.5093   18.9307 C.3       1 UNK         0.0000 
     30 C30        -1.8328   48.8290   23.4088 C.ar      1 UNK         0.0000 
     31 C31        -2.9640   48.7032   22.5978 C.ar      1 UNK         0.0000 
     32 C32        -3.9154   47.7240   22.8735 C.ar      1 UNK         0.0000 
     33 C33        -3.7440   46.8608   23.9608 C.ar      1 UNK         0.0000 
     34 C34        -2.6102   46.9842   24.7738 C.ar      1 UNK         0.0000 
     35 C35        -1.6551   47.9557   24.4882 C.ar      1 UNK         0.0000 
     36 C36        -4.8049   45.7993   24.2417 C.3       1 UNK         0.0000 
     37 F37        -4.5879   45.1632   25.3964 F         1 UNK         0.0000 
     38 F38        -6.0193   46.3527   24.2856 F         1 UNK         0.0000 
     39 F39        -4.7788   44.8948   23.2608 F         1 UNK         0.0000 
     40 H40        -5.0472   53.8572   25.7569 H         1 UNK         0.0000 
     41 H41        -3.8329   54.6411   24.7375 H         1 UNK         0.0000 
     42 H42        -4.8615   53.3619   24.0734 H         1 UNK         0.0000 
     43 H43        -0.7349   50.5309   27.0668 H         1 UNK         0.0000 
     44 H44        -1.7102   51.9513   27.2292 H         1 UNK         0.0000 
     45 H45         0.6200   52.4647   29.5117 H         1 UNK         0.0000 
     46 H46        -0.3917   53.8118   28.9930 H         1 UNK         0.0000 
     47 H47         1.5022   54.7086   30.5198 H         1 UNK         0.0000 
     48 H48         3.3683   55.5431   29.2793 H         1 UNK         0.0000 
     49 H49         3.7770   54.8785   26.9041 H         1 UNK         0.0000 
     50 H50         0.8052   48.4969   23.0698 H         1 UNK         0.0000 
     51 H51         0.0741   48.7940   21.4946 H         1 UNK         0.0000 
     52 H52         2.6522   51.8045   23.1514 H         1 UNK         0.0000 
     53 H53         2.3187   50.3358   24.0812 H         1 UNK         0.0000 
     54 H54         0.6256   50.6540   20.2859 H         1 UNK         0.0000 
     55 H55         2.5266   52.8286   21.1017 H         1 UNK         0.0000 
     56 H56         4.1071   51.8665   19.2818 H         1 UNK         0.0000 
     57 H57         2.9715   50.4871   19.0139 H         1 UNK         0.0000 
     58 H58         1.1280   52.1498   18.3618 H         1 UNK         0.0000 
     59 H59         2.2815   53.5196   18.6324 H         1 UNK         0.0000 
     60 H60        -3.1160   49.3628   21.7566 H         1 UNK         0.0000 
     61 H61        -4.7888   47.6381   22.2414 H         1 UNK         0.0000 
     62 H62        -2.4606   46.3475   25.6335 H         1 UNK         0.0000 
     63 H63        -0.7888   48.0518   25.1293 H         1 UNK         0.0000 
     64 H64         0.3367   51.7827   21.3972 H         1 UNK         0.0000 
@<TRIPOS>BOND
     1    1    2 1    
     2    1   40 1    
     3    1   41 1    
     4    1   42 1    
     5    2    3 1    
     6    3    4 2    
     7    3    5 1    
     8    5    6 1    
     9    5   19 1    
    10    5    7 1    
    11    7    8 1    
    12    7   43 1    
    13    7   44 1    
    14    8   16 1    
    15    8    9 2    
    16    9   14 1    
    17    9   10 1    
    18   10   11 1    
    19   10   45 1    
    20   10   46 1    
    21   11   12 2    
    22   11   47 1    
    23   12   13 1    
    24   12   48 1    
    25   13   14 2    
    26   13   49 1    
    27   14   15 1    
    28   15   16 2    
    29   16   17 1    
    30   17   18 1    
    31   17   25 1    
    32   17   19 1    
    33   19   20 1    
    34   20   21 1    
    35   20   22 1    
    36   20   30 1    
    37   22   23 1    
    38   22   50 1    
    39   22   51 1    
    40   23   24 1    
    41   23   25 1    
    42   23   26 1    
    43   25   52 1    
    44   25   53 1    
    45   26   27 1    
    46   26   54 1    
    47   26   64 1    
    48   27   29 1    
    49   27   28 1    
    50   27   55 1    
    51   28   29 1    
    52   28   56 1    
    53   28   57 1    
    54   29   58 1    
    55   29   59 1    
    56   30   35 ar   
    57   30   31 ar   
    58   31   32 ar   
    59   31   60 1    
    60   32   33 ar   
    61   32   61 1    
    62   33   34 ar   
    63   33   36 1    
    64   34   35 ar   
    65   34   62 1    
    66   35   63 1    
    67   36   37 1    
    68   36   38 1    
    69   36   39 1    
@<TRIPOS>SUBSTRUCTURE
     1 UNK         1 GROUP             0       ****    0 ROOT    
