ZINC00888344_5729
                    3D
 Schrodinger Suite 2024-2.
 68 72  0  0  1  0            999 V2000
    0.5111   52.8870   31.7680 C   0  0  0  0  0  0
    1.3178   53.2451   30.6498 O   0  0  0  0  0  0
    0.9320   52.8338   29.3885 C   0  0  0  0  0  0
    1.7281   53.2590   28.3270 C   0  0  0  0  0  0
    1.4193   52.8962   27.0191 C   0  0  0  0  0  0
    0.3019   52.0967   26.7451 C   0  0  0  0  0  0
   -0.4924   51.6624   27.8138 C   0  0  0  0  0  0
   -0.1846   52.0280   29.1226 C   0  0  0  0  0  0
   -0.0268   51.7071   25.3285 C   0  0  0  0  0  0
   -1.0599   50.9425   25.0001 N   0  0  0  0  0  0
   -0.9841   50.7585   23.6334 N   0  0  0  0  0  0
    0.0792   51.4814   23.2772 N   0  0  0  0  0  0
    0.7064   52.0786   24.2976 N   0  0  0  0  0  0
    0.6675   51.4550   21.9379 C   0  0  0  0  0  0
   -0.2415   51.7710   20.7274 C   0  0  0  0  0  0
   -1.4130   52.0967   20.9426 O   0  0  0  0  0  0
    0.2687   51.6962   19.4546 N   0  0  0  0  0  0
   -0.6308   51.9469   18.2991 C   0  0  0  0  0  0
   -0.4896   53.3276   17.6821 C   0  0  0  0  0  0
   -1.4882   54.2728   17.4421 C   0  0  0  0  0  0
   -1.0374   55.4640   16.8675 C   0  0  0  0  0  0
    0.3210   55.4445   16.6166 C   0  0  0  0  0  0
    1.0334   53.9405   17.0888 S   0  0  0  0  0  0
    1.5524   51.0368   19.0589 C   0  0  2  0  0  0
    1.7522   51.3240   18.0257 H   0  0  0  0  0  0
    1.3950   49.5405   19.0531 C   0  0  0  0  0  0
    1.9350   48.4457   19.7277 C   0  0  0  0  0  0
    1.3113   47.2970   19.2428 C   0  0  0  0  0  0
    0.4112   47.7223   18.2889 C   0  0  0  0  0  0
    0.4589   49.0717   18.1813 O   0  0  0  0  0  0
    2.8462   51.5387   19.7745 C   0  0  0  0  0  0
    3.4295   50.8439   20.6092 O   0  0  0  0  0  0
    3.2477   52.7876   19.4768 N   0  0  0  0  0  0
    4.4294   53.4330   20.0547 C   0  0  0  0  0  0
    5.0131   54.5622   19.1765 C   0  0  0  0  0  0
    6.2976   55.1906   19.7604 C   0  0  0  0  0  0
    6.1427   55.6202   21.2297 C   0  0  0  0  0  0
    5.5608   54.5017   22.1160 C   0  0  0  0  0  0
    4.2795   53.8710   21.5344 C   0  0  0  0  0  0
    0.9419   53.2939   32.6816 H   0  0  0  0  0  0
   -0.4955   53.2956   31.6775 H   0  0  0  0  0  0
    0.4505   51.8046   31.8915 H   0  0  0  0  0  0
    2.5930   53.8759   28.5195 H   0  0  0  0  0  0
    2.0577   53.2416   26.2189 H   0  0  0  0  0  0
   -1.3478   51.0236   27.6402 H   0  0  0  0  0  0
   -0.8192   51.6623   29.9166 H   0  0  0  0  0  0
    1.1098   50.4666   21.8183 H   0  0  0  0  0  0
    1.4715   52.1904   21.9415 H   0  0  0  0  0  0
   -0.4601   51.1888   17.5353 H   0  0  0  0  0  0
   -1.6724   51.7933   18.5848 H   0  0  0  0  0  0
   -2.5236   54.1018   17.6944 H   0  0  0  0  0  0
   -1.6779   56.3023   16.6345 H   0  0  0  0  0  0
    0.9279   56.2227   16.1773 H   0  0  0  0  0  0
    2.7030   48.4720   20.4870 H   0  0  0  0  0  0
    1.5025   46.2785   19.5416 H   0  0  0  0  0  0
   -0.2883   47.2153   17.6410 H   0  0  0  0  0  0
    2.6842   53.3495   18.8549 H   0  0  0  0  0  0
    5.2096   52.6649   20.0523 H   0  0  0  0  0  0
    4.2615   55.3450   19.0627 H   0  0  0  0  0  0
    5.2216   54.1847   18.1741 H   0  0  0  0  0  0
    6.5919   56.0495   19.1556 H   0  0  0  0  0  0
    7.1214   54.4817   19.6796 H   0  0  0  0  0  0
    5.5045   56.5000   21.2787 H   0  0  0  0  0  0
    7.1097   55.9349   21.6251 H   0  0  0  0  0  0
    5.3599   54.8945   23.1139 H   0  0  0  0  0  0
    6.3045   53.7179   22.2537 H   0  0  0  0  0  0
    3.9923   53.0206   22.1540 H   0  0  0  0  0  0
    3.4667   54.5949   21.6088 H   0  0  0  0  0  0
  1  2  1  0  0  0
  1 40  1  0  0  0
  1 41  1  0  0  0
  1 42  1  0  0  0
  2  3  1  0  0  0
  3  8  2  0  0  0
  3  4  1  0  0  0
  4  5  2  0  0  0
  4 43  1  0  0  0
  5  6  1  0  0  0
  5 44  1  0  0  0
  6  7  2  0  0  0
  6  9  1  0  0  0
  7  8  1  0  0  0
  7 45  1  0  0  0
  8 46  1  0  0  0
  9 13  2  0  0  0
  9 10  1  0  0  0
 10 11  2  0  0  0
 11 12  1  0  0  0
 12 13  1  0  0  0
 12 14  1  0  0  0
 14 15  1  0  0  0
 14 47  1  0  0  0
 14 48  1  0  0  0
 15 16  2  0  0  0
 15 17  1  0  0  0
 17 18  1  0  0  0
 17 24  1  0  0  0
 18 19  1  0  0  0
 18 49  1  0  0  0
 18 50  1  0  0  0
 19 23  1  0  0  0
 19 20  2  0  0  0
 20 21  1  0  0  0
 20 51  1  0  0  0
 21 22  2  0  0  0
 21 52  1  0  0  0
 22 23  1  0  0  0
 22 53  1  0  0  0
 24 25  1  0  0  0
 24 26  1  0  0  0
 24 31  1  0  0  0
 26 30  1  0  0  0
 26 27  2  0  0  0
 27 28  1  0  0  0
 27 54  1  0  0  0
 28 29  2  0  0  0
 28 55  1  0  0  0
 29 30  1  0  0  0
 29 56  1  0  0  0
 31 32  2  0  0  0
 31 33  1  0  0  0
 33 34  1  0  0  0
 33 57  1  0  0  0
 34 39  1  0  0  0
 34 35  1  0  0  0
 34 58  1  0  0  0
 35 36  1  0  0  0
 35 59  1  0  0  0
 35 60  1  0  0  0
 36 37  1  0  0  0
 36 61  1  0  0  0
 36 62  1  0  0  0
 37 38  1  0  0  0
 37 63  1  0  0  0
 37 64  1  0  0  0
 38 39  1  0  0  0
 38 65  1  0  0  0
 38 66  1  0  0  0
 39 67  1  0  0  0
 39 68  1  0  0  0
M  END
> <i_i_glide_confnum>
291

> <i_i_glide_lignum>
5730

> <i_i_glide_posenum>
303

> <i_i_glide_rotatable_bonds>
12

> <i_m_Source_File_Index>
3829

> <b_m_subgroup_collapsed>
0

> <r_i_docking_score>
-3.61423

> <r_i_glide_ecoul>
-4.41608

> <r_i_glide_eff_state_penalty>
0

> <r_i_glide_einternal>
9.20768

> <r_i_glide_emodel>
-54.1582

> <r_i_glide_energy>
-47.4894

> <r_i_glide_erotb>
0.577671

> <r_i_glide_esite>
-0.107999

> <r_i_glide_evdw>
-43.0734

> <r_i_glide_gscore>
-3.61423

> <r_i_glide_hbond>
-0.0197092

> <r_i_glide_ligand_efficiency>
-0.0951112

> <r_i_glide_ligand_efficiency_ln>
-0.779333

> <r_i_glide_ligand_efficiency_sa>
-0.319762

> <r_i_glide_lipo>
-1.17374

> <r_i_glide_metal>
0

> <r_i_glide_rewards>
-0.0743654

> <s_i_glide_gridfile>
wee1_glide-grid

> <s_m_Source_File>
wee1_decoys_glide_SP.sdf

> <s_m_Source_Path>
/Users/zhangxujun/Desktop

> <s_m_entry_id>
4104

> <s_m_entry_name>
wee1_decoys_glide_SP.3829

> <s_m_subgroup_title>
wee1_decoys_glide_SP

> <s_m_subgroupid>
wee1_decoys_glide_SP


$$$$
