@<TRIPOS>MOLECULE
ZINC07254204_1519
54   57    1
SMALL
USER_CHARGES


@<TRIPOS>ATOM
      1 C1          0.7418   52.1053   28.5762 C.3       1 UNK         0.0000 
      2 C2          1.9301   53.1115   28.3901 C.3       1 UNK         0.0000 
      3 C3          3.0467   52.5009   29.3425 C.2       1 UNK         0.0000 
      4 O4          2.8719   52.0965   30.4948 O.2       1 UNK         0.0000 
      5 N5          4.3093   52.6964   28.9271 N.am      1 UNK         0.0000 
      6 C6          4.7156   53.5127   27.8837 C.ar      1 UNK         0.0000 
      7 C7          6.0209   54.0056   27.8821 C.ar      1 UNK         0.0000 
      8 C8          6.4268   54.8832   26.8812 C.ar      1 UNK         0.0000 
      9 C9          5.5228   55.2921   25.9043 C.ar      1 UNK         0.0000 
     10 C10         4.2123   54.8162   25.9291 C.ar      1 UNK         0.0000 
     11 C11         3.8040   53.8533   26.8723 C.ar      1 UNK         0.0000 
     12 N12         2.4787   53.3133   26.9795 N.am      1 UNK         0.0000 
     13 C13         1.7218   53.0294   25.8616 C.2       1 UNK         0.0000 
     14 O14         0.5022   52.8915   25.9081 O.2       1 UNK         0.0000 
     15 C15         2.3804   52.9559   24.4524 C.3       1 UNK         0.0000 
     16 N16         1.7186   52.1136   23.4245 N.pl3     1 UNK         0.0000 
     17 C17         1.1401   50.8236   23.8580 C.3       1 UNK         0.0000 
     18 C18        -0.0033   50.4610   22.8680 C.3       1 UNK         0.0000 
     19 H19        -0.4722   49.5266   23.1766 H         1 UNK         0.0000 
     20 O20         0.5202   50.3097   21.5348 O.3       1 UNK         0.0000 
     21 C21         1.5187   51.2045   21.1773 C.ar      1 UNK         0.0000 
     22 C22         2.1614   52.0717   22.0949 C.ar      1 UNK         0.0000 
     23 C23         3.1845   52.9068   21.6113 C.ar      1 UNK         0.0000 
     24 C24         3.5836   52.8486   20.2752 C.ar      1 UNK         0.0000 
     25 C25         2.9543   51.9737   19.3954 C.ar      1 UNK         0.0000 
     26 C26         1.9179   51.1573   19.8417 C.ar      1 UNK         0.0000 
     27 C27        -1.1752   51.4911   22.8452 C.2       1 UNK         0.0000 
     28 O28        -1.5535   52.0131   21.7912 O.2       1 UNK         0.0000 
     29 N29        -1.7480   51.7763   24.0271 N.am      1 UNK         0.0000 
     30 C30        -2.8443   52.7195   24.2045 C.3       1 UNK         0.0000 
     31 C31         1.5831   54.4928   29.0042 C.3       1 UNK         0.0000 
     32 H32         0.5124   51.8815   29.6213 H         1 UNK         0.0000 
     33 H33        -0.1937   52.5070   28.1876 H         1 UNK         0.0000 
     34 H34         0.9252   51.1535   28.0736 H         1 UNK         0.0000 
     35 H35         4.9960   52.4028   29.6030 H         1 UNK         0.0000 
     36 H36         6.7186   53.7292   28.6608 H         1 UNK         0.0000 
     37 H37         7.4309   55.2696   26.8988 H         1 UNK         0.0000 
     38 H38         5.8244   56.0060   25.1521 H         1 UNK         0.0000 
     39 H39         3.5267   55.2203   25.2045 H         1 UNK         0.0000 
     40 H40         2.3233   53.9672   24.0558 H         1 UNK         0.0000 
     41 H41         3.4254   52.6819   24.5414 H         1 UNK         0.0000 
     42 H42         1.9063   50.0510   23.7644 H         1 UNK         0.0000 
     43 H43         0.7930   50.7965   24.8899 H         1 UNK         0.0000 
     44 H44         3.6933   53.6021   22.2601 H         1 UNK         0.0000 
     45 H45         4.3806   53.4864   19.9213 H         1 UNK         0.0000 
     46 H46         3.2765   51.9180   18.3647 H         1 UNK         0.0000 
     47 H47         1.4406   50.4716   19.1590 H         1 UNK         0.0000 
     48 H48        -1.3575   51.3756   24.8681 H         1 UNK         0.0000 
     49 H49        -2.9687   52.9545   25.2618 H         1 UNK         0.0000 
     50 H50        -2.6491   53.6537   23.6758 H         1 UNK         0.0000 
     51 H51        -3.7798   52.2990   23.8319 H         1 UNK         0.0000 
     52 H52         1.2407   54.4121   30.0378 H         1 UNK         0.0000 
     53 H53         2.4269   55.1850   28.9857 H         1 UNK         0.0000 
     54 H54         0.7743   54.9649   28.4446 H         1 UNK         0.0000 
@<TRIPOS>BOND
     1    1    2 1    
     2    1   32 1    
     3    1   33 1    
     4    1   34 1    
     5    2   12 1    
     6    2    3 1    
     7    2   31 1    
     8    3    4 2    
     9    3    5 am   BACKBONE|DICT|INTERRES
    10    5    6 1    
    11    5   35 1    
    12    6   11 ar   
    13    6    7 ar   
    14    7    8 ar   
    15    7   36 1    
    16    8    9 ar   
    17    8   37 1    
    18    9   10 ar   
    19    9   38 1    
    20   10   11 ar   
    21   10   39 1    
    22   11   12 1    
    23   12   13 am   BACKBONE|DICT|INTERRES
    24   13   14 2    
    25   13   15 1    
    26   15   16 1    
    27   15   40 1    
    28   15   41 1    
    29   16   22 1    
    30   16   17 1    
    31   17   18 1    
    32   17   42 1    
    33   17   43 1    
    34   18   19 1    
    35   18   20 1    
    36   18   27 1    
    37   20   21 1    
    38   21   26 ar   
    39   21   22 ar   
    40   22   23 ar   
    41   23   24 ar   
    42   23   44 1    
    43   24   25 ar   
    44   24   45 1    
    45   25   26 ar   
    46   25   46 1    
    47   26   47 1    
    48   27   28 2    
    49   27   29 am   BACKBONE|DICT|INTERRES
    50   29   30 1    
    51   29   48 1    
    52   30   49 1    
    53   30   50 1    
    54   30   51 1    
    55   31   52 1    
    56   31   53 1    
    57   31   54 1    
@<TRIPOS>SUBSTRUCTURE
     1 UNK         1 GROUP             0       ****    0 ROOT    
