@<TRIPOS>MOLECULE
ZINC08900950_5981
53   56    1
SMALL
USER_CHARGES


@<TRIPOS>ATOM
      1 C1          5.9932   54.4482   25.5445 C.3       1 UNK         0.0000 
      2 C2          5.5116   54.4642   24.0964 C.ar      1 UNK         0.0000 
      3 C3          6.4170   54.8478   23.0982 C.ar      1 UNK         0.0000 
      4 C4          6.0307   54.8921   21.7581 C.ar      1 UNK         0.0000 
      5 C5          4.7351   54.4875   21.4107 C.ar      1 UNK         0.0000 
      6 C6          3.8272   54.1023   22.3928 C.ar      1 UNK         0.0000 
      7 C7          4.1952   54.0979   23.7473 C.ar      1 UNK         0.0000 
      8 N8          3.2951   53.7759   24.7870 N.am      1 UNK         0.0000 
      9 C9          2.0898   53.1652   24.7309 C.2       1 UNK         0.0000 
     10 O10         1.5144   52.7951   23.7093 O.2       1 UNK         0.0000 
     11 C11         1.5035   52.9274   26.0264 C.2       1 UNK         0.0000 
     12 C12         0.4476   52.0951   26.3894 C.2       1 UNK         0.0000 
     13 C13         0.2770   52.2423   27.7990 C.ar      1 UNK         0.0000 
     14 C14        -0.5629   51.6967   28.7807 C.ar      1 UNK         0.0000 
     15 C15        -0.4035   52.1154   30.1050 C.ar      1 UNK         0.0000 
     16 C16         0.5524   53.0710   30.4619 C.ar      1 UNK         0.0000 
     17 C17         1.3982   53.6382   29.5066 C.ar      1 UNK         0.0000 
     18 C18         1.2450   53.1972   28.1873 C.ar      1 UNK         0.0000 
     19 O19         1.9850   53.6074   27.1151 O.3       1 UNK         0.0000 
     20 N20         6.9877   55.2980   20.8135 N.am      1 UNK         0.0000 
     21 C21         6.7578   55.8762   19.6163 C.2       1 UNK         0.0000 
     22 O22         5.6513   56.2280   19.2087 O.2       1 UNK         0.0000 
     23 C23         7.9840   56.0911   18.7706 C.ar      1 UNK         0.0000 
     24 C24         8.8254   55.0081   18.4796 C.ar      1 UNK         0.0000 
     25 C25         9.9530   55.1804   17.6809 C.ar      1 UNK         0.0000 
     26 C26        10.2705   56.4412   17.1875 C.ar      1 UNK         0.0000 
     27 C27         9.4529   57.5363   17.4695 C.ar      1 UNK         0.0000 
     28 C28         8.2947   57.3627   18.2476 C.ar      1 UNK         0.0000 
     29 O29         7.5048   58.4494   18.5410 O.3       1 UNK         0.0000 
     30 C30         6.4884   58.7194   17.5805 C.3       1 UNK         0.0000 
     31 C31         9.8397   58.9108   16.9458 C.3       1 UNK         0.0000 
     32 Br32       11.0740   53.6969   17.2831 Br        1 UNK         0.0000 
     33 H33         7.0745   54.5570   25.6206 H         1 UNK         0.0000 
     34 H34         5.5185   55.2453   26.1155 H         1 UNK         0.0000 
     35 H35         5.7375   53.4995   26.0192 H         1 UNK         0.0000 
     36 H36         7.4240   55.1324   23.3729 H         1 UNK         0.0000 
     37 H37         4.4043   54.4742   20.3835 H         1 UNK         0.0000 
     38 H38         2.8324   53.8419   22.0656 H         1 UNK         0.0000 
     39 H39         3.6286   53.9775   25.7161 H         1 UNK         0.0000 
     40 H40        -0.1076   51.4572   25.7176 H         1 UNK         0.0000 
     41 H41        -1.2964   50.9432   28.5295 H         1 UNK         0.0000 
     42 H42        -1.0296   51.6860   30.8786 H         1 UNK         0.0000 
     43 H43         0.6344   53.3654   31.4989 H         1 UNK         0.0000 
     44 H44         2.1414   54.3763   29.7631 H         1 UNK         0.0000 
     45 H45         7.9530   55.1873   21.0820 H         1 UNK         0.0000 
     46 H46         8.6036   54.0202   18.8584 H         1 UNK         0.0000 
     47 H47        11.1602   56.5586   16.5850 H         1 UNK         0.0000 
     48 H48         5.6977   59.2965   18.0556 H         1 UNK         0.0000 
     49 H49         6.8720   59.3041   16.7461 H         1 UNK         0.0000 
     50 H50         6.0272   57.8158   17.1790 H         1 UNK         0.0000 
     51 H51        10.8330   58.9179   16.4881 H         1 UNK         0.0000 
     52 H52         9.1179   59.2534   16.2019 H         1 UNK         0.0000 
     53 H53         9.8407   59.6379   17.7602 H         1 UNK         0.0000 
@<TRIPOS>BOND
     1    1    2 1    
     2    1   33 1    
     3    1   34 1    
     4    1   35 1    
     5    2    7 ar   
     6    2    3 ar   
     7    3    4 ar   
     8    3   36 1    
     9    4    5 ar   
    10    4   20 1    
    11    5    6 ar   
    12    5   37 1    
    13    6    7 ar   
    14    6   38 1    
    15    7    8 1    
    16    8    9 am   BACKBONE|DICT|INTERRES
    17    8   39 1    
    18    9   10 2    
    19    9   11 1    
    20   11   19 1    
    21   11   12 2    
    22   12   13 1    
    23   12   40 1    
    24   13   18 ar   
    25   13   14 ar   
    26   14   15 ar   
    27   14   41 1    
    28   15   16 ar   
    29   15   42 1    
    30   16   17 ar   
    31   16   43 1    
    32   17   18 ar   
    33   17   44 1    
    34   18   19 1    
    35   20   21 am   BACKBONE|DICT|INTERRES
    36   20   45 1    
    37   21   22 2    
    38   21   23 1    
    39   23   28 ar   
    40   23   24 ar   
    41   24   25 ar   
    42   24   46 1    
    43   25   26 ar   
    44   25   32 1    
    45   26   27 ar   
    46   26   47 1    
    47   27   28 ar   
    48   27   31 1    
    49   28   29 1    
    50   29   30 1    
    51   30   48 1    
    52   30   49 1    
    53   30   50 1    
    54   31   51 1    
    55   31   52 1    
    56   31   53 1    
@<TRIPOS>SUBSTRUCTURE
     1 UNK         1 GROUP             0       ****    0 ROOT    
