ZINC17122330_2059
                    3D
 Schrodinger Suite 2024-2.
 60 63  0  0  1  0            999 V2000
    1.2837   52.9850   27.9247 C   0  0  0  0  0  0
    2.6522   53.4818   27.4716 C   0  0  0  0  0  0
    3.6163   53.7109   28.4587 C   0  0  0  0  0  0
    4.8987   54.1458   28.1477 C   0  0  0  0  0  0
    5.2009   54.3607   26.8019 C   0  0  0  0  0  0
    4.2403   54.1444   25.7774 C   0  0  0  0  0  0
    2.9414   53.6949   26.1039 C   0  0  0  0  0  0
    1.8876   53.4038   25.0374 C   0  0  0  0  0  0
    4.6987   54.4087   24.5176 N   0  0  0  0  0  0
    5.9470   54.7992   24.5259 C   0  0  0  0  0  0
    6.7044   54.8956   26.0882 S   0  0  0  0  0  0
    6.7031   55.1638   23.4275 N   0  0  0  0  0  0
    6.1619   54.8965   22.1518 N   0  0  0  0  0  0
    6.6446   55.5037   21.0501 C   0  0  0  0  0  0
    7.7243   56.0956   21.0221 O   0  0  0  0  0  0
    5.7696   55.4547   19.8167 C   0  0  0  0  0  0
    4.8122   54.4440   19.6288 C   0  0  0  0  0  0
    4.0206   54.4217   18.4818 C   0  0  0  0  0  0
    4.1833   55.4019   17.5022 C   0  0  0  0  0  0
    5.1248   56.4156   17.6794 C   0  0  0  0  0  0
    5.9120   56.4410   18.8277 C   0  0  0  0  0  0
    3.2575   55.3124   15.9652 S   0  0  0  0  0  0
    4.2038   55.6811   14.9079 O   0  0  0  0  0  0
    2.5770   54.0112   15.9473 O   0  0  0  0  0  0
    2.0185   56.5760   16.0453 N   0  0  0  0  0  0
    0.7165   56.3412   16.7098 C   0  0  0  0  0  0
   -0.4028   56.9597   15.8375 C   0  0  2  0  0  0
   -0.3882   56.4370   14.8793 H   0  0  0  0  0  0
   -0.0959   58.4560   15.5491 C   0  0  0  0  0  0
    1.3364   58.6992   14.9964 C   0  0  2  0  0  0
    1.3939   58.2221   14.0152 H   0  0  0  0  0  0
    2.3860   58.0004   15.8923 C   0  0  0  0  0  0
    1.6488   60.1953   14.8351 C   0  0  0  0  0  0
   -1.7882   56.7690   16.4779 C   0  0  0  0  0  0
    1.2415   52.8011   28.9994 H   0  0  0  0  0  0
    0.5061   53.7085   27.6790 H   0  0  0  0  0  0
    1.0345   52.0444   27.4305 H   0  0  0  0  0  0
    3.3689   53.5391   29.4971 H   0  0  0  0  0  0
    5.6362   54.3162   28.9213 H   0  0  0  0  0  0
    2.3202   53.3658   24.0379 H   0  0  0  0  0  0
    1.1076   54.1616   25.0451 H   0  0  0  0  0  0
    1.4170   52.4352   25.2080 H   0  0  0  0  0  0
    7.6820   54.8957   23.4283 H   0  0  0  0  0  0
    5.2560   54.4529   22.1941 H   0  0  0  0  0  0
    4.6743   53.6544   20.3573 H   0  0  0  0  0  0
    3.3022   53.6225   18.3480 H   0  0  0  0  0  0
    5.2676   57.1704   16.9194 H   0  0  0  0  0  0
    6.6398   57.2324   18.9366 H   0  0  0  0  0  0
    0.5696   55.2746   16.8802 H   0  0  0  0  0  0
    0.7343   56.8379   17.6800 H   0  0  0  0  0  0
   -0.8510   58.9055   14.9038 H   0  0  0  0  0  0
   -0.1993   59.0067   16.4815 H   0  0  0  0  0  0
    2.3819   58.4557   16.8817 H   0  0  0  0  0  0
    3.3972   58.0845   15.4906 H   0  0  0  0  0  0
    1.6095   60.7151   15.7946 H   0  0  0  0  0  0
    2.6471   60.3517   14.4249 H   0  0  0  0  0  0
    0.9385   60.6792   14.1652 H   0  0  0  0  0  0
   -1.8471   57.2642   17.4492 H   0  0  0  0  0  0
   -2.5749   57.1837   15.8450 H   0  0  0  0  0  0
   -2.0113   55.7133   16.6260 H   0  0  0  0  0  0
  1  2  1  0  0  0
  1 35  1  0  0  0
  1 36  1  0  0  0
  1 37  1  0  0  0
  2  7  2  0  0  0
  2  3  1  0  0  0
  3  4  2  0  0  0
  3 38  1  0  0  0
  4  5  1  0  0  0
  4 39  1  0  0  0
  5 11  1  0  0  0
  5  6  2  0  0  0
  6  7  1  0  0  0
  6  9  1  0  0  0
  7  8  1  0  0  0
  8 40  1  0  0  0
  8 41  1  0  0  0
  8 42  1  0  0  0
  9 10  2  0  0  0
 10 11  1  0  0  0
 10 12  1  0  0  0
 12 13  1  0  0  0
 12 43  1  0  0  0
 13 14  1  0  0  0
 13 44  1  0  0  0
 14 15  2  0  0  0
 14 16  1  0  0  0
 16 21  2  0  0  0
 16 17  1  0  0  0
 17 18  2  0  0  0
 17 45  1  0  0  0
 18 19  1  0  0  0
 18 46  1  0  0  0
 19 20  2  0  0  0
 19 22  1  0  0  0
 20 21  1  0  0  0
 20 47  1  0  0  0
 21 48  1  0  0  0
 22 23  2  0  0  0
 22 24  2  0  0  0
 22 25  1  0  0  0
 25 32  1  0  0  0
 25 26  1  0  0  0
 26 27  1  0  0  0
 26 49  1  0  0  0
 26 50  1  0  0  0
 27 28  1  0  0  0
 27 29  1  0  0  0
 27 34  1  0  0  0
 29 30  1  0  0  0
 29 51  1  0  0  0
 29 52  1  0  0  0
 30 31  1  0  0  0
 30 32  1  0  0  0
 30 33  1  0  0  0
 32 53  1  0  0  0
 32 54  1  0  0  0
 33 55  1  0  0  0
 33 56  1  0  0  0
 33 57  1  0  0  0
 34 58  1  0  0  0
 34 59  1  0  0  0
 34 60  1  0  0  0
M  END
> <i_i_glide_confnum>
58

> <i_i_glide_lignum>
2060

> <i_i_glide_posenum>
8

> <i_i_glide_rotatable_bonds>
6

> <i_m_Source_File_Index>
2075

> <b_m_subgroup_collapsed>
0

> <r_i_docking_score>
-5.6011

> <r_i_glide_ecoul>
-3.03114

> <r_i_glide_eff_state_penalty>
0

> <r_i_glide_einternal>
3.54906

> <r_i_glide_emodel>
-60.2235

> <r_i_glide_energy>
-46.5092

> <r_i_glide_erotb>
0.543162

> <r_i_glide_esite>
-5.922e-05

> <r_i_glide_evdw>
-43.4781

> <r_i_glide_gscore>
-5.6011

> <r_i_glide_hbond>
-0.421789

> <r_i_glide_ligand_efficiency>
-0.175034

> <r_i_glide_ligand_efficiency_ln>
-1.25424

> <r_i_glide_ligand_efficiency_sa>
-0.555699

> <r_i_glide_lipo>
-2.68489

> <r_i_glide_metal>
0

> <r_i_glide_rewards>
-0.408948

> <s_i_glide_gridfile>
wee1_glide-grid

> <s_m_Source_File>
wee1_decoys_glide_SP.sdf

> <s_m_Source_Path>
/Users/zhangxujun/Desktop

> <s_m_entry_id>
2350

> <s_m_entry_name>
wee1_decoys_glide_SP.2075

> <s_m_subgroup_title>
wee1_decoys_glide_SP

> <s_m_subgroupid>
wee1_decoys_glide_SP


$$$$
