ZINC09237408_4312
                    3D
 Schrodinger Suite 2024-2.
 48 51  0  0  1  0            999 V2000
    1.3402   53.6293   30.0802 C   0  0  0  0  0  0
    0.7090   52.8180   28.9623 C   0  0  0  0  0  0
    1.2821   52.8107   27.6911 C   0  0  0  0  0  0
    0.6950   52.0736   26.6668 C   0  0  0  0  0  0
   -0.4912   51.3532   26.8778 C   0  0  0  0  0  0
   -1.0374   51.3562   28.1717 C   0  0  0  0  0  0
   -0.4481   52.0814   29.2013 C   0  0  0  0  0  0
   -1.1275   50.5294   25.7214 C   0  0  2  0  0  0
   -0.3535   49.8109   25.4528 H   0  0  0  0  0  0
   -1.5659   51.3187   24.4382 C   0  0  1  0  0  0
   -2.0377   50.6368   23.7283 H   0  0  0  0  0  0
   -2.8661   52.5871   24.6715 S   0  0  0  0  0  0
   -3.8214   51.6703   25.8413 C   0  0  0  0  0  0
   -4.9637   52.0442   26.3607 N   0  0  0  0  0  0
   -5.3728   51.0521   27.2478 N   0  0  0  0  0  0
   -4.4557   50.1177   27.2284 C   0  0  0  0  0  0
   -3.4443   50.4455   26.3539 N   0  0  0  0  0  0
   -2.2822   49.6944   26.0822 N   0  0  0  0  0  0
   -4.4873   48.8620   28.0763 C   0  0  0  0  0  0
   -0.3944   51.8976   23.6176 C   0  0  0  0  0  0
   -0.1129   53.0964   23.6829 O   0  0  0  0  0  0
    0.2770   51.0051   22.8542 N   0  0  0  0  0  0
    1.4049   51.2247   22.0381 C   0  0  0  0  0  0
    2.3261   52.2546   22.2783 C   0  0  0  0  0  0
    3.4325   52.4473   21.4442 C   0  0  0  0  0  0
    3.6059   51.5982   20.3476 C   0  0  0  0  0  0
    2.7076   50.5623   20.1030 C   0  0  0  0  0  0
    1.6153   50.3618   20.9475 C   0  0  0  0  0  0
    0.5456   49.0425   20.6118 Cl  0  0  0  0  0  0
    4.4419   53.5578   21.7263 C   0  0  0  0  0  0
    3.9319   54.4953   22.5220 F   0  0  0  0  0  0
    4.8433   54.1410   20.5965 F   0  0  0  0  0  0
    5.5040   53.0310   22.3360 F   0  0  0  0  0  0
    1.8455   54.5118   29.6848 H   0  0  0  0  0  0
    0.5780   53.9869   30.7745 H   0  0  0  0  0  0
    2.0592   53.0219   30.6309 H   0  0  0  0  0  0
    2.1897   53.3645   27.4974 H   0  0  0  0  0  0
    1.1910   52.0635   25.7086 H   0  0  0  0  0  0
   -1.9234   50.7901   28.4147 H   0  0  0  0  0  0
   -0.8903   52.0633   30.1883 H   0  0  0  0  0  0
   -2.0372   49.1865   26.9415 H   0  0  0  0  0  0
   -5.4309   48.7450   28.6133 H   0  0  0  0  0  0
   -4.3455   47.9619   27.4787 H   0  0  0  0  0  0
   -3.6958   48.8732   28.8277 H   0  0  0  0  0  0
   -0.0984   50.0693   22.7987 H   0  0  0  0  0  0
    2.2070   52.9073   23.1312 H   0  0  0  0  0  0
    4.4491   51.7251   19.6817 H   0  0  0  0  0  0
    2.8737   49.9122   19.2530 H   0  0  0  0  0  0
  1  2  1  0  0  0
  1 34  1  0  0  0
  1 35  1  0  0  0
  1 36  1  0  0  0
  2  7  2  0  0  0
  2  3  1  0  0  0
  3  4  2  0  0  0
  3 37  1  0  0  0
  4  5  1  0  0  0
  4 38  1  0  0  0
  5  6  2  0  0  0
  5  8  1  0  0  0
  6  7  1  0  0  0
  6 39  1  0  0  0
  7 40  1  0  0  0
  8  9  1  0  0  0
  8 18  1  0  0  0
  8 10  1  0  0  0
 10 11  1  0  0  0
 10 12  1  0  0  0
 10 20  1  0  0  0
 12 13  1  0  0  0
 13 17  1  0  0  0
 13 14  2  0  0  0
 14 15  1  0  0  0
 15 16  2  0  0  0
 16 17  1  0  0  0
 16 19  1  0  0  0
 17 18  1  0  0  0
 18 41  1  0  0  0
 19 42  1  0  0  0
 19 43  1  0  0  0
 19 44  1  0  0  0
 20 21  2  0  0  0
 20 22  1  0  0  0
 22 23  1  0  0  0
 22 45  1  0  0  0
 23 28  2  0  0  0
 23 24  1  0  0  0
 24 25  2  0  0  0
 24 46  1  0  0  0
 25 26  1  0  0  0
 25 30  1  0  0  0
 26 27  2  0  0  0
 26 47  1  0  0  0
 27 28  1  0  0  0
 27 48  1  0  0  0
 28 29  1  0  0  0
 30 31  1  0  0  0
 30 32  1  0  0  0
 30 33  1  0  0  0
M  END
> <i_i_glide_confnum>
42

> <i_i_glide_lignum>
4313

> <i_i_glide_posenum>
385

> <i_i_glide_rotatable_bonds>
5

> <i_m_Source_File_Index>
2247

> <b_m_subgroup_collapsed>
0

> <r_i_docking_score>
-4.46188

> <r_i_glide_ecoul>
-8.06919

> <r_i_glide_eff_state_penalty>
0

> <r_i_glide_einternal>
0.713774

> <r_i_glide_emodel>
-53.1275

> <r_i_glide_energy>
-40.9222

> <r_i_glide_erotb>
0.368815

> <r_i_glide_esite>
-0.197884

> <r_i_glide_evdw>
-32.853

> <r_i_glide_gscore>
-4.46188

> <r_i_glide_hbond>
-0.16

> <r_i_glide_ligand_efficiency>
-0.143931

> <r_i_glide_ligand_efficiency_ln>
-1.00629

> <r_i_glide_ligand_efficiency_sa>
-0.452144

> <r_i_glide_lipo>
-0.942061

> <r_i_glide_metal>
0

> <r_i_glide_rewards>
-0.677716

> <s_i_glide_gridfile>
wee1_glide-grid

> <s_m_Source_File>
wee1_decoys_glide_SP.sdf

> <s_m_Source_Path>
/Users/zhangxujun/Desktop

> <s_m_entry_id>
2522

> <s_m_entry_name>
wee1_decoys_glide_SP.2247

> <s_m_subgroup_title>
wee1_decoys_glide_SP

> <s_m_subgroupid>
wee1_decoys_glide_SP


$$$$
