@<TRIPOS>MOLECULE
ZINC54940248_230
51   54    1
SMALL
USER_CHARGES


@<TRIPOS>ATOM
      1 C1          6.7232   55.8566   24.3714 C.3       1 UNK         0.0000 
      2 C2          6.2250   54.3953   24.4031 C.3       1 UNK         0.0000 
      3 H3          7.0789   53.7340   24.2305 H         1 UNK         0.0000 
      4 C4          5.2188   54.0965   23.2837 C.ar      1 UNK         0.0000 
      5 C5          5.6550   54.1938   21.9592 C.ar      1 UNK         0.0000 
      6 C6          4.8042   53.8781   20.9048 C.ar      1 UNK         0.0000 
      7 C7          3.5044   53.4649   21.1734 C.ar      1 UNK         0.0000 
      8 C8          3.0430   53.3820   22.4821 C.ar      1 UNK         0.0000 
      9 C9          3.8977   53.6968   23.5342 C.ar      1 UNK         0.0000 
     10 N10         5.7736   53.9663   25.8289 N.4       1 UNK         0.0000 
     11 C11         6.8835   53.7398   26.8680 C.3       1 UNK         0.0000 
     12 C12         6.1193   53.5611   28.1745 C.3       1 UNK         0.0000 
     13 C13         4.8388   54.4060   28.0516 C.3       1 UNK         0.0000 
     14 H14         4.9057   55.2918   28.6900 H         1 UNK         0.0000 
     15 C15         4.8160   54.8963   26.5936 C.3       1 UNK         0.0000 
     16 N16         3.6126   53.6498   28.2869 N.am      1 UNK         0.0000 
     17 C17         3.2246   53.0639   29.4415 C.2       1 UNK         0.0000 
     18 O18         3.9043   53.0924   30.4681 O.2       1 UNK         0.0000 
     19 C19         1.8772   52.4120   29.4213 C.2       1 UNK         0.0000 
     20 O20         1.3299   52.1064   30.4819 O.2       1 UNK         0.0000 
     21 N21         1.3507   52.2017   28.1868 N.am      1 UNK         0.0000 
     22 C22         0.0644   51.8272   27.8563 C.2       1 UNK         0.0000 
     23 N23        -0.2350   51.6249   26.6058 N.2       1 UNK         0.0000 
     24 C24        -1.5514   51.3167   26.4579 C.ar      1 UNK         0.0000 
     25 C25        -2.1734   51.0434   25.2307 C.ar      1 UNK         0.0000 
     26 C26        -3.5376   50.7442   25.2309 C.ar      1 UNK         0.0000 
     27 C27        -4.2717   50.7133   26.4173 C.ar      1 UNK         0.0000 
     28 C28        -3.6760   50.9828   27.6501 C.ar      1 UNK         0.0000 
     29 C29        -2.3103   51.2966   27.6587 C.ar      1 UNK         0.0000 
     30 S30        -1.2553   51.6967   29.0058 S.3       1 UNK         0.0000 
     31 H31         7.2100   56.0903   23.4240 H         1 UNK         0.0000 
     32 H32         5.9044   56.5638   24.4826 H         1 UNK         0.0000 
     33 H33         7.4556   56.0678   25.1461 H         1 UNK         0.0000 
     34 H34         6.6686   54.4983   21.7399 H         1 UNK         0.0000 
     35 H35         5.1492   53.9433   19.8831 H         1 UNK         0.0000 
     36 H36         2.8412   53.2198   20.3557 H         1 UNK         0.0000 
     37 H37         2.0298   53.0622   22.6779 H         1 UNK         0.0000 
     38 H38         3.5160   53.5768   24.5327 H         1 UNK         0.0000 
     39 H39         7.5044   54.6323   26.8703 H         1 UNK         0.0000 
     40 H40         7.4970   52.8968   26.5632 H         1 UNK         0.0000 
     41 H41         6.7249   53.8758   29.0256 H         1 UNK         0.0000 
     42 H42         5.8974   52.4994   28.3017 H         1 UNK         0.0000 
     43 H43         3.8448   54.9477   26.1034 H         1 UNK         0.0000 
     44 H44         5.2742   55.8640   26.4814 H         1 UNK         0.0000 
     45 H45         2.9646   53.6475   27.5179 H         1 UNK         0.0000 
     46 H46         1.9456   52.3263   27.3877 H         1 UNK         0.0000 
     47 H47        -1.6085   51.0549   24.3108 H         1 UNK         0.0000 
     48 H48        -4.0370   50.5241   24.2984 H         1 UNK         0.0000 
     49 H49        -5.3228   50.4649   26.3807 H         1 UNK         0.0000 
     50 H50        -4.2414   50.9373   28.5699 H         1 UNK         0.0000 
     51 H51         5.3134   53.0744   25.6877 H         1 UNK         0.0000 
@<TRIPOS>BOND
     1    1    2 1    
     2    1   31 1    
     3    1   32 1    
     4    1   33 1    
     5    2    3 1    
     6    2    4 1    
     7    2   10 1    
     8    4    9 ar   
     9    4    5 ar   
    10    5    6 ar   
    11    5   34 1    
    12    6    7 ar   
    13    6   35 1    
    14    7    8 ar   
    15    7   36 1    
    16    8    9 ar   
    17    8   37 1    
    18    9   38 1    
    19   10   15 1    
    20   10   11 1    
    21   10   51 1    
    22   11   12 1    
    23   11   39 1    
    24   11   40 1    
    25   12   13 1    
    26   12   41 1    
    27   12   42 1    
    28   13   14 1    
    29   13   15 1    
    30   13   16 1    
    31   15   43 1    
    32   15   44 1    
    33   16   17 am   BACKBONE|DICT|INTERRES
    34   16   45 1    
    35   17   18 2    
    36   17   19 1    
    37   19   20 2    
    38   19   21 am   BACKBONE|DICT|INTERRES
    39   21   22 am   BACKBONE|DICT|INTERRES
    40   21   46 1    
    41   22   30 1    
    42   22   23 2    
    43   23   24 1    
    44   24   29 ar   
    45   24   25 ar   
    46   25   26 ar   
    47   25   47 1    
    48   26   27 ar   
    49   26   48 1    
    50   27   28 ar   
    51   27   49 1    
    52   28   29 ar   
    53   28   50 1    
    54   29   30 1    
@<TRIPOS>SUBSTRUCTURE
     1 UNK         1 GROUP             0       ****    0 ROOT    
