ZINC10029383_5132
                    3D
 Schrodinger Suite 2024-2.
 55 57  0  0  1  0            999 V2000
   -2.0861   50.8939   21.0285 C   0  0  0  0  0  0
   -1.5307   51.6965   19.8575 C   0  0  0  0  0  0
   -2.2720   52.4962   19.2818 O   0  0  0  0  0  0
   -0.2444   51.4484   19.5383 N   0  0  0  0  0  0
    0.5570   52.0289   18.5390 C   0  0  0  0  0  0
    0.2458   53.2154   17.8586 C   0  0  0  0  0  0
    1.1112   53.7110   16.8867 C   0  0  0  0  0  0
    2.2815   53.0154   16.5767 C   0  0  0  0  0  0
    2.5999   51.8428   17.2588 C   0  0  0  0  0  0
    1.7442   51.3567   18.2418 C   0  0  0  0  0  0
    3.3817   53.6247   15.3013 S   0  0  0  0  0  0
    2.6255   54.6273   14.5411 O   0  0  0  0  0  0
    3.9548   52.4472   14.6406 O   0  0  0  0  0  0
    4.6754   54.4569   16.1808 N   0  0  0  0  0  0
    5.8341   53.6988   16.7147 C   0  0  0  0  0  0
    5.8804   53.6967   18.2560 C   0  0  0  0  0  0
    5.6574   55.0923   18.8891 C   0  0  0  0  0  0
    4.4260   55.7995   18.2774 C   0  0  0  0  0  0
    4.4441   55.8080   16.7370 C   0  0  0  0  0  0
    5.6614   55.0867   20.3553 N   0  0  0  0  0  0
    6.7340   55.3307   21.1344 C   0  0  0  0  0  0
    7.8384   55.6274   20.6818 O   0  0  0  0  0  0
    6.5267   55.2587   22.5607 C   0  0  0  0  0  0
    5.5957   54.4963   23.1781 C   0  0  0  0  0  0
    5.3956   54.4524   24.6420 C   0  0  0  0  0  0
    6.4945   54.4984   25.5129 C   0  0  0  0  0  0
    6.3091   54.4953   26.8973 C   0  0  0  0  0  0
    5.0196   54.4568   27.4273 C   0  0  0  0  0  0
    3.9188   54.4129   26.5719 C   0  0  0  0  0  0
    4.0993   54.4181   25.1875 C   0  0  0  0  0  0
    2.6910   54.3986   24.1777 Cl  0  0  0  0  0  0
    4.7801   54.4893   29.1373 Cl  0  0  0  0  0  0
   -1.2922   50.5491   21.6943 H   0  0  0  0  0  0
   -2.7785   51.5047   21.6116 H   0  0  0  0  0  0
   -2.6300   50.0225   20.6586 H   0  0  0  0  0  0
    0.1988   50.6906   20.0337 H   0  0  0  0  0  0
   -0.6436   53.7822   18.0811 H   0  0  0  0  0  0
    0.8653   54.6275   16.3710 H   0  0  0  0  0  0
    3.5044   51.2969   17.0266 H   0  0  0  0  0  0
    2.0135   50.4427   18.7531 H   0  0  0  0  0  0
    6.7411   54.1219   16.2788 H   0  0  0  0  0  0
    5.7783   52.6720   16.3532 H   0  0  0  0  0  0
    6.8367   53.2847   18.5795 H   0  0  0  0  0  0
    5.1148   53.0078   18.6161 H   0  0  0  0  0  0
    6.5038   55.6996   18.5556 H   0  0  0  0  0  0
    3.5094   55.3089   18.6160 H   0  0  0  0  0  0
    4.3732   56.8294   18.6300 H   0  0  0  0  0  0
    5.2115   56.4778   16.3442 H   0  0  0  0  0  0
    3.4915   56.1851   16.3637 H   0  0  0  0  0  0
    4.7863   54.8530   20.7983 H   0  0  0  0  0  0
    7.2084   55.8698   23.1365 H   0  0  0  0  0  0
    4.9356   53.8661   22.5964 H   0  0  0  0  0  0
    7.5022   54.5292   25.1183 H   0  0  0  0  0  0
    7.1603   54.5294   27.5643 H   0  0  0  0  0  0
    2.9196   54.3882   26.9836 H   0  0  0  0  0  0
  1  2  1  0  0  0
  1 33  1  0  0  0
  1 34  1  0  0  0
  1 35  1  0  0  0
  2  3  2  0  0  0
  2  4  1  0  0  0
  4  5  1  0  0  0
  4 36  1  0  0  0
  5 10  2  0  0  0
  5  6  1  0  0  0
  6  7  2  0  0  0
  6 37  1  0  0  0
  7  8  1  0  0  0
  7 38  1  0  0  0
  8  9  2  0  0  0
  8 11  1  0  0  0
  9 10  1  0  0  0
  9 39  1  0  0  0
 10 40  1  0  0  0
 11 12  2  0  0  0
 11 13  2  0  0  0
 11 14  1  0  0  0
 14 19  1  0  0  0
 14 15  1  0  0  0
 15 16  1  0  0  0
 15 41  1  0  0  0
 15 42  1  0  0  0
 16 17  1  0  0  0
 16 43  1  0  0  0
 16 44  1  0  0  0
 17 18  1  0  0  0
 17 20  1  0  0  0
 17 45  1  0  0  0
 18 19  1  0  0  0
 18 46  1  0  0  0
 18 47  1  0  0  0
 19 48  1  0  0  0
 19 49  1  0  0  0
 20 21  1  0  0  0
 20 50  1  0  0  0
 21 22  2  0  0  0
 21 23  1  0  0  0
 23 24  2  0  0  0
 23 51  1  0  0  0
 24 25  1  0  0  0
 24 52  1  0  0  0
 25 30  2  0  0  0
 25 26  1  0  0  0
 26 27  2  0  0  0
 26 53  1  0  0  0
 27 28  1  0  0  0
 27 54  1  0  0  0
 28 29  2  0  0  0
 28 32  1  0  0  0
 29 30  1  0  0  0
 29 55  1  0  0  0
 30 31  1  0  0  0
M  END
> <i_i_glide_confnum>
92

> <i_i_glide_lignum>
5133

> <i_i_glide_posenum>
179

> <i_i_glide_rotatable_bonds>
8

> <i_m_Source_File_Index>
2009

> <b_m_subgroup_collapsed>
0

> <r_i_docking_score>
-5.71219

> <r_i_glide_ecoul>
-5.28594

> <r_i_glide_eff_state_penalty>
0

> <r_i_glide_einternal>
3.49066

> <r_i_glide_emodel>
-63.4085

> <r_i_glide_energy>
-44.8515

> <r_i_glide_erotb>
0.49652

> <r_i_glide_esite>
-0.0667267

> <r_i_glide_evdw>
-39.5656

> <r_i_glide_gscore>
-5.71219

> <r_i_glide_hbond>
-0.32

> <r_i_glide_ligand_efficiency>
-0.178506

> <r_i_glide_ligand_efficiency_ln>
-1.27912

> <r_i_glide_ligand_efficiency_sa>
-0.566721

> <r_i_glide_lipo>
-2.70859

> <r_i_glide_metal>
0

> <r_i_glide_rewards>
-0.34223

> <s_i_glide_gridfile>
wee1_glide-grid

> <s_m_Source_File>
wee1_decoys_glide_SP.sdf

> <s_m_Source_Path>
/Users/zhangxujun/Desktop

> <s_m_entry_id>
2284

> <s_m_entry_name>
wee1_decoys_glide_SP.2009

> <s_m_subgroup_title>
wee1_decoys_glide_SP

> <s_m_subgroupid>
wee1_decoys_glide_SP


$$$$
