@<TRIPOS>MOLECULE
ZINC16036757_476
76   80    1
SMALL
USER_CHARGES


@<TRIPOS>ATOM
      1 C1          0.6153   52.7999   31.8744 C.3       1 UNK         0.0000 
      2 C2          1.8585   52.1887   31.2278 C.2       1 UNK         0.0000 
      3 O3          2.7190   51.7095   31.9739 O.2       1 UNK         0.0000 
      4 C4          2.0104   52.1566   29.6676 C.3       1 UNK         0.0000 
      5 C5          0.7684   51.6147   28.9031 C.3       1 UNK         0.0000 
      6 C6          0.8206   52.2554   27.4984 C.3       1 UNK         0.0000 
      7 C7          2.1234   53.0717   27.4973 C.3       1 UNK         0.0000 
      8 H8          2.9121   52.3687   27.2481 H         1 UNK         0.0000 
      9 C9          2.2957   53.5323   28.9815 C.3       1 UNK         0.0000 
     10 C10         3.7467   54.0603   29.1198 C.3       1 UNK         0.0000 
     11 C11         4.0249   55.2178   28.1403 C.3       1 UNK         0.0000 
     12 C12         3.6806   54.9663   26.6279 C.3       1 UNK         0.0000 
     13 H13         3.5040   55.9037   26.0948 H         1 UNK         0.0000 
     14 C14         2.3038   54.2234   26.5041 C.3       1 UNK         0.0000 
     15 H15         1.5482   54.8967   26.8817 H         1 UNK         0.0000 
     16 C16         1.9467   53.9650   25.0311 C.3       1 UNK         0.0000 
     17 C17         3.0475   53.1595   24.3619 C.3       1 UNK         0.0000 
     18 C18         4.3717   53.9402   24.3853 C.2       1 UNK         0.0000 
     19 C19         5.0432   54.1975   23.2368 C.2       1 UNK         0.0000 
     20 C20         6.3048   54.8928   23.1178 C.2       1 UNK         0.0000 
     21 N21         6.9099   55.2368   22.0497 N.2       1 UNK         0.0000 
     22 O22         6.2005   54.8976   20.8837 O.3       1 UNK         0.0000 
     23 C23         7.0122   55.2008   19.7520 C.3       1 UNK         0.0000 
     24 C24         6.4850   54.4743   18.5095 C.2       1 UNK         0.0000 
     25 O25         7.2579   54.2547   17.5778 O.2       1 UNK         0.0000 
     26 N26         5.1845   54.1333   18.4808 N.am      1 UNK         0.0000 
     27 C27         4.5129   53.4597   17.3649 C.3       1 UNK         0.0000 
     28 C28         4.3978   54.3153   16.0816 C.3       1 UNK         0.0000 
     29 C29         3.6806   55.6402   16.2727 C.ar      1 UNK         0.0000 
     30 C30         4.2177   56.9239   16.3338 C.ar      1 UNK         0.0000 
     31 N31         3.1492   57.7675   16.4739 N.pl3     1 UNK         0.0000 
     32 H32         3.1686   58.7787   16.5428 H         1 UNK         0.0000 
     33 C33         2.0481   56.9542   16.4818 C.ar      1 UNK         0.0000 
     34 N34         2.3568   55.6824   16.3842 N.2       1 UNK         0.0000 
     35 C35         6.9788   55.2429   24.4421 C.3       1 UNK         0.0000 
     36 C36         5.9425   55.5472   25.5432 C.3       1 UNK         0.0000 
     37 C37         4.8845   54.4154   25.7784 C.3       1 UNK         0.0000 
     38 C38         5.6504   53.2967   26.5076 C.3       1 UNK         0.0000 
     39 C39         1.2863   54.6475   29.4391 C.3       1 UNK         0.0000 
     40 O40         3.1053   51.2968   29.4111 O.3       1 UNK         0.0000 
     41 H41        -0.2962   52.5752   31.3242 H         1 UNK         0.0000 
     42 H42         0.7029   53.8773   31.9857 H         1 UNK         0.0000 
     43 H43         0.4972   52.3987   32.8806 H         1 UNK         0.0000 
     44 H44         0.7793   50.5305   28.8223 H         1 UNK         0.0000 
     45 H45        -0.1804   51.8652   29.3742 H         1 UNK         0.0000 
     46 H46         0.7738   51.5301   26.6852 H         1 UNK         0.0000 
     47 H47        -0.0397   52.9174   27.3927 H         1 UNK         0.0000 
     48 H48         3.9423   54.3690   30.1464 H         1 UNK         0.0000 
     49 H49         4.4752   53.2752   28.9308 H         1 UNK         0.0000 
     50 H50         5.0557   55.5495   28.2445 H         1 UNK         0.0000 
     51 H51         3.4054   56.0383   28.4996 H         1 UNK         0.0000 
     52 H52         0.9866   53.4557   24.9476 H         1 UNK         0.0000 
     53 H53         1.8238   54.8972   24.4820 H         1 UNK         0.0000 
     54 H54         2.7539   52.9277   23.3369 H         1 UNK         0.0000 
     55 H55         3.1044   52.2106   24.8793 H         1 UNK         0.0000 
     56 H56         4.5947   53.8166   22.3315 H         1 UNK         0.0000 
     57 H57         6.9974   56.2725   19.5548 H         1 UNK         0.0000 
     58 H58         8.0505   54.8928   19.8992 H         1 UNK         0.0000 
     59 H59         4.6139   54.3579   19.2828 H         1 UNK         0.0000 
     60 H60         5.0126   52.5103   17.1498 H         1 UNK         0.0000 
     61 H61         3.5104   53.1962   17.7073 H         1 UNK         0.0000 
     62 H62         5.3967   54.4865   15.6783 H         1 UNK         0.0000 
     63 H63         3.8906   53.7262   15.3157 H         1 UNK         0.0000 
     64 H64         5.2307   57.2986   16.2804 H         1 UNK         0.0000 
     65 H65         1.0596   57.3809   16.5839 H         1 UNK         0.0000 
     66 H66         7.6323   54.4222   24.7293 H         1 UNK         0.0000 
     67 H67         7.6164   56.1142   24.3172 H         1 UNK         0.0000 
     68 H68         5.4587   56.4857   25.2801 H         1 UNK         0.0000 
     69 H69         6.4809   55.7633   26.4667 H         1 UNK         0.0000 
     70 H70         6.1368   53.6533   27.4147 H         1 UNK         0.0000 
     71 H71         4.9972   52.4963   26.8136 H         1 UNK         0.0000 
     72 H72         6.4579   52.8977   25.9031 H         1 UNK         0.0000 
     73 H73         1.2896   55.5434   28.8235 H         1 UNK         0.0000 
     74 H74         0.2556   54.2942   29.4574 H         1 UNK         0.0000 
     75 H75         1.5274   55.0139   30.4352 H         1 UNK         0.0000 
     76 H76         3.2507   51.2784   28.4621 H         1 UNK         0.0000 
@<TRIPOS>BOND
     1    1    2 1    
     2    1   41 1    
     3    1   42 1    
     4    1   43 1    
     5    2    3 2    
     6    2    4 1    
     7    4    9 1    
     8    4    5 1    
     9    4   40 1    
    10    5    6 1    
    11    5   44 1    
    12    5   45 1    
    13    6    7 1    
    14    6   46 1    
    15    6   47 1    
    16    7    8 1    
    17    7   14 1    
    18    7    9 1    
    19    9   10 1    
    20    9   39 1    
    21   10   11 1    
    22   10   48 1    
    23   10   49 1    
    24   11   12 1    
    25   11   50 1    
    26   11   51 1    
    27   12   13 1    
    28   12   37 1    
    29   12   14 1    
    30   14   15 1    
    31   14   16 1    
    32   16   17 1    
    33   16   52 1    
    34   16   53 1    
    35   17   18 1    
    36   17   54 1    
    37   17   55 1    
    38   18   37 1    
    39   18   19 2    
    40   19   20 1    
    41   19   56 1    
    42   20   21 2    
    43   20   35 1    
    44   21   22 1    
    45   22   23 1    
    46   23   24 1    
    47   23   57 1    
    48   23   58 1    
    49   24   25 2    
    50   24   26 am   BACKBONE|DICT|INTERRES
    51   26   27 1    
    52   26   59 1    
    53   27   28 1    
    54   27   60 1    
    55   27   61 1    
    56   28   29 1    
    57   28   62 1    
    58   28   63 1    
    59   29   34 ar   
    60   29   30 ar   
    61   30   31 ar   
    62   30   64 1    
    63   31   32 1    
    64   31   33 ar   
    65   33   34 ar   
    66   33   65 1    
    67   35   36 1    
    68   35   66 1    
    69   35   67 1    
    70   36   37 1    
    71   36   68 1    
    72   36   69 1    
    73   37   38 1    
    74   38   70 1    
    75   38   71 1    
    76   38   72 1    
    77   39   73 1    
    78   39   74 1    
    79   39   75 1    
    80   40   76 1    
@<TRIPOS>SUBSTRUCTURE
     1 UNK         1 GROUP             0       ****    0 ROOT    
