@<TRIPOS>MOLECULE
ZINC31891318_1670
31   34    1
SMALL
USER_CHARGES


@<TRIPOS>ATOM
      1 C1          1.9649   53.6728   24.3741 C.ar      1 UNK         0.0000 
      2 C2          0.8373   53.2285   23.6936 C.ar      1 UNK         0.0000 
      3 C3         -0.1000   52.4318   24.3481 C.ar      1 UNK         0.0000 
      4 C4          0.0961   52.0519   25.6813 C.ar      1 UNK         0.0000 
      5 C5          1.2395   52.4987   26.3511 C.ar      1 UNK         0.0000 
      6 C6          2.1906   53.3036   25.7067 C.ar      1 UNK         0.0000 
      7 C7          3.4190   53.7486   26.4435 C.2       1 UNK         0.0000 
      8 C8          3.5930   53.8743   27.8155 C.2       1 UNK         0.0000 
      9 S9          5.1975   54.4160   28.3044 S.3       1 UNK         0.0000 
     10 C10         5.6510   54.4844   26.6189 C.ar      1 UNK         0.0000 
     11 N11         4.6116   54.0998   25.8119 N.pl3     1 UNK         0.0000 
     12 N12         5.0484   54.1412   24.5199 N.2       1 UNK         0.0000 
     13 C13         6.2918   54.5356   24.6715 C.ar      1 UNK         0.0000 
     14 N14         6.7077   54.7785   25.9018 N.2       1 UNK         0.0000 
     15 N15         7.1043   54.6730   23.5887 N.pl3     1 UNK         0.0000 
     16 C16        -0.9443   51.1380   26.3162 C.3       1 UNK         0.0000 
     17 C17        -2.3696   51.4123   25.7538 C.3       1 UNK         0.0000 
     18 C18        -2.4098   51.5843   24.2114 C.2       1 UNK         0.0000 
     19 O19        -3.4047   51.3814   23.5227 O.2       1 UNK         0.0000 
     20 N20        -1.2624   52.0494   23.6797 N.am      1 UNK         0.0000 
     21 H21         2.6509   54.3121   23.8417 H         1 UNK         0.0000 
     22 H22         0.7050   53.5200   22.6636 H         1 UNK         0.0000 
     23 H23         1.3956   52.1920   27.3750 H         1 UNK         0.0000 
     24 H24         2.8562   53.6772   28.5793 H         1 UNK         0.0000 
     25 H25         6.7638   54.5058   22.6555 H         1 UNK         0.0000 
     26 H26         8.0986   54.8970   23.6788 H         1 UNK         0.0000 
     27 H27        -0.6748   50.0980   26.1194 H         1 UNK         0.0000 
     28 H28        -0.9449   51.2387   27.4049 H         1 UNK         0.0000 
     29 H29        -2.7616   52.3342   26.1842 H         1 UNK         0.0000 
     30 H30        -3.0458   50.6003   26.0267 H         1 UNK         0.0000 
     31 H31        -1.3237   52.2142   22.6875 H         1 UNK         0.0000 
@<TRIPOS>BOND
     1    1    6 ar   
     2    1    2 ar   
     3    1   21 1    
     4    2    3 ar   
     5    2   22 1    
     6    3   20 1    
     7    3    4 ar   
     8    4    5 ar   
     9    4   16 1    
    10    5    6 ar   
    11    5   23 1    
    12    6    7 1    
    13    7   11 1    
    14    7    8 2    
    15    8    9 1    
    16    8   24 1    
    17    9   10 1    
    18   10   14 ar   
    19   10   11 ar   
    20   11   12 ar   
    21   12   13 ar   
    22   13   14 ar   
    23   13   15 1    
    24   15   25 1    
    25   15   26 1    
    26   16   17 1    
    27   16   27 1    
    28   16   28 1    
    29   17   18 1    
    30   17   29 1    
    31   17   30 1    
    32   18   19 2    
    33   18   20 am   BACKBONE|DICT|INTERRES
    34   20   31 1    
@<TRIPOS>SUBSTRUCTURE
     1 UNK         1 GROUP             0       ****    0 ROOT    
