ZINC35397540_3292
                    3D
 Schrodinger Suite 2024-2.
 65 68  0  0  1  0            999 V2000
    7.9969   51.7174   16.4107 C   0  0  0  0  0  0
    8.6874   53.0177   16.7780 C   0  0  0  0  0  0
   10.0763   53.0751   16.8817 C   0  0  0  0  0  0
   10.7019   54.2689   17.2315 C   0  0  0  0  0  0
    9.9522   55.4216   17.4890 C   0  0  0  0  0  0
    8.5451   55.3691   17.3967 C   0  0  0  0  0  0
    7.9316   54.1653   17.0217 C   0  0  0  0  0  0
    7.4800   56.7735   17.8153 S   0  0  0  0  0  0
    8.1888   57.9709   17.3551 O   0  0  0  0  0  0
    6.1934   56.5026   17.1638 O   0  0  0  0  0  0
    7.4898   56.6204   19.3835 N   0  5  0  0  0  0
    6.6847   55.7806   20.1151 C   0  0  0  0  0  0
    6.9081   55.6959   21.4949 C   0  0  0  0  0  0
    6.1150   54.8969   22.3391 C   0  0  0  0  0  0
    5.0181   54.1866   21.7676 C   0  0  0  0  0  0
    4.8813   54.2565   20.4266 N   0  3  0  0  0  0
    5.6502   54.9860   19.6073 C   0  0  0  0  0  0
    3.9601   53.4716   22.4598 N   0  0  0  0  0  0
    3.3440   52.2662   21.8167 C   0  0  0  0  0  0
    1.8610   52.0664   22.1938 C   0  0  0  0  0  0
    1.6808   52.0478   23.7164 C   0  0  0  0  0  0
    2.2024   53.3798   24.2835 C   0  0  0  0  0  0
    3.6843   53.5990   23.9185 C   0  0  0  0  0  0
    0.2066   51.7332   24.1127 N   0  3  0  0  0  0
   -0.8257   52.8064   23.6803 C   0  0  0  0  0  0
   -2.2441   52.3289   24.0438 C   0  0  0  0  0  0
   -2.3751   51.9663   25.5322 C   0  0  0  0  0  0
   -1.3250   50.9215   25.9446 C   0  0  0  0  0  0
    0.1037   51.3923   25.6234 C   0  0  0  0  0  0
    6.5161   54.8273   23.7784 C   0  0  0  0  0  0
    6.7042   55.9002   24.3908 O   0  0  0  0  0  0
    6.6742   53.6968   24.2752 O   0  5  0  0  0  0
   10.7042   56.6888   17.8729 C   0  0  0  0  0  0
    7.2318   51.8928   15.6527 H   0  0  0  0  0  0
    8.6955   50.9842   16.0051 H   0  0  0  0  0  0
    7.5043   51.2960   17.2874 H   0  0  0  0  0  0
   10.6757   52.1938   16.7046 H   0  0  0  0  0  0
   11.7789   54.2893   17.3136 H   0  0  0  0  0  0
    6.8564   54.1074   16.9439 H   0  0  0  0  0  0
    7.7378   56.2476   21.9174 H   0  0  0  0  0  0
    5.3569   54.9170   18.5742 H   0  0  0  0  0  0
    3.3931   52.3433   20.7315 H   0  0  0  0  0  0
    3.9541   51.4026   22.0812 H   0  0  0  0  0  0
    1.2810   52.8753   21.7472 H   0  0  0  0  0  0
    1.4545   51.1591   21.7438 H   0  0  0  0  0  0
    2.2980   51.2264   24.0861 H   0  0  0  0  0  0
    2.0658   53.4394   25.3624 H   0  0  0  0  0  0
    1.6164   54.2125   23.8930 H   0  0  0  0  0  0
    4.3245   52.8982   24.4534 H   0  0  0  0  0  0
    3.9450   54.6101   24.2309 H   0  0  0  0  0  0
   -0.5643   53.7503   24.1569 H   0  0  0  0  0  0
   -0.7548   52.8951   22.5972 H   0  0  0  0  0  0
   -2.9659   53.1077   23.7906 H   0  0  0  0  0  0
   -2.5084   51.4657   23.4313 H   0  0  0  0  0  0
   -3.3770   51.5853   25.7366 H   0  0  0  0  0  0
   -2.2628   52.8638   26.1434 H   0  0  0  0  0  0
   -1.5222   49.9707   25.4457 H   0  0  0  0  0  0
   -1.4092   50.7104   27.0131 H   0  0  0  0  0  0
    0.8015   50.5761   25.8182 H   0  0  0  0  0  0
    0.3867   52.2723   26.2016 H   0  0  0  0  0  0
   10.6437   57.4268   17.0734 H   0  0  0  0  0  0
   10.2752   57.1286   18.7743 H   0  0  0  0  0  0
   11.7570   56.4974   18.0804 H   0  0  0  0  0  0
   -0.0351   50.8781   23.6308 H   0  0  0  0  0  0
    4.1088   53.7545   20.0108 H   0  0  0  0  0  0
  1  2  1  0  0  0
  1 34  1  0  0  0
  1 35  1  0  0  0
  1 36  1  0  0  0
  2  7  2  0  0  0
  2  3  1  0  0  0
  3  4  2  0  0  0
  3 37  1  0  0  0
  4  5  1  0  0  0
  4 38  1  0  0  0
  5  6  2  0  0  0
  5 33  1  0  0  0
  6  7  1  0  0  0
  6  8  1  0  0  0
  7 39  1  0  0  0
  8  9  2  0  0  0
  8 10  2  0  0  0
  8 11  1  0  0  0
 11 12  1  0  0  0
 12 17  2  0  0  0
 12 13  1  0  0  0
 13 14  2  0  0  0
 13 40  1  0  0  0
 14 15  1  0  0  0
 14 30  1  0  0  0
 15 16  2  0  0  0
 15 18  1  0  0  0
 16 17  1  0  0  0
 16 65  1  0  0  0
 17 41  1  0  0  0
 18 23  1  0  0  0
 18 19  1  0  0  0
 19 20  1  0  0  0
 19 42  1  0  0  0
 19 43  1  0  0  0
 20 21  1  0  0  0
 20 44  1  0  0  0
 20 45  1  0  0  0
 21 22  1  0  0  0
 21 24  1  0  0  0
 21 46  1  0  0  0
 22 23  1  0  0  0
 22 47  1  0  0  0
 22 48  1  0  0  0
 23 49  1  0  0  0
 23 50  1  0  0  0
 24 29  1  0  0  0
 24 25  1  0  0  0
 24 64  1  0  0  0
 25 26  1  0  0  0
 25 51  1  0  0  0
 25 52  1  0  0  0
 26 27  1  0  0  0
 26 53  1  0  0  0
 26 54  1  0  0  0
 27 28  1  0  0  0
 27 55  1  0  0  0
 27 56  1  0  0  0
 28 29  1  0  0  0
 28 57  1  0  0  0
 28 58  1  0  0  0
 29 59  1  0  0  0
 29 60  1  0  0  0
 30 31  2  0  0  0
 30 32  1  0  0  0
 33 61  1  0  0  0
 33 62  1  0  0  0
 33 63  1  0  0  0
M  CHG  4  11  -1  16   1  24   1  32  -1
M  END
> <i_i_glide_confnum>
40

> <i_i_glide_lignum>
3293

> <i_i_glide_posenum>
276

> <i_i_glide_rotatable_bonds>
6

> <i_m_Source_File_Index>
1045

> <b_m_subgroup_collapsed>
0

> <r_i_docking_score>
-3.7992

> <r_i_glide_ecoul>
-0.558051

> <r_i_glide_eff_state_penalty>
0

> <r_i_glide_einternal>
5.92267

> <r_i_glide_emodel>
-38.345

> <r_i_glide_energy>
-30.9803

> <r_i_glide_erotb>
0.452677

> <r_i_glide_esite>
-0.00359063

> <r_i_glide_evdw>
-30.4222

> <r_i_glide_gscore>
-3.7992

> <r_i_glide_hbond>
-0.0150586

> <r_i_glide_ligand_efficiency>
-0.115127

> <r_i_glide_ligand_efficiency_ln>
-0.844922

> <r_i_glide_ligand_efficiency_sa>
-0.369275

> <r_i_glide_lipo>
-1.79483

> <r_i_glide_metal>
0

> <r_i_glide_rewards>
-0.833578

> <s_i_glide_gridfile>
wee1_glide-grid

> <s_m_Source_File>
wee1_decoys_glide_SP.sdf

> <s_m_Source_Path>
/Users/zhangxujun/Desktop

> <s_m_entry_id>
1320

> <s_m_entry_name>
wee1_decoys_glide_SP.1045

> <s_m_subgroup_title>
wee1_decoys_glide_SP

> <s_m_subgroupid>
wee1_decoys_glide_SP


$$$$
