@<TRIPOS>MOLECULE
ZINC39633674_1275
74   77    1
SMALL
USER_CHARGES


@<TRIPOS>ATOM
      1 C1         -0.1436   53.1492   28.5037 C.3       1 UNK         0.0000 
      2 C2          1.1747   53.3627   27.8069 C.ar      1 UNK         0.0000 
      3 C3          1.4836   53.2965   26.4605 C.ar      1 UNK         0.0000 
      4 C4          2.8339   53.6220   26.2880 C.ar      1 UNK         0.0000 
      5 N5          3.2779   53.6634   27.6204 N.pl3     1 UNK         0.0000 
      6 N6          2.2378   53.6564   28.4864 N.2       1 UNK         0.0000 
      7 C7          4.6260   53.6096   28.2905 C.3       1 UNK         0.0000 
      8 C8          4.9827   54.9730   28.8933 C.3       1 UNK         0.0000 
      9 C9          5.7974   53.1521   27.4017 C.3       1 UNK         0.0000 
     10 C10         4.5287   52.5322   29.4112 C.3       1 UNK         0.0000 
     11 C11         3.5768   53.9241   25.0520 C.2       1 UNK         0.0000 
     12 O12         4.6360   54.5427   25.1094 O.2       1 UNK         0.0000 
     13 N13         3.1063   53.4869   23.8442 N.am      1 UNK         0.0000 
     14 C14         1.7466   53.0925   23.5230 C.3       1 UNK         0.0000 
     15 C15         1.6646   53.0310   21.9774 C.3       1 UNK         0.0000 
     16 H16         1.3110   54.0134   21.6821 H         1 UNK         0.0000 
     17 C17         3.1353   52.7681   21.5140 C.3       1 UNK         0.0000 
     18 C18         3.9426   53.4734   22.6408 C.3       1 UNK         0.0000 
     19 C19         3.5476   51.2660   21.4248 C.3       1 UNK         0.0000 
     20 C20         2.9589   50.5003   20.2030 C.3       1 UNK         0.0000 
     21 N21         3.1044   51.2962   18.8856 N.4       1 UNK         0.0000 
     22 C22         2.8548   52.8173   18.9589 C.3       1 UNK         0.0000 
     23 C23         3.6173   53.3717   20.1675 C.3       1 UNK         0.0000 
     24 C24         0.5301   52.0343   21.5886 C.2       1 UNK         0.0000 
     25 O25         0.0335   52.0968   20.4656 O.2       1 UNK         0.0000 
     26 N26         0.0805   51.1438   22.4957 N.am      1 UNK         0.0000 
     27 C27        -0.9759   50.1504   22.3142 C.3       1 UNK         0.0000 
     28 C28        -0.7206   49.0065   23.3213 C.3       1 UNK         0.0000 
     29 C29        -1.8580   47.9873   23.5194 C.3       1 UNK         0.0000 
     30 C30        -2.8954   48.4248   24.5718 C.3       1 UNK         0.0000 
     31 C31        -3.7897   49.6210   24.1902 C.3       1 UNK         0.0000 
     32 C32        -3.0606   50.9031   23.7390 C.3       1 UNK         0.0000 
     33 C33        -2.3901   50.7884   22.3537 C.3       1 UNK         0.0000 
     34 H34        -0.9163   52.8482   27.7991 H         1 UNK         0.0000 
     35 H35        -0.0826   52.3679   29.2612 H         1 UNK         0.0000 
     36 H36        -0.4917   54.0537   28.9997 H         1 UNK         0.0000 
     37 H37         0.7245   53.0874   25.7300 H         1 UNK         0.0000 
     38 H38         5.7322   54.8964   29.6820 H         1 UNK         0.0000 
     39 H39         4.1122   55.4711   29.3189 H         1 UNK         0.0000 
     40 H40         5.4091   55.6169   28.1252 H         1 UNK         0.0000 
     41 H41         5.5037   52.2558   26.8815 H         1 UNK         0.0000 
     42 H42         6.1616   53.8967   26.7038 H         1 UNK         0.0000 
     43 H43         6.6816   52.8994   27.9883 H         1 UNK         0.0000 
     44 H44         3.9776   51.6548   29.0756 H         1 UNK         0.0000 
     45 H45         5.5043   52.1690   29.6831 H         1 UNK         0.0000 
     46 H46         4.0392   52.9003   30.3139 H         1 UNK         0.0000 
     47 H47         1.6585   52.1108   23.9876 H         1 UNK         0.0000 
     48 H48         1.0149   53.8217   23.8763 H         1 UNK         0.0000 
     49 H49         4.0628   54.5245   22.3670 H         1 UNK         0.0000 
     50 H50         4.9547   53.0816   22.7604 H         1 UNK         0.0000 
     51 H51         4.6347   51.1863   21.3747 H         1 UNK         0.0000 
     52 H52         3.2690   50.7444   22.3411 H         1 UNK         0.0000 
     53 H53         3.5029   49.5785   20.0032 H         1 UNK         0.0000 
     54 H54         1.9059   50.2440   20.2868 H         1 UNK         0.0000 
     55 H55         4.0582   51.1127   18.5420 H         1 UNK         0.0000 
     56 H56         3.2230   53.2234   18.0159 H         1 UNK         0.0000 
     57 H57         1.7807   52.9799   19.0080 H         1 UNK         0.0000 
     58 H58         3.5045   54.4561   20.1777 H         1 UNK         0.0000 
     59 H59         4.6903   53.2233   20.0329 H         1 UNK         0.0000 
     60 H60         0.5579   51.0925   23.3822 H         1 UNK         0.0000 
     61 H61        -0.8364   49.7343   21.3122 H         1 UNK         0.0000 
     62 H62         0.1658   48.4780   22.9722 H         1 UNK         0.0000 
     63 H63        -0.4183   49.4032   24.2931 H         1 UNK         0.0000 
     64 H64        -2.3450   47.7636   22.5689 H         1 UNK         0.0000 
     65 H65        -1.4188   47.0466   23.8559 H         1 UNK         0.0000 
     66 H66        -3.5436   47.5769   24.7955 H         1 UNK         0.0000 
     67 H67        -2.3827   48.6463   25.5102 H         1 UNK         0.0000 
     68 H68        -4.4897   49.3135   23.4118 H         1 UNK         0.0000 
     69 H69        -4.4117   49.8657   25.0521 H         1 UNK         0.0000 
     70 H70        -3.7978   51.7078   23.6973 H         1 UNK         0.0000 
     71 H71        -2.3339   51.2160   24.4905 H         1 UNK         0.0000 
     72 H72        -2.3525   51.7819   21.9067 H         1 UNK         0.0000 
     73 H73        -3.0497   50.2194   21.6966 H         1 UNK         0.0000 
     74 H74         2.5184   50.8815   18.1727 H         1 UNK         0.0000 
@<TRIPOS>BOND
     1    1    2 1    
     2    1   34 1    
     3    1   35 1    
     4    1   36 1    
     5    2    6 ar   
     6    2    3 ar   
     7    3    4 ar   
     8    3   37 1    
     9    4    5 ar   
    10    4   11 1    
    11    5    6 ar   
    12    5    7 1    
    13    7    8 1    
    14    7    9 1    
    15    7   10 1    
    16    8   38 1    
    17    8   39 1    
    18    8   40 1    
    19    9   41 1    
    20    9   42 1    
    21    9   43 1    
    22   10   44 1    
    23   10   45 1    
    24   10   46 1    
    25   11   12 2    
    26   11   13 am   BACKBONE|DICT|INTERRES
    27   13   18 1    
    28   13   14 1    
    29   14   15 1    
    30   14   47 1    
    31   14   48 1    
    32   15   16 1    
    33   15   17 1    
    34   15   24 1    
    35   17   23 1    
    36   17   18 1    
    37   17   19 1    
    38   18   49 1    
    39   18   50 1    
    40   19   20 1    
    41   19   51 1    
    42   19   52 1    
    43   20   21 1    
    44   20   53 1    
    45   20   54 1    
    46   21   22 1    
    47   21   55 1    
    48   21   74 1    
    49   22   23 1    
    50   22   56 1    
    51   22   57 1    
    52   23   58 1    
    53   23   59 1    
    54   24   25 2    
    55   24   26 am   BACKBONE|DICT|INTERRES
    56   26   27 1    
    57   26   60 1    
    58   27   33 1    
    59   27   28 1    
    60   27   61 1    
    61   28   29 1    
    62   28   62 1    
    63   28   63 1    
    64   29   30 1    
    65   29   64 1    
    66   29   65 1    
    67   30   31 1    
    68   30   66 1    
    69   30   67 1    
    70   31   32 1    
    71   31   68 1    
    72   31   69 1    
    73   32   33 1    
    74   32   70 1    
    75   32   71 1    
    76   33   72 1    
    77   33   73 1    
@<TRIPOS>SUBSTRUCTURE
     1 UNK         1 GROUP             0       ****    0 ROOT    
