@<TRIPOS>MOLECULE
ZINC40072858_200
62   67    1
SMALL
USER_CHARGES


@<TRIPOS>ATOM
      1 C1         11.2185   51.2883   14.6447 C.2       1 UNK         0.0000 
      2 C2         10.4125   50.3771   13.8473 C.2       1 UNK         0.0000 
      3 C3          9.0569   50.4655   13.7994 C.2       1 UNK         0.0000 
      4 C4          8.3831   51.4538   14.5310 C.2       1 UNK         0.0000 
      5 N5          7.0928   51.6955   14.6125 N.pl3     1 UNK         0.0000 
      6 C6          6.8332   52.8035   15.5463 C.3       1 UNK         0.0000 
      7 C7          8.2438   53.1905   15.9340 C.2       1 UNK         0.0000 
      8 C8          9.1094   52.3547   15.3210 C.2       1 UNK         0.0000 
      9 C9         10.5804   52.2430   15.3517 C.2       1 UNK         0.0000 
     10 C10         8.5720   54.2584   16.8497 C.2       1 UNK         0.0000 
     11 N11         9.5494   54.1885   17.6417 N.2       1 UNK         0.0000 
     12 N12         9.5048   55.3552   18.3965 N.pl3     1 UNK         0.0000 
     13 C13         8.4302   56.2487   17.9914 C.3       1 UNK         0.0000 
     14 H14         8.8475   57.1752   17.5962 H         1 UNK         0.0000 
     15 N15         7.8738   55.4465   16.9097 N.pl3     1 UNK         0.0000 
     16 C16         7.0509   56.0008   15.8262 C.3       1 UNK         0.0000 
     17 C17         5.5548   56.0895   16.0802 C.3       1 UNK         0.0000 
     18 C18         6.3643   57.3468   16.0053 C.3       1 UNK         0.0000 
     19 S19         7.2302   56.6868   19.2957 S.3       1 UNK         0.0000 
     20 C20         7.7069   55.5916   20.6814 C.3       1 UNK         0.0000 
     21 C21         6.5819   55.2970   21.6712 C.2       1 UNK         0.0000 
     22 O22         5.4214   55.2803   21.2734 O.2       1 UNK         0.0000 
     23 N23         6.9621   55.0317   22.9376 N.am      1 UNK         0.0000 
     24 C24         6.1721   54.7067   24.0590 C.ar      1 UNK         0.0000 
     25 C25         6.8461   54.6888   25.2754 C.ar      1 UNK         0.0000 
     26 C26         6.1778   54.3965   26.4578 C.ar      1 UNK         0.0000 
     27 C27         4.8097   54.0964   26.4455 C.ar      1 UNK         0.0000 
     28 C28         4.1304   54.1114   25.2212 C.ar      1 UNK         0.0000 
     29 C29         4.8008   54.4079   24.0354 C.ar      1 UNK         0.0000 
     30 N30         4.1381   53.7808   27.6373 N.pl3     1 UNK         0.0000 
     31 C31         4.7607   53.5622   28.9460 C.3       1 UNK         0.0000 
     32 C32         3.7499   52.8153   29.8140 C.3       1 UNK         0.0000 
     33 C33         2.4260   53.3076   29.2665 C.3       1 UNK         0.0000 
     34 C34         2.7231   53.4285   27.7753 C.3       1 UNK         0.0000 
     35 H35        12.2958   51.2006   14.6667 H         1 UNK         0.0000 
     36 H36        10.9150   49.6039   13.2818 H         1 UNK         0.0000 
     37 H37         8.5148   49.7542   13.1937 H         1 UNK         0.0000 
     38 H38         6.2383   52.4182   16.3784 H         1 UNK         0.0000 
     39 H39         6.2762   53.5702   15.0078 H         1 UNK         0.0000 
     40 H40        11.1853   52.9193   15.9375 H         1 UNK         0.0000 
     41 H41        10.4337   55.6965   18.6169 H         1 UNK         0.0000 
     42 H42         7.4069   55.7628   14.8211 H         1 UNK         0.0000 
     43 H43         4.8687   55.8522   15.2643 H         1 UNK         0.0000 
     44 H44         5.1689   55.7691   17.0520 H         1 UNK         0.0000 
     45 H45         6.5138   57.9415   16.9080 H         1 UNK         0.0000 
     46 H46         6.2618   57.9861   15.1267 H         1 UNK         0.0000 
     47 H47         8.5912   55.9968   21.1782 H         1 UNK         0.0000 
     48 H48         7.9798   54.6232   20.2706 H         1 UNK         0.0000 
     49 H49         7.9580   55.1024   23.1331 H         1 UNK         0.0000 
     50 H50         7.9017   54.8966   25.2828 H         1 UNK         0.0000 
     51 H51         6.7302   54.4017   27.3857 H         1 UNK         0.0000 
     52 H52         3.0753   53.8824   25.1746 H         1 UNK         0.0000 
     53 H53         4.2311   54.3934   23.1174 H         1 UNK         0.0000 
     54 H54         5.0605   54.5038   29.4091 H         1 UNK         0.0000 
     55 H55         5.6316   52.9154   28.8240 H         1 UNK         0.0000 
     56 H56         3.8783   53.0298   30.8753 H         1 UNK         0.0000 
     57 H57         3.8647   51.7363   29.6881 H         1 UNK         0.0000 
     58 H58         1.6079   52.6153   29.4697 H         1 UNK         0.0000 
     59 H59         2.1413   54.2759   29.6830 H         1 UNK         0.0000 
     60 H60         2.5021   52.4986   27.2490 H         1 UNK         0.0000 
     61 H61         2.1137   54.2198   27.3374 H         1 UNK         0.0000 
     62 H62         6.3625   51.1705   14.1374 H         1 UNK         0.0000 
@<TRIPOS>BOND
     1    1    9 2    
     2    1    2 1    
     3    1   35 1    
     4    2    3 2    
     5    2   36 1    
     6    3    4 1    
     7    3   37 1    
     8    4    8 1    
     9    4    5 2    
    10    5    6 1    
    11    5   62 1    
    12    6    7 1    
    13    6   38 1    
    14    6   39 1    
    15    7    8 2    
    16    7   10 1    
    17    8    9 1    
    18    9   40 1    
    19   10   15 1    
    20   10   11 2    
    21   11   12 1    
    22   12   13 1    
    23   12   41 1    
    24   13   14 1    
    25   13   15 1    
    26   13   19 1    
    27   15   16 1    
    28   16   18 1    
    29   16   17 1    
    30   16   42 1    
    31   17   18 1    
    32   17   43 1    
    33   17   44 1    
    34   18   45 1    
    35   18   46 1    
    36   19   20 1    
    37   20   21 1    
    38   20   47 1    
    39   20   48 1    
    40   21   22 2    
    41   21   23 am   BACKBONE|DICT|INTERRES
    42   23   24 1    
    43   23   49 1    
    44   24   29 ar   
    45   24   25 ar   
    46   25   26 ar   
    47   25   50 1    
    48   26   27 ar   
    49   26   51 1    
    50   27   28 ar   
    51   27   30 1    
    52   28   29 ar   
    53   28   52 1    
    54   29   53 1    
    55   30   34 1    
    56   30   31 1    
    57   31   32 1    
    58   31   54 1    
    59   31   55 1    
    60   32   33 1    
    61   32   56 1    
    62   32   57 1    
    63   33   34 1    
    64   33   58 1    
    65   33   59 1    
    66   34   60 1    
    67   34   61 1    
@<TRIPOS>SUBSTRUCTURE
     1 UNK         1 GROUP             0       ****    0 ROOT    
