ZINC49122184_1854
                    3D
 Schrodinger Suite 2024-2.
 43 45  0  0  1  0            999 V2000
    7.1043   54.6883   24.2665 C   0  0  0  0  0  0
    6.2325   53.8894   25.2324 C   0  0  0  0  0  0
    5.5411   54.7961   26.2866 C   0  0  2  0  0  0
    5.3468   55.7685   25.8312 H   0  0  0  0  0  0
    6.5006   55.0199   27.4856 C   0  0  0  0  0  0
    6.6240   53.8096   28.4288 C   0  0  0  0  0  0
    5.2383   53.3191   28.8813 C   0  0  0  0  0  0
    4.3657   53.0142   27.6603 C   0  0  0  0  0  0
    4.1490   54.2853   26.8052 C   0  0  2  0  0  0
    3.7140   55.0523   27.4460 H   0  0  0  0  0  0
    3.1283   54.0643   25.7462 N   0  0  0  0  0  0
    1.8567   53.5069   25.8174 C   0  0  0  0  0  0
    1.3149   53.5051   24.6182 N   0  0  0  0  0  0
    2.2218   54.1209   23.7730 N   0  0  0  0  0  0
    3.3341   54.4964   24.4891 N   0  0  0  0  0  0
    1.1258   53.0080   27.0376 C   0  0  0  0  0  0
    1.1307   53.7900   28.2054 C   0  0  0  0  0  0
    0.4728   53.3649   29.3620 C   0  0  0  0  0  0
   -0.2298   52.1633   29.3526 C   0  0  0  0  0  0
   -0.2856   51.4064   28.1887 C   0  0  0  0  0  0
    0.3900   51.8076   27.0416 C   0  0  0  0  0  0
    0.3043   50.9745   25.9266 N   0  0  0  0  0  0
   -0.8955   51.6968   30.4816 N   0  0  0  0  0  0
    7.5545   54.0326   23.5216 H   0  0  0  0  0  0
    6.5291   55.4449   23.7322 H   0  0  0  0  0  0
    7.9012   55.1905   24.8161 H   0  0  0  0  0  0
    6.8678   53.1570   25.7255 H   0  0  0  0  0  0
    5.5227   53.2972   24.6582 H   0  0  0  0  0  0
    6.1600   55.8585   28.0808 H   0  0  0  0  0  0
    7.4920   55.2976   27.1408 H   0  0  0  0  0  0
    7.1620   52.9949   27.9425 H   0  0  0  0  0  0
    7.2345   54.0936   29.2819 H   0  0  0  0  0  0
    5.3226   52.4220   29.4898 H   0  0  0  0  0  0
    4.7566   54.0710   29.5082 H   0  0  0  0  0  0
    4.9066   52.2883   27.0678 H   0  0  0  0  0  0
    3.4502   52.5638   28.0311 H   0  0  0  0  0  0
    1.6468   54.7375   28.2250 H   0  0  0  0  0  0
    0.5017   53.9717   30.2552 H   0  0  0  0  0  0
   -0.8635   50.4968   28.1734 H   0  0  0  0  0  0
    0.7628   51.2504   25.0703 H   0  0  0  0  0  0
   -0.1762   50.0889   26.0089 H   0  0  0  0  0  0
   -0.8246   52.1170   31.4062 H   0  0  0  0  0  0
   -1.2996   50.7665   30.4312 H   0  0  0  0  0  0
  1  2  1  0  0  0
  1 24  1  0  0  0
  1 25  1  0  0  0
  1 26  1  0  0  0
  2  3  1  0  0  0
  2 27  1  0  0  0
  2 28  1  0  0  0
  3  4  1  0  0  0
  3  9  1  0  0  0
  3  5  1  0  0  0
  5  6  1  0  0  0
  5 29  1  0  0  0
  5 30  1  0  0  0
  6  7  1  0  0  0
  6 31  1  0  0  0
  6 32  1  0  0  0
  7  8  1  0  0  0
  7 33  1  0  0  0
  7 34  1  0  0  0
  8  9  1  0  0  0
  8 35  1  0  0  0
  8 36  1  0  0  0
  9 10  1  0  0  0
  9 11  1  0  0  0
 11 15  1  0  0  0
 11 12  1  0  0  0
 12 13  2  0  0  0
 12 16  1  0  0  0
 13 14  1  0  0  0
 14 15  2  0  0  0
 16 21  2  0  0  0
 16 17  1  0  0  0
 17 18  2  0  0  0
 17 37  1  0  0  0
 18 19  1  0  0  0
 18 38  1  0  0  0
 19 20  2  0  0  0
 19 23  1  0  0  0
 20 21  1  0  0  0
 20 39  1  0  0  0
 21 22  1  0  0  0
 22 40  1  0  0  0
 22 41  1  0  0  0
 23 42  1  0  0  0
 23 43  1  0  0  0
M  END
> <i_i_glide_confnum>
26

> <i_i_glide_lignum>
1855

> <i_i_glide_posenum>
221

> <i_i_glide_rotatable_bonds>
3

> <i_m_Source_File_Index>
4069

> <b_m_subgroup_collapsed>
0

> <r_i_docking_score>
-5.86628

> <r_i_glide_ecoul>
-4.16744

> <r_i_glide_eff_state_penalty>
0

> <r_i_glide_einternal>
5.57676

> <r_i_glide_emodel>
-39.0879

> <r_i_glide_energy>
-30.2753

> <r_i_glide_erotb>
0.442844

> <r_i_glide_esite>
-0.113934

> <r_i_glide_evdw>
-26.1079

> <r_i_glide_gscore>
-5.86628

> <r_i_glide_hbond>
-0.163588

> <r_i_glide_ligand_efficiency>
-0.279347

> <r_i_glide_ligand_efficiency_ln>
-1.45043

> <r_i_glide_ligand_efficiency_sa>
-0.770697

> <r_i_glide_lipo>
-2.11513

> <r_i_glide_metal>
0

> <r_i_glide_rewards>
-1.98597

> <s_i_glide_gridfile>
wee1_glide-grid

> <s_m_Source_File>
wee1_decoys_glide_SP.sdf

> <s_m_Source_Path>
/Users/zhangxujun/Desktop

> <s_m_entry_id>
4344

> <s_m_entry_name>
wee1_decoys_glide_SP.4069

> <s_m_subgroup_title>
wee1_decoys_glide_SP

> <s_m_subgroupid>
wee1_decoys_glide_SP


$$$$
