@<TRIPOS>MOLECULE
ZINC10556737_3249
55   58    1
SMALL
USER_CHARGES


@<TRIPOS>ATOM
      1 C1          6.0403   57.7421   16.0080 C.3       1 UNK         0.0000 
      2 C2          4.9139   57.2701   16.9501 C.3       1 UNK         0.0000 
      3 C3          3.5631   57.2410   16.2038 C.3       1 UNK         0.0000 
      4 C4          5.2314   55.9367   17.6305 C.2       1 UNK         0.0000 
      5 C5          6.3616   55.1289   17.4823 C.2       1 UNK         0.0000 
      6 S6          6.2220   53.7163   18.4814 S.3       1 UNK         0.0000 
      7 C7          4.6842   54.3311   19.0282 C.2       1 UNK         0.0000 
      8 N8          4.3323   55.4683   18.4813 N.2       1 UNK         0.0000 
      9 N9          3.8449   53.6968   19.9358 N.am      1 UNK         0.0000 
     10 C10         4.0673   52.5634   20.6355 C.2       1 UNK         0.0000 
     11 O11         5.1044   51.8998   20.6040 O.2       1 UNK         0.0000 
     12 C12         2.9347   52.1098   21.5258 C.ar      1 UNK         0.0000 
     13 C13         2.7088   50.7425   21.7241 C.ar      1 UNK         0.0000 
     14 C14         1.7201   50.3104   22.6038 C.ar      1 UNK         0.0000 
     15 C15         0.9241   51.2327   23.2839 C.ar      1 UNK         0.0000 
     16 C16         1.1203   52.5988   23.0513 C.ar      1 UNK         0.0000 
     17 C17         2.1247   53.0350   22.1955 C.ar      1 UNK         0.0000 
     18 N18        -0.0407   50.7178   24.1654 N.pl3     1 UNK         0.0000 
     19 S19        -1.0450   51.6457   25.3028 S.o2      1 UNK         0.0000 
     20 O20        -1.4452   52.8962   24.6504 O.2       1 UNK         0.0000 
     21 O21        -2.0692   50.7139   25.7821 O.2       1 UNK         0.0000 
     22 C22         0.0171   52.0441   26.6948 C.ar      1 UNK         0.0000 
     23 C23        -0.2555   51.5315   27.9642 C.ar      1 UNK         0.0000 
     24 C24         0.5575   51.8776   29.0446 C.ar      1 UNK         0.0000 
     25 C25         1.6609   52.7154   28.8755 C.ar      1 UNK         0.0000 
     26 C26         1.9283   53.2470   27.6002 C.ar      1 UNK         0.0000 
     27 C27         1.1094   52.8975   26.5268 C.ar      1 UNK         0.0000 
     28 O28         2.9410   54.1529   27.3870 O.3       1 UNK         0.0000 
     29 C29         4.2667   53.6770   27.5666 C.3       1 UNK         0.0000 
     30 C30         4.6788   53.5756   29.0393 C.3       1 UNK         0.0000 
     31 C31         3.8196   52.6128   29.8695 C.3       1 UNK         0.0000 
     32 O32         2.4536   53.0094   29.9632 O.3       1 UNK         0.0000 
     33 H33         6.9828   57.8627   16.5439 H         1 UNK         0.0000 
     34 H34         5.8005   58.7067   15.5587 H         1 UNK         0.0000 
     35 H35         6.2062   57.0347   15.1947 H         1 UNK         0.0000 
     36 H36         4.8328   58.0347   17.7227 H         1 UNK         0.0000 
     37 H37         2.7316   57.0308   16.8772 H         1 UNK         0.0000 
     38 H38         3.3534   58.1987   15.7257 H         1 UNK         0.0000 
     39 H39         3.5593   56.4780   15.4233 H         1 UNK         0.0000 
     40 H40         7.2269   55.2852   16.8581 H         1 UNK         0.0000 
     41 H41         2.9500   54.1521   20.0789 H         1 UNK         0.0000 
     42 H42         3.3131   50.0088   21.2083 H         1 UNK         0.0000 
     43 H43         1.5856   49.2483   22.7569 H         1 UNK         0.0000 
     44 H44         0.5279   53.3554   23.5336 H         1 UNK         0.0000 
     45 H45         2.2723   54.0991   22.0797 H         1 UNK         0.0000 
     46 H46        -0.0636   49.7172   24.2934 H         1 UNK         0.0000 
     47 H47        -1.0975   50.8668   28.1232 H         1 UNK         0.0000 
     48 H48         0.3254   51.4905   30.0231 H         1 UNK         0.0000 
     49 H49         1.3260   53.3302   25.5641 H         1 UNK         0.0000 
     50 H50         4.9288   54.3820   27.0603 H         1 UNK         0.0000 
     51 H51         4.4131   52.7296   27.0447 H         1 UNK         0.0000 
     52 H52         4.6513   54.5677   29.4913 H         1 UNK         0.0000 
     53 H53         5.7190   53.2533   29.0765 H         1 UNK         0.0000 
     54 H54         4.2043   52.5798   30.8887 H         1 UNK         0.0000 
     55 H55         3.9046   51.5887   29.5018 H         1 UNK         0.0000 
@<TRIPOS>BOND
     1    1    2 1    
     2    1   33 1    
     3    1   34 1    
     4    1   35 1    
     5    2    3 1    
     6    2    4 1    
     7    2   36 1    
     8    3   37 1    
     9    3   38 1    
    10    3   39 1    
    11    4    8 1    
    12    4    5 2    
    13    5    6 1    
    14    5   40 1    
    15    6    7 1    
    16    7    8 2    
    17    7    9 am   BACKBONE|DICT|INTERRES
    18    9   10 am   BACKBONE|DICT|INTERRES
    19    9   41 1    
    20   10   11 2    
    21   10   12 1    
    22   12   17 ar   
    23   12   13 ar   
    24   13   14 ar   
    25   13   42 1    
    26   14   15 ar   
    27   14   43 1    
    28   15   16 ar   
    29   15   18 1    
    30   16   17 ar   
    31   16   44 1    
    32   17   45 1    
    33   18   19 1    
    34   18   46 1    
    35   19   20 2    
    36   19   21 2    
    37   19   22 1    
    38   22   27 ar   
    39   22   23 ar   
    40   23   24 ar   
    41   23   47 1    
    42   24   25 ar   
    43   24   48 1    
    44   25   32 1    
    45   25   26 ar   
    46   26   27 ar   
    47   26   28 1    
    48   27   49 1    
    49   28   29 1    
    50   29   30 1    
    51   29   50 1    
    52   29   51 1    
    53   30   31 1    
    54   30   52 1    
    55   30   53 1    
    56   31   32 1    
    57   31   54 1    
    58   31   55 1    
@<TRIPOS>SUBSTRUCTURE
     1 UNK         1 GROUP             0       ****    0 ROOT    
