@<TRIPOS>MOLECULE
ZINC04259838_812
52   54    1
SMALL
USER_CHARGES


@<TRIPOS>ATOM
      1 C1         -3.4424   50.8964   27.9150 C.3       1 UNK         0.0000 
      2 C2         -2.6254   50.7015   26.6355 C.3       1 UNK         0.0000 
      3 O3         -1.4146   51.4365   26.7445 O.3       1 UNK         0.0000 
      4 C4         -0.5416   51.4899   25.7234 C.2       1 UNK         0.0000 
      5 O5         -0.7222   50.9323   24.6362 O.2       1 UNK         0.0000 
      6 C6          0.6490   52.3254   26.0184 C.2       1 UNK         0.0000 
      7 C7          1.0282   52.8960   27.2798 C.2       1 UNK         0.0000 
      8 C8          2.2016   53.6702   27.1994 C.2       1 UNK         0.0000 
      9 S9          2.8693   53.6968   25.6186 S.3       1 UNK         0.0000 
     10 C10         1.6115   52.6495   25.0340 C.2       1 UNK         0.0000 
     11 N11         1.6263   52.1363   23.7373 N.am      1 UNK         0.0000 
     12 C12         2.4734   52.4006   22.7086 C.2       1 UNK         0.0000 
     13 O13         3.3219   53.2963   22.7128 O.2       1 UNK         0.0000 
     14 C14         2.3770   51.4542   21.5517 C.2       1 UNK         0.0000 
     15 O15         3.3632   51.2658   20.8340 O.2       1 UNK         0.0000 
     16 N16         1.1545   50.8595   21.3893 N.am      1 UNK         0.0000 
     17 N17         0.6976   49.8976   20.5091 N.2       1 UNK         0.0000 
     18 C18         1.4735   49.2082   19.7580 C.2       1 UNK         0.0000 
     19 C19         0.9861   48.1908   18.8157 C.ar      1 UNK         0.0000 
     20 C20        -0.3751   47.8690   18.6868 C.ar      1 UNK         0.0000 
     21 C21        -0.7992   46.9057   17.7705 C.ar      1 UNK         0.0000 
     22 C22         0.1320   46.2478   16.9676 C.ar      1 UNK         0.0000 
     23 C23         1.4870   46.5522   17.0830 C.ar      1 UNK         0.0000 
     24 C24         1.9054   47.5126   18.0049 C.ar      1 UNK         0.0000 
     25 Cl25        2.6443   45.7481   16.0827 Cl        1 UNK         0.0000 
     26 C26         2.8430   54.4500   28.3416 C.3       1 UNK         0.0000 
     27 C27         2.3261   53.8893   29.6815 C.3       1 UNK         0.0000 
     28 H28         2.5558   54.6475   30.4295 H         1 UNK         0.0000 
     29 C29         0.7898   53.7972   29.6474 C.3       1 UNK         0.0000 
     30 C30         0.2869   52.7536   28.6253 C.3       1 UNK         0.0000 
     31 C31         3.0368   52.5931   30.1245 C.3       1 UNK         0.0000 
     32 H32        -4.3714   50.3284   27.8693 H         1 UNK         0.0000 
     33 H33        -2.8860   50.5496   28.7879 H         1 UNK         0.0000 
     34 H34        -3.6958   51.9442   28.0674 H         1 UNK         0.0000 
     35 H35        -3.1979   51.0431   25.7712 H         1 UNK         0.0000 
     36 H36        -2.4056   49.6429   26.4877 H         1 UNK         0.0000 
     37 H37         0.9229   51.4224   23.6085 H         1 UNK         0.0000 
     38 H38         0.4020   51.2120   21.9603 H         1 UNK         0.0000 
     39 H39         2.5542   49.3146   19.7643 H         1 UNK         0.0000 
     40 H40        -1.1164   48.3705   19.2926 H         1 UNK         0.0000 
     41 H41        -1.8502   46.6731   17.6814 H         1 UNK         0.0000 
     42 H42        -0.1964   45.5078   16.2535 H         1 UNK         0.0000 
     43 H43         2.9633   47.7361   18.0767 H         1 UNK         0.0000 
     44 H44         2.5980   55.5104   28.2622 H         1 UNK         0.0000 
     45 H45         3.9315   54.3899   28.2956 H         1 UNK         0.0000 
     46 H46         0.3658   54.7747   29.4141 H         1 UNK         0.0000 
     47 H47         0.4099   53.5190   30.6323 H         1 UNK         0.0000 
     48 H48         0.4208   51.7451   29.0193 H         1 UNK         0.0000 
     49 H49        -0.7865   52.8987   28.5234 H         1 UNK         0.0000 
     50 H50         2.8994   51.7899   29.4006 H         1 UNK         0.0000 
     51 H51         4.1098   52.7501   30.2356 H         1 UNK         0.0000 
     52 H52         2.6575   52.2446   31.0854 H         1 UNK         0.0000 
@<TRIPOS>BOND
     1    1    2 1    
     2    1   32 1    
     3    1   33 1    
     4    1   34 1    
     5    2    3 1    
     6    2   35 1    
     7    2   36 1    
     8    3    4 1    
     9    4    5 2    
    10    4    6 1    
    11    6   10 2    
    12    6    7 1    
    13    7   30 1    
    14    7    8 2    
    15    8    9 1    
    16    8   26 1    
    17    9   10 1    
    18   10   11 am   BACKBONE|DICT|INTERRES
    19   11   12 am   BACKBONE|DICT|INTERRES
    20   11   37 1    
    21   12   13 2    
    22   12   14 1    
    23   14   15 2    
    24   14   16 am   BACKBONE|DICT|INTERRES
    25   16   17 1    
    26   16   38 1    
    27   17   18 2    
    28   18   19 1    
    29   18   39 1    
    30   19   24 ar   
    31   19   20 ar   
    32   20   21 ar   
    33   20   40 1    
    34   21   22 ar   
    35   21   41 1    
    36   22   23 ar   
    37   22   42 1    
    38   23   24 ar   
    39   23   25 1    
    40   24   43 1    
    41   26   27 1    
    42   26   44 1    
    43   26   45 1    
    44   27   28 1    
    45   27   29 1    
    46   27   31 1    
    47   29   30 1    
    48   29   46 1    
    49   29   47 1    
    50   30   48 1    
    51   30   49 1    
    52   31   50 1    
    53   31   51 1    
    54   31   52 1    
@<TRIPOS>SUBSTRUCTURE
     1 UNK         1 GROUP             0       ****    0 ROOT    
