@<TRIPOS>MOLECULE
ZINC48837297_4739
36   37    1
SMALL
USER_CHARGES


@<TRIPOS>ATOM
      1 C1          5.9306   54.4980   27.3198 C.ar      1 UNK         0.0000 
      2 C2          5.0522   53.9890   28.2679 C.ar      1 UNK         0.0000 
      3 C3          3.7565   53.5650   27.9242 C.ar      1 UNK         0.0000 
      4 C4          3.3395   53.6965   26.5686 C.ar      1 UNK         0.0000 
      5 C5          4.2382   54.2330   25.6292 C.ar      1 UNK         0.0000 
      6 C6          5.5193   54.6171   26.0009 C.ar      1 UNK         0.0000 
      7 Br7         6.7044   55.2966   24.6865 Br        1 UNK         0.0000 
      8 N8          2.0454   53.2536   26.2015 N.am      1 UNK         0.0000 
      9 C9          1.4188   53.1902   25.0010 C.2       1 UNK         0.0000 
     10 O10         1.8698   53.7032   23.9759 O.2       1 UNK         0.0000 
     11 N11         0.2427   52.4914   24.9951 N.am      1 UNK         0.0000 
     12 C12        -0.4588   52.2610   23.7174 C.3       1 UNK         0.0000 
     13 C13        -0.5654   50.7364   23.5476 C.3       1 UNK         0.0000 
     14 C14        -1.4045   50.1145   24.6740 C.3       1 UNK         0.0000 
     15 C15        -0.9648   50.5770   26.0825 C.3       1 UNK         0.0000 
     16 H16        -1.7488   50.3603   26.8140 H         1 UNK         0.0000 
     17 C17        -0.4833   52.0533   26.2188 C.3       1 UNK         0.0000 
     18 N18         0.2293   49.6972   26.4817 N.4       1 UNK         0.0000 
     19 C19         2.8934   52.9703   29.0112 C.2       1 UNK         0.0000 
     20 O20         2.0199   52.1305   28.6835 O.co2     1 UNK         0.0000 
     21 O21         3.1065   53.3385   30.1913 O.co2     1 UNK         0.0000 
     22 H22         6.9244   54.8023   27.6148 H         1 UNK         0.0000 
     23 H23         5.4069   53.9052   29.2819 H         1 UNK         0.0000 
     24 H24         3.9902   54.3513   24.5884 H         1 UNK         0.0000 
     25 H25         1.5711   52.8156   26.9824 H         1 UNK         0.0000 
     26 H26        -1.4513   52.7073   23.7929 H         1 UNK         0.0000 
     27 H27         0.0192   52.7356   22.8581 H         1 UNK         0.0000 
     28 H28        -1.0315   50.5117   22.5871 H         1 UNK         0.0000 
     29 H29         0.4300   50.2899   23.5019 H         1 UNK         0.0000 
     30 H30        -2.4366   50.4340   24.5182 H         1 UNK         0.0000 
     31 H31        -1.3879   49.0265   24.5822 H         1 UNK         0.0000 
     32 H32         0.1420   52.1024   27.1083 H         1 UNK         0.0000 
     33 H33        -1.3466   52.6975   26.3897 H         1 UNK         0.0000 
     34 H34         0.8899   49.5993   25.7253 H         1 UNK         0.0000 
     35 H35         0.6967   50.0894   27.2881 H         1 UNK         0.0000 
     36 H36        -0.1144   48.7805   26.7536 H         1 UNK         0.0000 
@<TRIPOS>BOND
     1    1    6 ar   
     2    1    2 ar   
     3    1   22 1    
     4    2    3 ar   
     5    2   23 1    
     6    3    4 ar   
     7    3   19 1    
     8    4    5 ar   
     9    4    8 1    
    10    5    6 ar   
    11    5   24 1    
    12    6    7 1    
    13    8    9 am   BACKBONE|DICT|INTERRES
    14    8   25 1    
    15    9   10 2    
    16    9   11 am   BACKBONE|DICT|INTERRES
    17   11   17 1    
    18   11   12 1    
    19   12   13 1    
    20   12   26 1    
    21   12   27 1    
    22   13   14 1    
    23   13   28 1    
    24   13   29 1    
    25   14   15 1    
    26   14   30 1    
    27   14   31 1    
    28   15   16 1    
    29   15   17 1    
    30   15   18 1    
    31   17   32 1    
    32   17   33 1    
    33   18   34 1    
    34   18   35 1    
    35   18   36 1    
    36   19   20 2    
    37   19   21 1    
@<TRIPOS>SUBSTRUCTURE
     1 UNK         1 GROUP             0       ****    0 ROOT    
