ZINC23453946_1077
                    3D
 Schrodinger Suite 2024-2.
 69 72  0  0  1  0            999 V2000
    4.6819   57.3594   17.0095 C   0  0  0  0  0  0
    6.0308   57.4547   17.4538 O   0  0  0  0  0  0
    6.4464   56.7111   18.5426 C   0  0  0  0  0  0
    7.7948   56.8069   18.8800 C   0  0  0  0  0  0
    8.3103   56.0966   19.9596 C   0  0  0  0  0  0
    7.4722   55.2973   20.7273 C   0  0  0  0  0  0
    6.1166   55.1481   20.4063 C   0  0  0  0  0  0
    5.6171   55.8712   19.3060 C   0  0  0  0  0  0
    5.2629   54.1141   21.1735 C   0  0  2  0  0  0
    5.8105   53.1728   21.1567 H   0  0  0  0  0  0
    3.8712   53.8419   20.5648 C   0  0  0  0  0  0
    3.2586   52.5367   21.1298 N   0  3  0  0  0  0
    1.7238   52.6603   21.3003 C   0  0  0  0  0  0
    1.1879   51.3455   21.8959 C   0  0  0  0  0  0
    1.5603   50.1922   21.0466 N   0  0  0  0  0  0
    3.0077   50.0374   20.7808 C   0  0  0  0  0  0
    3.6735   51.3245   20.2548 C   0  0  0  0  0  0
    0.3783   49.5561   19.8816 S   0  0  0  0  0  0
    0.9772   48.4011   19.2010 O   0  0  0  0  0  0
   -0.9031   49.4320   20.5865 O   0  0  0  0  0  0
    0.1793   50.8574   18.6629 C   0  0  0  0  0  0
   -0.8565   51.7849   18.8028 C   0  0  0  0  0  0
   -1.0022   52.8134   17.8748 C   0  0  0  0  0  0
   -0.1088   52.9211   16.8103 C   0  0  0  0  0  0
    0.9306   52.0035   16.6499 C   0  0  0  0  0  0
    1.0709   50.9629   17.5884 C   0  0  0  0  0  0
    1.7547   52.1970   15.5603 O   0  0  0  0  0  0
    2.8311   51.2962   15.3407 C   0  0  0  0  0  0
    4.9878   54.4960   22.5275 O   0  0  0  0  0  0
    6.0544   54.4891   23.4736 C   0  0  0  0  0  0
    5.5315   54.3955   24.9070 C   0  0  0  0  0  0
    6.4548   54.4090   25.9526 C   0  0  0  0  0  0
    6.0371   54.2750   27.2737 C   0  0  0  0  0  0
    4.6797   54.1161   27.5555 C   0  0  0  0  0  0
    3.7436   54.1190   26.5180 C   0  0  0  0  0  0
    4.1680   54.2640   25.1970 C   0  0  0  0  0  0
    4.2424   53.9431   28.9349 C   0  0  0  0  0  0
    3.8947   53.8035   30.0332 N   0  0  0  0  0  0
    4.5510   57.9997   16.1351 H   0  0  0  0  0  0
    4.4270   56.3402   16.7154 H   0  0  0  0  0  0
    3.9754   57.6953   17.7674 H   0  0  0  0  0  0
    8.4499   57.4355   18.2912 H   0  0  0  0  0  0
    9.3594   56.1739   20.2074 H   0  0  0  0  0  0
    7.9110   54.7583   21.5545 H   0  0  0  0  0  0
    4.5803   55.7864   19.0299 H   0  0  0  0  0  0
    3.2112   54.6439   20.8815 H   0  0  0  0  0  0
    3.8477   53.7537   19.4781 H   0  0  0  0  0  0
    1.5508   53.4846   21.9945 H   0  0  0  0  0  0
    1.2899   52.8960   20.3267 H   0  0  0  0  0  0
    1.5833   51.1743   22.9002 H   0  0  0  0  0  0
    0.1014   51.3700   21.9837 H   0  0  0  0  0  0
    3.1044   49.2647   20.0190 H   0  0  0  0  0  0
    3.4965   49.6736   21.6817 H   0  0  0  0  0  0
    3.4302   51.5194   19.2074 H   0  0  0  0  0  0
    4.7575   51.2492   20.3431 H   0  0  0  0  0  0
   -1.5504   51.7081   19.6277 H   0  0  0  0  0  0
   -1.8030   53.5301   17.9778 H   0  0  0  0  0  0
   -0.2257   53.7210   16.0930 H   0  0  0  0  0  0
    1.8636   50.2353   17.4915 H   0  0  0  0  0  0
    3.3896   51.5990   14.4557 H   0  0  0  0  0  0
    3.5186   51.3041   16.1852 H   0  0  0  0  0  0
    2.4758   50.2770   15.1804 H   0  0  0  0  0  0
    6.6374   55.4056   23.3703 H   0  0  0  0  0  0
    6.7181   53.6388   23.2988 H   0  0  0  0  0  0
    7.5051   54.5042   25.7342 H   0  0  0  0  0  0
    6.7735   54.2828   28.0661 H   0  0  0  0  0  0
    2.6887   54.0033   26.7214 H   0  0  0  0  0  0
    3.4331   54.2583   24.4059 H   0  0  0  0  0  0
    3.6292   52.3960   22.0603 H   0  0  0  0  0  0
  1  2  1  0  0  0
  1 39  1  0  0  0
  1 40  1  0  0  0
  1 41  1  0  0  0
  2  3  1  0  0  0
  3  8  2  0  0  0
  3  4  1  0  0  0
  4  5  2  0  0  0
  4 42  1  0  0  0
  5  6  1  0  0  0
  5 43  1  0  0  0
  6  7  2  0  0  0
  6 44  1  0  0  0
  7  8  1  0  0  0
  7  9  1  0  0  0
  8 45  1  0  0  0
  9 10  1  0  0  0
  9 11  1  0  0  0
  9 29  1  0  0  0
 11 12  1  0  0  0
 11 46  1  0  0  0
 11 47  1  0  0  0
 12 17  1  0  0  0
 12 13  1  0  0  0
 12 69  1  0  0  0
 13 14  1  0  0  0
 13 48  1  0  0  0
 13 49  1  0  0  0
 14 15  1  0  0  0
 14 50  1  0  0  0
 14 51  1  0  0  0
 15 16  1  0  0  0
 15 18  1  0  0  0
 16 17  1  0  0  0
 16 52  1  0  0  0
 16 53  1  0  0  0
 17 54  1  0  0  0
 17 55  1  0  0  0
 18 19  2  0  0  0
 18 20  2  0  0  0
 18 21  1  0  0  0
 21 26  2  0  0  0
 21 22  1  0  0  0
 22 23  2  0  0  0
 22 56  1  0  0  0
 23 24  1  0  0  0
 23 57  1  0  0  0
 24 25  2  0  0  0
 24 58  1  0  0  0
 25 26  1  0  0  0
 25 27  1  0  0  0
 26 59  1  0  0  0
 27 28  1  0  0  0
 28 60  1  0  0  0
 28 61  1  0  0  0
 28 62  1  0  0  0
 29 30  1  0  0  0
 30 31  1  0  0  0
 30 63  1  0  0  0
 30 64  1  0  0  0
 31 36  2  0  0  0
 31 32  1  0  0  0
 32 33  2  0  0  0
 32 65  1  0  0  0
 33 34  1  0  0  0
 33 66  1  0  0  0
 34 35  2  0  0  0
 34 37  1  0  0  0
 35 36  1  0  0  0
 35 67  1  0  0  0
 36 68  1  0  0  0
 37 38  3  0  0  0
M  CHG  1  12   1
M  END
> <i_i_glide_confnum>
137

> <i_i_glide_lignum>
1078

> <i_i_glide_posenum>
390

> <i_i_glide_rotatable_bonds>
11

> <i_m_Source_File_Index>
1429

> <b_m_subgroup_collapsed>
0

> <r_i_docking_score>
-5.67808

> <r_i_glide_ecoul>
-6.06924

> <r_i_glide_eff_state_penalty>
0

> <r_i_glide_einternal>
9.11062

> <r_i_glide_emodel>
-59.9877

> <r_i_glide_energy>
-45.4903

> <r_i_glide_erotb>
0.602312

> <r_i_glide_esite>
-0.0286156

> <r_i_glide_evdw>
-39.421

> <r_i_glide_gscore>
-5.67808

> <r_i_glide_hbond>
-0.286456

> <r_i_glide_ligand_efficiency>
-0.153462

> <r_i_glide_ligand_efficiency_ln>
-1.23144

> <r_i_glide_ligand_efficiency_sa>
-0.511368

> <r_i_glide_lipo>
-2.62509

> <r_i_glide_metal>
0

> <r_i_glide_rewards>
-0.458794

> <s_i_glide_gridfile>
wee1_glide-grid

> <s_m_Source_File>
wee1_decoys_glide_SP.sdf

> <s_m_Source_Path>
/Users/zhangxujun/Desktop

> <s_m_entry_id>
1704

> <s_m_entry_name>
wee1_decoys_glide_SP.1429

> <s_m_subgroup_title>
wee1_decoys_glide_SP

> <s_m_subgroupid>
wee1_decoys_glide_SP


$$$$
