@<TRIPOS>MOLECULE
ZINC20693524_4276
58   61    1
SMALL
USER_CHARGES


@<TRIPOS>ATOM
      1 C1          3.3920   54.1893   17.8700 C.3       1 UNK         0.0000 
      2 C2          3.0327   52.6935   17.9079 C.3       1 UNK         0.0000 
      3 C3          1.8133   52.3353   18.7870 C.3       1 UNK         0.0000 
      4 H4          2.0212   52.6996   19.7947 H         1 UNK         0.0000 
      5 C5          0.5123   52.9768   18.2634 C.3       1 UNK         0.0000 
      6 N6          1.7219   50.8553   18.8659 N.pl3     1 UNK         0.0000 
      7 S7          0.3800   49.9796   19.6032 S.o2      1 UNK         0.0000 
      8 O8         -0.8905   50.4921   19.0771 O.2       1 UNK         0.0000 
      9 O9          0.7022   48.5517   19.5090 O.2       1 UNK         0.0000 
     10 C10         0.4516   50.3869   21.3447 C.ar      1 UNK         0.0000 
     11 C11         1.4803   49.8652   22.1254 C.ar      1 UNK         0.0000 
     12 C12         1.5020   50.1137   23.4939 C.ar      1 UNK         0.0000 
     13 C13         0.4924   50.8673   24.0974 C.ar      1 UNK         0.0000 
     14 C14        -0.5291   51.4487   23.3145 C.ar      1 UNK         0.0000 
     15 C15        -0.5288   51.1886   21.9360 C.ar      1 UNK         0.0000 
     16 C16        -1.6261   52.3125   23.9509 C.3       1 UNK         0.0000 
     17 H17        -1.5267   53.3241   23.5550 H         1 UNK         0.0000 
     18 C18        -3.0177   51.7517   23.7187 C.2       1 UNK         0.0000 
     19 C19        -3.5063   51.1636   24.8225 C.2       1 UNK         0.0000 
     20 C20        -2.5306   51.2684   25.9708 C.3       1 UNK         0.0000 
     21 C21        -1.5463   52.3459   25.4877 C.3       1 UNK         0.0000 
     22 H22        -1.9638   53.2968   25.8198 H         1 UNK         0.0000 
     23 C23        -0.0848   52.2911   26.0221 C.3       1 UNK         0.0000 
     24 H24         0.4473   53.1405   25.5898 H         1 UNK         0.0000 
     25 N25         0.5871   51.1123   25.4818 N.pl3     1 UNK         0.0000 
     26 C26         0.0377   52.4681   27.5445 C.ar      1 UNK         0.0000 
     27 C27        -0.5209   51.5382   28.4243 C.ar      1 UNK         0.0000 
     28 C28        -0.4525   51.7292   29.7999 C.ar      1 UNK         0.0000 
     29 C29         0.2217   52.8295   30.3241 C.ar      1 UNK         0.0000 
     30 C30         0.8015   53.7797   29.4708 C.ar      1 UNK         0.0000 
     31 C31         0.7033   53.5798   28.0817 C.ar      1 UNK         0.0000 
     32 O32         1.4305   54.8715   30.0481 O.3       1 UNK         0.0000 
     33 C33         1.9268   55.9150   29.2165 C.3       1 UNK         0.0000 
     34 O34         0.3044   52.9644   31.6862 O.3       1 UNK         0.0000 
     35 H35         4.3305   54.3455   17.3379 H         1 UNK         0.0000 
     36 H36         3.5115   54.5943   18.8756 H         1 UNK         0.0000 
     37 H37         2.6319   54.7802   17.3593 H         1 UNK         0.0000 
     38 H38         2.8832   52.3239   16.8917 H         1 UNK         0.0000 
     39 H39         3.9048   52.1547   18.2820 H         1 UNK         0.0000 
     40 H40         0.6261   54.0449   18.0822 H         1 UNK         0.0000 
     41 H41         0.1871   52.5169   17.3296 H         1 UNK         0.0000 
     42 H42        -0.2944   52.8843   18.9881 H         1 UNK         0.0000 
     43 H43         2.6064   50.3453   18.7766 H         1 UNK         0.0000 
     44 H44         2.2508   49.2521   21.6785 H         1 UNK         0.0000 
     45 H45         2.3045   49.6967   24.0820 H         1 UNK         0.0000 
     46 H46        -1.3176   51.6005   21.3235 H         1 UNK         0.0000 
     47 H47        -3.5041   51.7882   22.7573 H         1 UNK         0.0000 
     48 H48        -4.4554   50.6561   24.9156 H         1 UNK         0.0000 
     49 H49        -2.0481   50.3063   26.1511 H         1 UNK         0.0000 
     50 H50        -3.0251   51.5713   26.8949 H         1 UNK         0.0000 
     51 H51         1.3728   50.7773   26.0173 H         1 UNK         0.0000 
     52 H52        -1.0129   50.6505   28.0572 H         1 UNK         0.0000 
     53 H53        -0.9050   50.9999   30.4583 H         1 UNK         0.0000 
     54 H54         1.1416   54.2907   27.3991 H         1 UNK         0.0000 
     55 H55         2.3052   56.7253   29.8398 H         1 UNK         0.0000 
     56 H56         2.7482   55.5614   28.5913 H         1 UNK         0.0000 
     57 H57         1.1450   56.3322   28.5792 H         1 UNK         0.0000 
     58 H58        -0.3333   52.4178   32.1788 H         1 UNK         0.0000 
@<TRIPOS>BOND
     1    1    2 1    
     2    1   35 1    
     3    1   36 1    
     4    1   37 1    
     5    2    3 1    
     6    2   38 1    
     7    2   39 1    
     8    3    4 1    
     9    3    5 1    
    10    3    6 1    
    11    5   40 1    
    12    5   41 1    
    13    5   42 1    
    14    6    7 1    
    15    6   43 1    
    16    7    8 2    
    17    7    9 2    
    18    7   10 1    
    19   10   15 ar   
    20   10   11 ar   
    21   11   12 ar   
    22   11   44 1    
    23   12   13 ar   
    24   12   45 1    
    25   13   25 1    
    26   13   14 ar   
    27   14   15 ar   
    28   14   16 1    
    29   15   46 1    
    30   16   17 1    
    31   16   21 1    
    32   16   18 1    
    33   18   19 2    
    34   18   47 1    
    35   19   20 1    
    36   19   48 1    
    37   20   21 1    
    38   20   49 1    
    39   20   50 1    
    40   21   22 1    
    41   21   23 1    
    42   23   24 1    
    43   23   25 1    
    44   23   26 1    
    45   25   51 1    
    46   26   31 ar   
    47   26   27 ar   
    48   27   28 ar   
    49   27   52 1    
    50   28   29 ar   
    51   28   53 1    
    52   29   30 ar   
    53   29   34 1    
    54   30   31 ar   
    55   30   32 1    
    56   31   54 1    
    57   32   33 1    
    58   33   55 1    
    59   33   56 1    
    60   33   57 1    
    61   34   58 1    
@<TRIPOS>SUBSTRUCTURE
     1 UNK         1 GROUP             0       ****    0 ROOT    
