@<TRIPOS>MOLECULE
ZINC48813954_1645
33   34    1
SMALL
USER_CHARGES


@<TRIPOS>ATOM
      1 C1          6.6698   54.0970   26.9072 C.ar      1 UNK         0.0000 
      2 C2          6.0189   53.7163   28.0808 C.ar      1 UNK         0.0000 
      3 C3          4.6235   53.5846   28.1180 C.ar      1 UNK         0.0000 
      4 C4          3.8834   53.8514   26.9535 C.ar      1 UNK         0.0000 
      5 C5          4.5408   54.2458   25.7873 C.ar      1 UNK         0.0000 
      6 C6          5.9409   54.3501   25.7442 C.ar      1 UNK         0.0000 
      7 N7          6.6533   54.7108   24.5822 N.am      1 UNK         0.0000 
      8 C8          6.2797   54.4848   23.3058 C.2       1 UNK         0.0000 
      9 O9          5.2848   53.8395   22.9755 O.2       1 UNK         0.0000 
     10 N10         7.1015   55.0760   22.4217 N.am      1 UNK         0.0000 
     11 C11         6.7035   55.6670   21.1329 C.3       1 UNK         0.0000 
     12 H12         6.3518   56.6899   21.2859 H         1 UNK         0.0000 
     13 C13         7.9425   55.7316   20.2074 C.3       1 UNK         0.0000 
     14 C14         7.5045   56.2205   18.8223 C.3       1 UNK         0.0000 
     15 S15         5.8592   55.3766   18.5317 S.o2      1 UNK         0.0000 
     16 O16         4.8720   56.3899   18.1471 O.2       1 UNK         0.0000 
     17 O17         6.0488   54.1656   17.7273 O.2       1 UNK         0.0000 
     18 C18         5.6245   54.8961   20.3268 C.3       1 UNK         0.0000 
     19 Cl19        2.1589   53.6971   26.8945 Cl        1 UNK         0.0000 
     20 C20         3.9554   53.1811   29.3867 C.2       1 UNK         0.0000 
     21 O21         3.9488   51.9636   29.6828 O.co2     1 UNK         0.0000 
     22 O22         3.4668   54.0998   30.0818 O.co2     1 UNK         0.0000 
     23 H23         7.7452   54.1749   26.9159 H         1 UNK         0.0000 
     24 H24         6.6139   53.5189   28.9594 H         1 UNK         0.0000 
     25 H25         3.9452   54.4545   24.9124 H         1 UNK         0.0000 
     26 H26         7.5741   55.0965   24.7217 H         1 UNK         0.0000 
     27 H27         8.0408   55.2931   22.7320 H         1 UNK         0.0000 
     28 H28         8.7247   56.3658   20.6255 H         1 UNK         0.0000 
     29 H29         8.4007   54.7451   20.1204 H         1 UNK         0.0000 
     30 H30         7.3046   57.2904   18.8777 H         1 UNK         0.0000 
     31 H31         8.1772   56.0484   17.9834 H         1 UNK         0.0000 
     32 H32         5.9060   53.8448   20.3294 H         1 UNK         0.0000 
     33 H33         4.5871   54.8970   20.6556 H         1 UNK         0.0000 
@<TRIPOS>BOND
     1    1    6 ar   
     2    1    2 ar   
     3    1   23 1    
     4    2    3 ar   
     5    2   24 1    
     6    3    4 ar   
     7    3   20 1    
     8    4    5 ar   
     9    4   19 1    
    10    5    6 ar   
    11    5   25 1    
    12    6    7 1    
    13    7    8 am   BACKBONE|DICT|INTERRES
    14    7   26 1    
    15    8    9 2    
    16    8   10 am   BACKBONE|DICT|INTERRES
    17   10   11 1    
    18   10   27 1    
    19   11   12 1    
    20   11   18 1    
    21   11   13 1    
    22   13   14 1    
    23   13   28 1    
    24   13   29 1    
    25   14   15 1    
    26   14   30 1    
    27   14   31 1    
    28   15   16 2    
    29   15   17 2    
    30   15   18 1    
    31   18   32 1    
    32   18   33 1    
    33   20   21 2    
    34   20   22 1    
@<TRIPOS>SUBSTRUCTURE
     1 UNK         1 GROUP             0       ****    0 ROOT    
