@<TRIPOS>MOLECULE
ZINC45336405_2829
35   37    1
SMALL
USER_CHARGES


@<TRIPOS>ATOM
      1 C1          4.8157   53.8075   22.9266 C.ar      1 UNK         0.0000 
      2 C2          4.6483   53.8138   21.5466 C.ar      1 UNK         0.0000 
      3 C3          5.5056   54.5636   20.7475 C.ar      1 UNK         0.0000 
      4 C4          6.5408   55.2990   21.3207 C.ar      1 UNK         0.0000 
      5 C5          6.7060   55.2953   22.7020 C.ar      1 UNK         0.0000 
      6 C6          5.8537   54.5502   23.5273 C.ar      1 UNK         0.0000 
      7 C7          6.0382   54.6146   25.0337 C.2       1 UNK         0.0000 
      8 O8          7.0715   55.0767   25.5250 O.2       1 UNK         0.0000 
      9 N9          4.9885   54.1762   25.7591 N.am      1 UNK         0.0000 
     10 C10         4.8466   54.1486   27.1423 C.2       1 UNK         0.0000 
     11 C11         3.6890   53.7232   27.7948 C.2       1 UNK         0.0000 
     12 N12         3.8113   53.8868   29.0918 N.2       1 UNK         0.0000 
     13 O13         5.0956   54.4012   29.2468 O.3       1 UNK         0.0000 
     14 N14         5.7520   54.5067   28.0235 N.2       1 UNK         0.0000 
     15 N15         2.5796   53.2120   27.1325 N.am      1 UNK         0.0000 
     16 C16         1.5076   52.5790   27.6565 C.2       1 UNK         0.0000 
     17 O17         1.3593   52.3599   28.8614 O.2       1 UNK         0.0000 
     18 C18         0.4772   52.1159   26.6415 C.ar      1 UNK         0.0000 
     19 C19        -0.5770   51.2870   27.0547 C.ar      1 UNK         0.0000 
     20 C20        -1.5343   50.8523   26.1415 C.ar      1 UNK         0.0000 
     21 C21        -1.4507   51.2442   24.8083 C.ar      1 UNK         0.0000 
     22 C22        -0.4133   52.0647   24.3771 C.ar      1 UNK         0.0000 
     23 C23         0.5463   52.4970   25.2862 C.ar      1 UNK         0.0000 
     24 Br24       -2.7683   50.6607   23.5610 Br        1 UNK         0.0000 
     25 Br25        5.2671   54.5918   18.8583 Br        1 UNK         0.0000 
     26 H26         4.1170   53.2318   23.5129 H         1 UNK         0.0000 
     27 H27         3.8480   53.2498   21.0917 H         1 UNK         0.0000 
     28 H28         7.2089   55.8698   20.6940 H         1 UNK         0.0000 
     29 H29         7.5045   55.8856   23.1292 H         1 UNK         0.0000 
     30 H30         4.1911   53.8743   25.2280 H         1 UNK         0.0000 
     31 H31         2.6375   53.1944   26.1298 H         1 UNK         0.0000 
     32 H32        -0.6618   50.9578   28.0833 H         1 UNK         0.0000 
     33 H33        -2.3337   50.2055   26.4710 H         1 UNK         0.0000 
     34 H34        -0.3538   52.3679   23.3424 H         1 UNK         0.0000 
     35 H35         1.3262   53.1438   24.9102 H         1 UNK         0.0000 
@<TRIPOS>BOND
     1    1    6 ar   
     2    1    2 ar   
     3    1   26 1    
     4    2    3 ar   
     5    2   27 1    
     6    3    4 ar   
     7    3   25 1    
     8    4    5 ar   
     9    4   28 1    
    10    5    6 ar   
    11    5   29 1    
    12    6    7 1    
    13    7    8 2    
    14    7    9 am   BACKBONE|DICT|INTERRES
    15    9   10 1    
    16    9   30 1    
    17   10   14 2    
    18   10   11 1    
    19   11   12 2    
    20   11   15 1    
    21   12   13 1    
    22   13   14 1    
    23   15   16 am   BACKBONE|DICT|INTERRES
    24   15   31 1    
    25   16   17 2    
    26   16   18 1    
    27   18   23 ar   
    28   18   19 ar   
    29   19   20 ar   
    30   19   32 1    
    31   20   21 ar   
    32   20   33 1    
    33   21   22 ar   
    34   21   24 1    
    35   22   23 ar   
    36   22   34 1    
    37   23   35 1    
@<TRIPOS>SUBSTRUCTURE
     1 UNK         1 GROUP             0       ****    0 ROOT    
