@<TRIPOS>MOLECULE
ZINC08977311_2441
55   58    1
SMALL
USER_CHARGES


@<TRIPOS>ATOM
      1 C1          3.3626   53.0997   18.4398 C.3       1 UNK         0.0000 
      2 C2          4.3064   54.1714   18.9645 C.ar      1 UNK         0.0000 
      3 C3          4.6855   55.1891   18.0826 C.ar      1 UNK         0.0000 
      4 C4          5.5830   56.1941   18.4739 C.ar      1 UNK         0.0000 
      5 C5          6.1541   56.1258   19.7445 C.ar      1 UNK         0.0000 
      6 C6          5.7759   55.1252   20.6362 C.ar      1 UNK         0.0000 
      7 C7          4.8232   54.1660   20.2762 C.ar      1 UNK         0.0000 
      8 S8          4.2968   53.0330   21.5772 S.o2      1 UNK         0.0000 
      9 O9          3.1449   52.2454   21.1320 O.2       1 UNK         0.0000 
     10 O10         5.5042   52.3758   22.0819 O.2       1 UNK         0.0000 
     11 N11         3.6602   54.0965   22.8509 N.pl3     1 UNK         0.0000 
     12 C12         4.1629   54.1441   24.1597 C.ar      1 UNK         0.0000 
     13 C13         5.5264   54.1190   24.4596 C.ar      1 UNK         0.0000 
     14 C14         5.9504   54.1373   25.7868 C.ar      1 UNK         0.0000 
     15 C15         5.0326   54.2157   26.8389 C.ar      1 UNK         0.0000 
     16 C16         3.6581   54.3329   26.5405 C.ar      1 UNK         0.0000 
     17 C17         3.2474   54.2680   25.2045 C.ar      1 UNK         0.0000 
     18 C18         2.6398   54.5695   27.6606 C.3       1 UNK         0.0000 
     19 N19         3.1486   54.0202   28.9275 N.am      1 UNK         0.0000 
     20 C20         4.4371   54.6105   29.3140 C.3       1 UNK         0.0000 
     21 C21         5.5038   54.1488   28.2941 C.3       1 UNK         0.0000 
     22 C22         2.5930   53.0142   29.6607 C.2       1 UNK         0.0000 
     23 O23         3.1046   52.5775   30.6944 O.2       1 UNK         0.0000 
     24 C24         1.3294   52.4653   29.2408 C.2       1 UNK         0.0000 
     25 C25         0.1739   52.3521   30.0125 C.2       1 UNK         0.0000 
     26 C26        -0.8619   51.6967   29.3398 C.2       1 UNK         0.0000 
     27 C27        -0.5073   51.2970   28.0610 C.2       1 UNK         0.0000 
     28 S28         1.1324   51.6969   27.6870 S.3       1 UNK         0.0000 
     29 N29         5.9640   57.2876   17.6717 N.am      1 UNK         0.0000 
     30 C30         5.4370   57.7173   16.5059 C.2       1 UNK         0.0000 
     31 O31         4.4846   57.2063   15.9203 O.2       1 UNK         0.0000 
     32 C32         6.0919   58.9507   15.8971 C.3       1 UNK         0.0000 
     33 H33         3.7455   52.1068   18.6799 H         1 UNK         0.0000 
     34 H34         2.3720   53.2073   18.8806 H         1 UNK         0.0000 
     35 H35         3.2641   53.1294   17.3541 H         1 UNK         0.0000 
     36 H36         4.2670   55.1786   17.0893 H         1 UNK         0.0000 
     37 H37         6.8673   56.8697   20.0634 H         1 UNK         0.0000 
     38 H38         6.1991   55.1220   21.6293 H         1 UNK         0.0000 
     39 H39         2.6645   54.2319   22.7661 H         1 UNK         0.0000 
     40 H40         6.2683   54.0558   23.6794 H         1 UNK         0.0000 
     41 H41         7.0063   54.0617   26.0009 H         1 UNK         0.0000 
     42 H42         2.1926   54.3342   24.9781 H         1 UNK         0.0000 
     43 H43         2.5293   55.6472   27.7877 H         1 UNK         0.0000 
     44 H44         1.6497   54.2131   27.3866 H         1 UNK         0.0000 
     45 H45         4.3423   55.6956   29.2817 H         1 UNK         0.0000 
     46 H46         4.7042   54.4516   30.3590 H         1 UNK         0.0000 
     47 H47         5.7890   53.1217   28.5269 H         1 UNK         0.0000 
     48 H48         6.4105   54.7374   28.4261 H         1 UNK         0.0000 
     49 H49         0.0861   52.7037   31.0319 H         1 UNK         0.0000 
     50 H50        -1.8207   51.4726   29.7817 H         1 UNK         0.0000 
     51 H51        -1.1062   50.7288   27.3624 H         1 UNK         0.0000 
     52 H52         6.6979   57.8627   18.0528 H         1 UNK         0.0000 
     53 H53         6.8162   59.4084   16.5702 H         1 UNK         0.0000 
     54 H54         5.3293   59.6965   15.6749 H         1 UNK         0.0000 
     55 H55         6.5965   58.6900   14.9674 H         1 UNK         0.0000 
@<TRIPOS>BOND
     1    1    2 1    
     2    1   33 1    
     3    1   34 1    
     4    1   35 1    
     5    2    7 ar   
     6    2    3 ar   
     7    3    4 ar   
     8    3   36 1    
     9    4    5 ar   
    10    4   29 1    
    11    5    6 ar   
    12    5   37 1    
    13    6    7 ar   
    14    6   38 1    
    15    7    8 1    
    16    8    9 2    
    17    8   10 2    
    18    8   11 1    
    19   11   12 1    
    20   11   39 1    
    21   12   17 ar   
    22   12   13 ar   
    23   13   14 ar   
    24   13   40 1    
    25   14   15 ar   
    26   14   41 1    
    27   15   21 1    
    28   15   16 ar   
    29   16   17 ar   
    30   16   18 1    
    31   17   42 1    
    32   18   19 1    
    33   18   43 1    
    34   18   44 1    
    35   19   20 1    
    36   19   22 am   BACKBONE|DICT|INTERRES
    37   20   21 1    
    38   20   45 1    
    39   20   46 1    
    40   21   47 1    
    41   21   48 1    
    42   22   23 2    
    43   22   24 1    
    44   24   28 1    
    45   24   25 2    
    46   25   26 1    
    47   25   49 1    
    48   26   27 2    
    49   26   50 1    
    50   27   28 1    
    51   27   51 1    
    52   29   30 am   BACKBONE|DICT|INTERRES
    53   29   52 1    
    54   30   31 2    
    55   30   32 1    
    56   32   53 1    
    57   32   54 1    
    58   32   55 1    
@<TRIPOS>SUBSTRUCTURE
     1 UNK         1 GROUP             0       ****    0 ROOT    
