ZINC65074807_3703
                    3D
 Schrodinger Suite 2024-2.
 64 67  0  0  1  0            999 V2000
    6.8964   53.9512   27.5659 C   0  0  0  0  0  0
    5.8575   54.0961   26.4682 C   0  0  0  0  0  0
    4.5024   53.9646   26.7793 C   0  0  0  0  0  0
    3.5435   54.0982   25.7791 C   0  0  0  0  0  0
    3.9354   54.3681   24.4668 C   0  0  0  0  0  0
    5.2911   54.4966   24.1543 C   0  0  0  0  0  0
    6.2532   54.3715   25.1556 C   0  0  0  0  0  0
    2.8790   54.5873   23.3954 C   0  0  0  0  0  0
    2.1785   53.3731   22.9657 N   0  0  0  0  0  0
    2.4548   52.6256   21.8891 C   0  0  0  0  0  0
    3.5143   52.9115   21.1165 N   0  3  0  0  0  0
    3.8409   52.2411   19.8615 C   0  0  0  0  0  0
    3.0885   50.9126   19.7984 C   0  0  0  0  0  0
    1.7047   51.0975   20.2092 N   0  0  0  0  0  0
    1.5322   51.4152   21.6371 C   0  0  0  0  0  0
    1.9010   50.2602   22.6075 C   0  0  0  0  0  0
    0.9835   49.0325   22.4670 C   0  0  0  0  0  0
   -0.4565   49.3849   22.5232 N   0  0  0  0  0  0
   -0.8870   50.5009   21.6527 C   0  0  0  0  0  0
    0.0195   51.7380   21.8422 C   0  0  0  0  0  0
   -1.3834   48.9886   23.9845 S   0  0  0  0  0  0
   -2.8099   49.1432   23.6749 O   0  0  0  0  0  0
   -0.8805   47.7030   24.4830 O   0  0  0  0  0  0
   -0.9195   50.2513   25.2045 C   0  0  0  0  0  0
    0.2032   49.9822   25.9972 C   0  0  0  0  0  0
    0.6252   50.8858   26.9719 C   0  0  0  0  0  0
   -0.0789   52.0659   27.1899 C   0  0  0  0  0  0
   -1.2159   52.3306   26.4264 C   0  0  0  0  0  0
   -1.6458   51.4435   25.4329 C   0  0  0  0  0  0
   -2.8979   51.8261   24.6588 C   0  0  0  0  0  0
    0.3608   53.0286   28.2801 C   0  0  0  0  0  0
    6.5245   54.3650   28.5049 H   0  0  0  0  0  0
    7.1386   52.9003   27.7247 H   0  0  0  0  0  0
    7.8105   54.4956   27.3282 H   0  0  0  0  0  0
    4.1947   53.7521   27.7924 H   0  0  0  0  0  0
    2.4972   53.9991   26.0279 H   0  0  0  0  0  0
    5.6073   54.7103   23.1446 H   0  0  0  0  0  0
    7.2993   54.4755   24.9019 H   0  0  0  0  0  0
    2.1100   55.2468   23.7991 H   0  0  0  0  0  0
    3.2813   55.0932   22.5166 H   0  0  0  0  0  0
    1.3932   53.0837   23.5307 H   0  0  0  0  0  0
    3.5270   52.9019   19.0514 H   0  0  0  0  0  0
    4.9185   52.0961   19.7848 H   0  0  0  0  0  0
    3.1044   50.5156   18.7802 H   0  0  0  0  0  0
    3.5775   50.1481   20.4014 H   0  0  0  0  0  0
    1.1766   50.2631   19.9972 H   0  0  0  0  0  0
    2.9390   49.9586   22.4824 H   0  0  0  0  0  0
    1.8462   50.6201   23.6340 H   0  0  0  0  0  0
    1.1728   48.4969   21.5366 H   0  0  0  0  0  0
    1.1989   48.3446   23.2826 H   0  0  0  0  0  0
   -0.8751   50.1508   20.6199 H   0  0  0  0  0  0
   -1.9263   50.7382   21.8676 H   0  0  0  0  0  0
   -0.1586   52.1423   22.8382 H   0  0  0  0  0  0
   -0.2900   52.5134   21.1451 H   0  0  0  0  0  0
    0.7533   49.0606   25.8706 H   0  0  0  0  0  0
    1.4921   50.6505   27.5749 H   0  0  0  0  0  0
   -1.7712   53.2365   26.6136 H   0  0  0  0  0  0
   -3.2076   52.8521   24.8500 H   0  0  0  0  0  0
   -2.7321   51.7463   23.5884 H   0  0  0  0  0  0
   -3.7248   51.1668   24.9247 H   0  0  0  0  0  0
    1.0233   53.7973   27.8774 H   0  0  0  0  0  0
   -0.4957   53.5207   28.7393 H   0  0  0  0  0  0
    0.8757   52.5000   29.0841 H   0  0  0  0  0  0
    4.0442   53.7311   21.3654 H   0  0  0  0  0  0
  1  2  1  0  0  0
  1 32  1  0  0  0
  1 33  1  0  0  0
  1 34  1  0  0  0
  2  7  2  0  0  0
  2  3  1  0  0  0
  3  4  2  0  0  0
  3 35  1  0  0  0
  4  5  1  0  0  0
  4 36  1  0  0  0
  5  6  2  0  0  0
  5  8  1  0  0  0
  6  7  1  0  0  0
  6 37  1  0  0  0
  7 38  1  0  0  0
  8  9  1  0  0  0
  8 39  1  0  0  0
  8 40  1  0  0  0
  9 10  1  0  0  0
  9 41  1  0  0  0
 10 15  1  0  0  0
 10 11  2  0  0  0
 11 12  1  0  0  0
 11 64  1  0  0  0
 12 13  1  0  0  0
 12 42  1  0  0  0
 12 43  1  0  0  0
 13 14  1  0  0  0
 13 44  1  0  0  0
 13 45  1  0  0  0
 14 15  1  0  0  0
 14 46  1  0  0  0
 15 20  1  0  0  0
 15 16  1  0  0  0
 16 17  1  0  0  0
 16 47  1  0  0  0
 16 48  1  0  0  0
 17 18  1  0  0  0
 17 49  1  0  0  0
 17 50  1  0  0  0
 18 19  1  0  0  0
 18 21  1  0  0  0
 19 20  1  0  0  0
 19 51  1  0  0  0
 19 52  1  0  0  0
 20 53  1  0  0  0
 20 54  1  0  0  0
 21 22  2  0  0  0
 21 23  2  0  0  0
 21 24  1  0  0  0
 24 29  2  0  0  0
 24 25  1  0  0  0
 25 26  2  0  0  0
 25 55  1  0  0  0
 26 27  1  0  0  0
 26 56  1  0  0  0
 27 28  2  0  0  0
 27 31  1  0  0  0
 28 29  1  0  0  0
 28 57  1  0  0  0
 29 30  1  0  0  0
 30 58  1  0  0  0
 30 59  1  0  0  0
 30 60  1  0  0  0
 31 61  1  0  0  0
 31 62  1  0  0  0
 31 63  1  0  0  0
M  CHG  1  11   1
M  END
> <i_i_glide_confnum>
145

> <i_i_glide_lignum>
3704

> <i_i_glide_posenum>
373

> <i_i_glide_rotatable_bonds>
5

> <i_m_Source_File_Index>
1152

> <b_m_subgroup_collapsed>
0

> <r_i_docking_score>
-3.93607

> <r_i_glide_ecoul>
1.93328

> <r_i_glide_eff_state_penalty>
0

> <r_i_glide_einternal>
2.21878

> <r_i_glide_emodel>
-42.9775

> <r_i_glide_energy>
-34.3861

> <r_i_glide_erotb>
0.512165

> <r_i_glide_esite>
-0.0761995

> <r_i_glide_evdw>
-36.3193

> <r_i_glide_gscore>
-3.93607

> <r_i_glide_hbond>
0

> <r_i_glide_ligand_efficiency>
-0.12697

> <r_i_glide_ligand_efficiency_ln>
-0.887705

> <r_i_glide_ligand_efficiency_sa>
-0.398862

> <r_i_glide_lipo>
-2.27077

> <r_i_glide_metal>
0

> <r_i_glide_rewards>
-0.5753

> <s_i_glide_gridfile>
wee1_glide-grid

> <s_m_Source_File>
wee1_decoys_glide_SP.sdf

> <s_m_Source_Path>
/Users/zhangxujun/Desktop

> <s_m_entry_id>
1427

> <s_m_entry_name>
wee1_decoys_glide_SP.1152

> <s_m_subgroup_title>
wee1_decoys_glide_SP

> <s_m_subgroupid>
wee1_decoys_glide_SP


$$$$
