ZINC33939959_2058
                    3D
 Schrodinger Suite 2024-2.
 73 77  0  0  1  0            999 V2000
   -3.5707   50.1122   24.0837 C   0  0  0  0  0  0
   -2.7762   50.2374   25.4021 C   0  0  2  0  0  0
   -2.7255   49.2534   25.8753 H   0  0  0  0  0  0
   -3.5072   51.1583   26.4030 C   0  0  0  0  0  0
   -2.8192   51.1047   27.7810 C   0  0  0  0  0  0
   -1.3316   51.5022   27.6822 C   0  0  0  0  0  0
   -0.5697   50.7356   26.5744 C   0  0  0  0  0  0
   -1.3140   50.7468   25.2221 C   0  0  1  0  0  0
   -1.3627   51.8032   24.9379 H   0  0  0  0  0  0
   -0.5302   50.0796   24.1802 N   0  0  0  0  0  0
   -0.4320   50.4419   22.8917 C   0  0  0  0  0  0
   -1.0193   51.4196   22.4237 O   0  0  0  0  0  0
    0.5081   49.5667   22.0188 C   0  0  2  0  0  0
    0.6375   48.6233   22.5492 H   0  0  0  0  0  0
    1.9009   50.2060   21.6879 C   0  0  2  0  0  0
    2.7104   49.5609   22.0312 H   0  0  0  0  0  0
    2.2569   51.6536   22.0872 C   0  0  0  0  0  0
    2.2776   52.0944   23.2374 O   0  0  0  0  0  0
    2.6760   52.2736   20.9559 N   0  0  0  0  0  0
    2.7257   51.4029   19.7667 C   0  0  1  0  0  0
    3.7519   51.0672   19.6120 H   0  0  0  0  0  0
    1.8250   50.2387   20.1726 C   0  0  1  0  0  0
    1.9651   48.8763   19.5293 C   0  0  0  0  0  0
    0.8198   48.2484   19.8464 C   0  0  0  0  0  0
   -0.0418   49.2776   20.5795 C   0  0  2  0  0  0
    0.4340   50.4501   19.9679 O   0  0  0  0  0  0
   -1.5530   49.0899   20.3370 C   0  0  0  0  0  0
    2.2504   52.1296   18.4866 C   0  0  0  0  0  0
    1.1792   52.7391   18.4459 O   0  0  0  0  0  0
    3.1045   52.0967   17.4537 N   0  0  0  0  0  0
    2.9551   52.8069   16.1826 C   0  0  0  0  0  0
    3.1157   54.3436   16.3302 C   0  0  0  0  0  0
    4.5338   54.7341   16.8055 C   0  0  0  0  0  0
    5.6198   54.1732   15.8590 C   0  0  0  0  0  0
    5.4494   52.6621   15.5843 C   0  0  0  0  0  0
    4.0031   52.3217   15.1531 C   0  0  0  0  0  0
    3.3824   53.5556   21.0474 C   0  0  0  0  0  0
    4.8743   53.4222   21.2712 C   0  0  0  0  0  0
    5.5041   53.8808   22.3645 C   0  0  0  0  0  0
   -3.6163   51.0648   23.5539 H   0  0  0  0  0  0
   -3.1208   49.3797   23.4126 H   0  0  0  0  0  0
   -4.5952   49.7859   24.2679 H   0  0  0  0  0  0
   -3.5817   52.1767   26.0167 H   0  0  0  0  0  0
   -4.5412   50.8280   26.5155 H   0  0  0  0  0  0
   -2.8955   50.0967   28.1883 H   0  0  0  0  0  0
   -3.3413   51.7426   28.4922 H   0  0  0  0  0  0
   -0.8417   51.3431   28.6439 H   0  0  0  0  0  0
   -1.2620   52.5708   27.4811 H   0  0  0  0  0  0
   -0.4297   49.6988   26.8816 H   0  0  0  0  0  0
    0.4281   51.1612   26.4612 H   0  0  0  0  0  0
   -0.0086   49.2735   24.4883 H   0  0  0  0  0  0
    2.8446   48.5117   19.0165 H   0  0  0  0  0  0
    0.5258   47.2311   19.6404 H   0  0  0  0  0  0
   -1.9333   48.2315   20.8904 H   0  0  0  0  0  0
   -2.1284   49.9643   20.6393 H   0  0  0  0  0  0
   -1.7621   48.9274   19.2789 H   0  0  0  0  0  0
    3.9425   51.5259   17.5506 H   0  0  0  0  0  0
    1.9537   52.5902   15.8053 H   0  0  0  0  0  0
    2.3734   54.7357   17.0282 H   0  0  0  0  0  0
    2.9016   54.8308   15.3773 H   0  0  0  0  0  0
    4.6996   54.3574   17.8164 H   0  0  0  0  0  0
    4.6204   55.8198   16.8687 H   0  0  0  0  0  0
    6.6110   54.3658   16.2730 H   0  0  0  0  0  0
    5.5796   54.7137   14.9120 H   0  0  0  0  0  0
    5.7118   52.0974   16.4807 H   0  0  0  0  0  0
    6.1514   52.3425   14.8133 H   0  0  0  0  0  0
    3.7974   52.7712   14.1804 H   0  0  0  0  0  0
    3.9056   51.2447   15.0079 H   0  0  0  0  0  0
    3.1933   54.1077   20.1296 H   0  0  0  0  0  0
    2.9526   54.1580   21.8506 H   0  0  0  0  0  0
    5.4341   52.9263   20.4917 H   0  0  0  0  0  0
    6.5709   53.7684   22.4844 H   0  0  0  0  0  0
    4.9640   54.3752   23.1589 H   0  0  0  0  0  0
  1  2  1  0  0  0
  1 40  1  0  0  0
  1 41  1  0  0  0
  1 42  1  0  0  0
  2  3  1  0  0  0
  2  8  1  0  0  0
  2  4  1  0  0  0
  4  5  1  0  0  0
  4 43  1  0  0  0
  4 44  1  0  0  0
  5  6  1  0  0  0
  5 45  1  0  0  0
  5 46  1  0  0  0
  6  7  1  0  0  0
  6 47  1  0  0  0
  6 48  1  0  0  0
  7  8  1  0  0  0
  7 49  1  0  0  0
  7 50  1  0  0  0
  8  9  1  0  0  0
  8 10  1  0  0  0
 10 11  1  0  0  0
 10 51  1  0  0  0
 11 12  2  0  0  0
 11 13  1  0  0  0
 13 14  1  0  0  0
 13 25  1  0  0  0
 13 15  1  0  0  0
 15 16  1  0  0  0
 15 22  1  0  0  0
 15 17  1  0  0  0
 17 18  2  0  0  0
 17 19  1  0  0  0
 19 20  1  0  0  0
 19 37  1  0  0  0
 20 21  1  0  0  0
 20 22  1  0  0  0
 20 28  1  0  0  0
 22 26  1  0  0  0
 22 23  1  0  0  0
 23 24  2  0  0  0
 23 52  1  0  0  0
 24 25  1  0  0  0
 24 53  1  0  0  0
 25 26  1  0  0  0
 25 27  1  0  0  0
 27 54  1  0  0  0
 27 55  1  0  0  0
 27 56  1  0  0  0
 28 29  2  0  0  0
 28 30  1  0  0  0
 30 31  1  0  0  0
 30 57  1  0  0  0
 31 36  1  0  0  0
 31 32  1  0  0  0
 31 58  1  0  0  0
 32 33  1  0  0  0
 32 59  1  0  0  0
 32 60  1  0  0  0
 33 34  1  0  0  0
 33 61  1  0  0  0
 33 62  1  0  0  0
 34 35  1  0  0  0
 34 63  1  0  0  0
 34 64  1  0  0  0
 35 36  1  0  0  0
 35 65  1  0  0  0
 35 66  1  0  0  0
 36 67  1  0  0  0
 36 68  1  0  0  0
 37 38  1  0  0  0
 37 69  1  0  0  0
 37 70  1  0  0  0
 38 39  2  0  0  0
 38 71  1  0  0  0
 39 72  1  0  0  0
 39 73  1  0  0  0
M  END
> <i_i_glide_confnum>
201

> <i_i_glide_lignum>
2059

> <i_i_glide_posenum>
161

> <i_i_glide_rotatable_bonds>
8

> <i_m_Source_File_Index>
1027

> <b_m_subgroup_collapsed>
0

> <r_i_docking_score>
-2.50037

> <r_i_glide_ecoul>
-4.68113

> <r_i_glide_eff_state_penalty>
0

> <r_i_glide_einternal>
3.33075

> <r_i_glide_emodel>
-35.4529

> <r_i_glide_energy>
-31.5862

> <r_i_glide_erotb>
0.732707

> <r_i_glide_esite>
-0.147693

> <r_i_glide_evdw>
-26.9051

> <r_i_glide_gscore>
-2.50037

> <r_i_glide_hbond>
-0.16

> <r_i_glide_ligand_efficiency>
-0.0735403

> <r_i_glide_ligand_efficiency_ln>
-0.552402

> <r_i_glide_ligand_efficiency_sa>
-0.238242

> <r_i_glide_lipo>
-0.525344

> <r_i_glide_metal>
0

> <r_i_glide_rewards>
-0.352617

> <s_i_glide_gridfile>
wee1_glide-grid

> <s_m_Source_File>
wee1_decoys_glide_SP.sdf

> <s_m_Source_Path>
/Users/zhangxujun/Desktop

> <s_m_entry_id>
1302

> <s_m_entry_name>
wee1_decoys_glide_SP.1027

> <s_m_subgroup_title>
wee1_decoys_glide_SP

> <s_m_subgroupid>
wee1_decoys_glide_SP


$$$$
