ZINC39693562_402
                    3D
 Schrodinger Suite 2024-2.
 79 81  0  0  1  0            999 V2000
    5.5389   53.3363   28.4817 C   0  0  0  0  0  0
    5.0226   54.4192   27.5068 C   0  0  0  0  0  0
    6.2522   55.1197   26.9046 C   0  0  0  0  0  0
    3.9418   53.8584   26.5056 C   0  0  1  0  0  0
    4.2835   52.8969   26.1192 H   0  0  0  0  0  0
    2.5835   53.5449   27.2311 C   0  0  0  0  0  0
    2.4587   53.8154   28.4298 O   0  0  0  0  0  0
    1.5707   52.9219   26.5760 N   0  0  0  0  0  0
    1.4511   52.8358   25.1279 C   0  0  0  0  0  0
    0.0099   52.3331   24.8874 C   0  0  2  0  0  0
   -0.5816   53.2236   24.6638 H   0  0  0  0  0  0
   -0.4441   51.6748   26.2204 C   0  0  0  0  0  0
    0.3353   52.5183   27.2513 C   0  0  0  0  0  0
   -1.9595   51.7384   26.5526 C   0  0  0  0  0  0
   -2.8128   50.7142   25.7802 C   0  0  0  0  0  0
   -2.2850   49.2965   26.0816 N   0  3  0  0  0  0
   -0.8001   49.1110   25.7357 C   0  0  0  0  0  0
    0.0214   50.2062   26.4610 C   0  0  0  0  0  0
   -0.0411   51.4721   23.6041 C   0  0  0  0  0  0
   -1.0369   51.5541   22.8871 O   0  0  0  0  0  0
    0.9553   50.5942   23.3701 N   0  0  0  0  0  0
    0.9803   49.5768   22.3139 C   0  0  0  0  0  0
    2.3073   49.5279   21.5245 C   0  0  0  0  0  0
    2.5241   50.6166   20.5703 N   0  0  0  0  0  0
    1.7396   50.7907   19.4449 C   0  0  0  0  0  0
    0.7590   50.1104   19.1348 O   0  0  0  0  0  0
    2.2049   51.8605   18.7581 O   0  0  0  0  0  0
    1.5664   52.4479   17.6125 C   0  0  0  0  0  0
    0.1983   53.0497   18.0108 C   0  0  0  0  0  0
    1.3982   51.4442   16.4468 C   0  0  0  0  0  0
    2.5265   53.5752   17.1865 C   0  0  0  0  0  0
    3.6691   54.7489   25.4000 O   0  0  0  0  0  0
    4.1580   54.4295   24.1394 C   0  0  0  0  0  0
    5.4973   54.0966   23.9183 C   0  0  0  0  0  0
    5.9732   53.8729   22.6374 C   0  0  0  0  0  0
    5.1034   53.8877   21.5564 C   0  0  0  0  0  0
    3.7629   54.1787   21.7536 C   0  0  0  0  0  0
    3.3014   54.4966   23.0311 C   0  0  0  0  0  0
    5.9833   52.4972   27.9447 H   0  0  0  0  0  0
    6.3107   53.7433   29.1348 H   0  0  0  0  0  0
    4.7534   52.9354   29.1209 H   0  0  0  0  0  0
    4.5406   55.1940   28.1045 H   0  0  0  0  0  0
    7.0041   54.4100   26.5585 H   0  0  0  0  0  0
    5.9926   55.8009   26.0947 H   0  0  0  0  0  0
    6.7466   55.6976   27.6805 H   0  0  0  0  0  0
    2.2327   52.1582   24.7810 H   0  0  0  0  0  0
    1.5187   53.8366   24.7151 H   0  0  0  0  0  0
   -0.2200   53.4294   27.4727 H   0  0  0  0  0  0
    0.4613   52.0458   28.2279 H   0  0  0  0  0  0
   -2.1004   51.5346   27.6170 H   0  0  0  0  0  0
   -2.3416   52.7509   26.4118 H   0  0  0  0  0  0
   -3.8560   50.7226   26.1018 H   0  0  0  0  0  0
   -2.7733   50.8468   24.6988 H   0  0  0  0  0  0
   -2.3331   49.0881   27.0842 H   0  0  0  0  0  0
   -0.5344   48.1100   26.0830 H   0  0  0  0  0  0
   -0.7480   49.1160   24.6510 H   0  0  0  0  0  0
    1.0865   50.0764   26.2737 H   0  0  0  0  0  0
   -0.0913   50.0368   27.5299 H   0  0  0  0  0  0
    1.6994   50.5359   24.0461 H   0  0  0  0  0  0
    0.1908   49.8239   21.6015 H   0  0  0  0  0  0
    0.6902   48.5908   22.6742 H   0  0  0  0  0  0
    2.5129   48.5378   21.1140 H   0  0  0  0  0  0
    3.1042   49.6785   22.2531 H   0  0  0  0  0  0
    3.3087   51.2387   20.6934 H   0  0  0  0  0  0
   -0.2289   53.6443   17.2034 H   0  0  0  0  0  0
    0.3045   53.6959   18.8807 H   0  0  0  0  0  0
   -0.5255   52.2774   18.2729 H   0  0  0  0  0  0
    2.3214   50.9036   16.2485 H   0  0  0  0  0  0
    0.6352   50.6934   16.6550 H   0  0  0  0  0  0
    1.1071   51.9474   15.5238 H   0  0  0  0  0  0
    3.5108   53.1795   16.9313 H   0  0  0  0  0  0
    2.1530   54.1168   16.3174 H   0  0  0  0  0  0
    2.6710   54.2991   17.9900 H   0  0  0  0  0  0
    6.2055   54.0099   24.7128 H   0  0  0  0  0  0
    7.0247   53.6963   22.4821 H   0  0  0  0  0  0
    5.4720   53.6900   20.5597 H   0  0  0  0  0  0
    3.1045   54.1987   20.8998 H   0  0  0  0  0  0
    2.2762   54.8096   23.1397 H   0  0  0  0  0  0
   -2.8437   48.5941   25.6174 H   0  0  0  0  0  0
  1  2  1  0  0  0
  1 39  1  0  0  0
  1 40  1  0  0  0
  1 41  1  0  0  0
  2  3  1  0  0  0
  2  4  1  0  0  0
  2 42  1  0  0  0
  3 43  1  0  0  0
  3 44  1  0  0  0
  3 45  1  0  0  0
  4  5  1  0  0  0
  4  6  1  0  0  0
  4 32  1  0  0  0
  6  7  2  0  0  0
  6  8  1  0  0  0
  8 13  1  0  0  0
  8  9  1  0  0  0
  9 10  1  0  0  0
  9 46  1  0  0  0
  9 47  1  0  0  0
 10 11  1  0  0  0
 10 12  1  0  0  0
 10 19  1  0  0  0
 12 18  1  0  0  0
 12 13  1  0  0  0
 12 14  1  0  0  0
 13 48  1  0  0  0
 13 49  1  0  0  0
 14 15  1  0  0  0
 14 50  1  0  0  0
 14 51  1  0  0  0
 15 16  1  0  0  0
 15 52  1  0  0  0
 15 53  1  0  0  0
 16 17  1  0  0  0
 16 54  1  0  0  0
 16 79  1  0  0  0
 17 18  1  0  0  0
 17 55  1  0  0  0
 17 56  1  0  0  0
 18 57  1  0  0  0
 18 58  1  0  0  0
 19 20  2  0  0  0
 19 21  1  0  0  0
 21 22  1  0  0  0
 21 59  1  0  0  0
 22 23  1  0  0  0
 22 60  1  0  0  0
 22 61  1  0  0  0
 23 24  1  0  0  0
 23 62  1  0  0  0
 23 63  1  0  0  0
 24 25  1  0  0  0
 24 64  1  0  0  0
 25 26  2  0  0  0
 25 27  1  0  0  0
 27 28  1  0  0  0
 28 29  1  0  0  0
 28 30  1  0  0  0
 28 31  1  0  0  0
 29 65  1  0  0  0
 29 66  1  0  0  0
 29 67  1  0  0  0
 30 68  1  0  0  0
 30 69  1  0  0  0
 30 70  1  0  0  0
 31 71  1  0  0  0
 31 72  1  0  0  0
 31 73  1  0  0  0
 32 33  1  0  0  0
 33 38  2  0  0  0
 33 34  1  0  0  0
 34 35  2  0  0  0
 34 74  1  0  0  0
 35 36  1  0  0  0
 35 75  1  0  0  0
 36 37  2  0  0  0
 36 76  1  0  0  0
 37 38  1  0  0  0
 37 77  1  0  0  0
 38 78  1  0  0  0
M  CHG  1  16   1
M  END
> <i_i_glide_confnum>
153

> <i_i_glide_lignum>
403

> <i_i_glide_posenum>
385

> <i_i_glide_rotatable_bonds>
13

> <i_m_Source_File_Index>
691

> <b_m_subgroup_collapsed>
0

> <r_i_docking_score>
-4.86489

> <r_i_glide_ecoul>
-6.95946

> <r_i_glide_eff_state_penalty>
0

> <r_i_glide_einternal>
14.9908

> <r_i_glide_emodel>
-51.8055

> <r_i_glide_energy>
-45.0442

> <r_i_glide_erotb>
0.805834

> <r_i_glide_esite>
-0.143264

> <r_i_glide_evdw>
-38.0847

> <r_i_glide_gscore>
-4.86489

> <r_i_glide_hbond>
-0.175034

> <r_i_glide_ligand_efficiency>
-0.135136

> <r_i_glide_ligand_efficiency_ln>
-1.06139

> <r_i_glide_ligand_efficiency_sa>
-0.446208

> <r_i_glide_lipo>
-2.54154

> <r_i_glide_metal>
0

> <r_i_glide_rewards>
0.137271

> <s_i_glide_gridfile>
wee1_glide-grid

> <s_m_Source_File>
wee1_decoys_glide_SP.sdf

> <s_m_Source_Path>
/Users/zhangxujun/Desktop

> <s_m_entry_id>
966

> <s_m_entry_name>
wee1_decoys_glide_SP.691

> <s_m_subgroup_title>
wee1_decoys_glide_SP

> <s_m_subgroupid>
wee1_decoys_glide_SP


$$$$
