@<TRIPOS>MOLECULE
ZINC32134091_1828
35   36    1
SMALL
USER_CHARGES


@<TRIPOS>ATOM
      1 C1          0.2826   53.6966   32.3779 C.3       1 UNK         0.0000 
      2 C2          0.5164   53.7982   30.8816 C.2       1 UNK         0.0000 
      3 O3          1.0429   54.8137   30.4294 O.2       1 UNK         0.0000 
      4 N4          0.0952   52.7451   30.1561 N.am      1 UNK         0.0000 
      5 C5          0.2572   52.5317   28.7780 C.ar      1 UNK         0.0000 
      6 C6         -0.6448   51.6664   28.1577 C.ar      1 UNK         0.0000 
      7 C7         -0.5295   51.3823   26.7974 C.ar      1 UNK         0.0000 
      8 C8          0.4988   51.9538   26.0481 C.ar      1 UNK         0.0000 
      9 C9          1.4257   52.8104   26.6512 C.ar      1 UNK         0.0000 
     10 C10         1.2982   53.0932   28.0226 C.ar      1 UNK         0.0000 
     11 N11         2.4475   53.3081   25.8181 N.am      1 UNK         0.0000 
     12 C12         3.5062   54.0966   26.1150 C.2       1 UNK         0.0000 
     13 O13         3.7357   54.5651   27.2300 O.2       1 UNK         0.0000 
     14 C14         4.4676   54.3719   24.9749 C.ar      1 UNK         0.0000 
     15 C15         5.7283   54.9232   25.2528 C.ar      1 UNK         0.0000 
     16 C16         6.6318   55.1917   24.2281 C.ar      1 UNK         0.0000 
     17 C17         6.3044   54.8967   22.9060 C.ar      1 UNK         0.0000 
     18 C18         5.0571   54.3351   22.6065 C.ar      1 UNK         0.0000 
     19 C19         4.1427   54.0943   23.6323 C.ar      1 UNK         0.0000 
     20 N20         4.7040   54.0457   21.2844 N.pl3     1 UNK         0.0000 
     21 F21         7.1827   55.2000   21.9219 F         1 UNK         0.0000 
     22 H22        -0.7863   53.6968   32.5831 H         1 UNK         0.0000 
     23 H23         0.7012   54.5477   32.9059 H         1 UNK         0.0000 
     24 H24         0.7051   52.7790   32.7868 H         1 UNK         0.0000 
     25 H25        -0.4475   52.0502   30.6517 H         1 UNK         0.0000 
     26 H26        -1.4355   51.1950   28.7243 H         1 UNK         0.0000 
     27 H27        -1.2298   50.7039   26.3327 H         1 UNK         0.0000 
     28 H28         0.5785   51.7103   24.9985 H         1 UNK         0.0000 
     29 H29         2.0097   53.7275   28.5179 H         1 UNK         0.0000 
     30 H30         2.3983   52.9895   24.8647 H         1 UNK         0.0000 
     31 H31         6.0130   55.1593   26.2687 H         1 UNK         0.0000 
     32 H32         7.5816   55.6455   24.4572 H         1 UNK         0.0000 
     33 H33         3.1796   53.6847   23.3699 H         1 UNK         0.0000 
     34 H34         5.3672   54.2451   20.5489 H         1 UNK         0.0000 
     35 H35         3.7729   53.7193   21.0626 H         1 UNK         0.0000 
@<TRIPOS>BOND
     1    1    2 1    
     2    1   22 1    
     3    1   23 1    
     4    1   24 1    
     5    2    3 2    
     6    2    4 am   BACKBONE|DICT|INTERRES
     7    4    5 1    
     8    4   25 1    
     9    5   10 ar   
    10    5    6 ar   
    11    6    7 ar   
    12    6   26 1    
    13    7    8 ar   
    14    7   27 1    
    15    8    9 ar   
    16    8   28 1    
    17    9   10 ar   
    18    9   11 1    
    19   10   29 1    
    20   11   12 am   BACKBONE|DICT|INTERRES
    21   11   30 1    
    22   12   13 2    
    23   12   14 1    
    24   14   19 ar   
    25   14   15 ar   
    26   15   16 ar   
    27   15   31 1    
    28   16   17 ar   
    29   16   32 1    
    30   17   18 ar   
    31   17   21 1    
    32   18   19 ar   
    33   18   20 1    
    34   19   33 1    
    35   20   34 1    
    36   20   35 1    
@<TRIPOS>SUBSTRUCTURE
     1 UNK         1 GROUP             0       ****    0 ROOT    
