@<TRIPOS>MOLECULE
ZINC40312465_3029
71   74    1
SMALL
USER_CHARGES


@<TRIPOS>ATOM
      1 C1          4.5560   58.4957   16.4774 C.3       1 UNK         0.0000 
      2 C2          5.4411   57.2667   16.1400 C.3       1 UNK         0.0000 
      3 C3          4.9913   56.7158   14.7623 C.3       1 UNK         0.0000 
      4 C4          6.9025   57.7626   15.9794 C.3       1 UNK         0.0000 
      5 C5          5.3597   56.1341   17.2383 C.3       1 UNK         0.0000 
      6 H6          5.9893   55.3238   16.8638 H         1 UNK         0.0000 
      7 C7          3.9308   55.5722   17.4692 C.3       1 UNK         0.0000 
      8 C8          3.9417   54.2598   18.2801 C.3       1 UNK         0.0000 
      9 C9          4.7659   54.4529   19.5575 C.2       1 UNK         0.0000 
     10 C10         5.6840   55.5115   19.6684 C.2       1 UNK         0.0000 
     11 S11         6.4679   55.5427   21.2055 S.3       1 UNK         0.0000 
     12 C12         5.5899   54.1360   21.7213 C.2       1 UNK         0.0000 
     13 C13         4.7042   53.6692   20.7426 C.2       1 UNK         0.0000 
     14 C14         3.9004   52.4830   20.9207 C.2       1 UNK         0.0000 
     15 O15         4.3990   51.4166   21.2807 O.2       1 UNK         0.0000 
     16 N16         2.5873   52.6696   20.7154 N.am      1 UNK         0.0000 
     17 C17         1.5629   51.6372   20.8240 C.3       1 UNK         0.0000 
     18 H18         1.9666   50.6201   20.8471 H         1 UNK         0.0000 
     19 C19         0.7581   51.8441   22.1284 C.3       1 UNK         0.0000 
     20 C20        -0.5194   50.9952   22.0698 C.3       1 UNK         0.0000 
     21 S21        -1.0580   51.0754   20.2809 S.o2      1 UNK         0.0000 
     22 O22        -2.0957   52.0970   20.1045 O.2       1 UNK         0.0000 
     23 O23        -1.2713   49.7096   19.7943 O.2       1 UNK         0.0000 
     24 C24         0.5742   51.7451   19.6491 C.3       1 UNK         0.0000 
     25 N25         5.8495   53.5694   22.9485 N.pl3     1 UNK         0.0000 
     26 C26         6.6400   54.1182   24.0406 C.3       1 UNK         0.0000 
     27 C27         5.8021   54.9448   25.0331 C.3       1 UNK         0.0000 
     28 H28         5.0818   55.5595   24.4952 H         1 UNK         0.0000 
     29 C29         5.0657   54.0932   26.0889 C.3       1 UNK         0.0000 
     30 O30         4.1259   54.8895   26.8158 O.3       1 UNK         0.0000 
     31 C31         3.4635   54.3417   27.9017 C.ar      1 UNK         0.0000 
     32 C32         2.4551   55.1166   28.4819 C.ar      1 UNK         0.0000 
     33 C33         1.7201   54.6389   29.5634 C.ar      1 UNK         0.0000 
     34 C34         2.0001   53.3760   30.0817 C.ar      1 UNK         0.0000 
     35 C35         3.0133   52.5978   29.5292 C.ar      1 UNK         0.0000 
     36 C36         3.7411   53.0760   28.4427 C.ar      1 UNK         0.0000 
     37 O37         6.7050   55.8068   25.6810 O.3       1 UNK         0.0000 
     38 C38         5.9513   56.5773   18.6108 C.3       1 UNK         0.0000 
     39 H39         4.8811   59.0001   17.3870 H         1 UNK         0.0000 
     40 H40         4.5961   59.2475   15.6855 H         1 UNK         0.0000 
     41 H41         3.5076   58.2301   16.6051 H         1 UNK         0.0000 
     42 H42         5.5155   55.7929   14.5101 H         1 UNK         0.0000 
     43 H43         3.9226   56.5067   14.7247 H         1 UNK         0.0000 
     44 H44         5.1916   57.4258   13.9584 H         1 UNK         0.0000 
     45 H45         7.5892   56.9359   15.7935 H         1 UNK         0.0000 
     46 H46         6.9986   58.4583   15.1441 H         1 UNK         0.0000 
     47 H47         7.2560   58.2958   16.8632 H         1 UNK         0.0000 
     48 H48         3.2768   56.3272   17.9075 H         1 UNK         0.0000 
     49 H49         3.4625   55.3334   16.5166 H         1 UNK         0.0000 
     50 H50         4.3709   53.4511   17.6865 H         1 UNK         0.0000 
     51 H51         2.9116   53.9713   18.4861 H         1 UNK         0.0000 
     52 H52         2.2692   53.6022   20.4814 H         1 UNK         0.0000 
     53 H53         0.4996   52.8981   22.2469 H         1 UNK         0.0000 
     54 H54         1.3664   51.5985   23.0013 H         1 UNK         0.0000 
     55 H55        -1.3393   51.2519   22.7401 H         1 UNK         0.0000 
     56 H56        -0.2405   49.9599   22.2671 H         1 UNK         0.0000 
     57 H57         0.8643   51.3367   18.6821 H         1 UNK         0.0000 
     58 H58         0.3582   52.8031   19.5036 H         1 UNK         0.0000 
     59 H59         5.3265   52.7470   23.2178 H         1 UNK         0.0000 
     60 H60         7.1317   53.2966   24.5573 H         1 UNK         0.0000 
     61 H61         7.4617   54.7064   23.6250 H         1 UNK         0.0000 
     62 H62         4.5167   53.2967   25.5902 H         1 UNK         0.0000 
     63 H63         5.8032   53.6238   26.7438 H         1 UNK         0.0000 
     64 H64         2.2330   56.0944   28.0818 H         1 UNK         0.0000 
     65 H65         0.9364   55.2418   29.9970 H         1 UNK         0.0000 
     66 H66         1.4249   52.9975   30.9147 H         1 UNK         0.0000 
     67 H67         3.2367   51.6236   29.9343 H         1 UNK         0.0000 
     68 H68         4.5113   52.4444   28.0315 H         1 UNK         0.0000 
     69 H69         7.0833   56.3911   25.0188 H         1 UNK         0.0000 
     70 H70         5.5039   57.5136   18.9354 H         1 UNK         0.0000 
     71 H71         7.0262   56.7436   18.5278 H         1 UNK         0.0000 
@<TRIPOS>BOND
     1    1    2 1    
     2    1   39 1    
     3    1   40 1    
     4    1   41 1    
     5    2    3 1    
     6    2    4 1    
     7    2    5 1    
     8    3   42 1    
     9    3   43 1    
    10    3   44 1    
    11    4   45 1    
    12    4   46 1    
    13    4   47 1    
    14    5    6 1    
    15    5   38 1    
    16    5    7 1    
    17    7    8 1    
    18    7   48 1    
    19    7   49 1    
    20    8    9 1    
    21    8   50 1    
    22    8   51 1    
    23    9   13 1    
    24    9   10 2    
    25   10   11 1    
    26   10   38 1    
    27   11   12 1    
    28   12   13 2    
    29   12   25 1    
    30   13   14 1    
    31   14   15 2    
    32   14   16 am   BACKBONE|DICT|INTERRES
    33   16   17 1    
    34   16   52 1    
    35   17   18 1    
    36   17   24 1    
    37   17   19 1    
    38   19   20 1    
    39   19   53 1    
    40   19   54 1    
    41   20   21 1    
    42   20   55 1    
    43   20   56 1    
    44   21   22 2    
    45   21   23 2    
    46   21   24 1    
    47   24   57 1    
    48   24   58 1    
    49   25   26 1    
    50   25   59 1    
    51   26   27 1    
    52   26   60 1    
    53   26   61 1    
    54   27   28 1    
    55   27   29 1    
    56   27   37 1    
    57   29   30 1    
    58   29   62 1    
    59   29   63 1    
    60   30   31 1    
    61   31   36 ar   
    62   31   32 ar   
    63   32   33 ar   
    64   32   64 1    
    65   33   34 ar   
    66   33   65 1    
    67   34   35 ar   
    68   34   66 1    
    69   35   36 ar   
    70   35   67 1    
    71   36   68 1    
    72   37   69 1    
    73   38   70 1    
    74   38   71 1    
@<TRIPOS>SUBSTRUCTURE
     1 UNK         1 GROUP             0       ****    0 ROOT    
