@<TRIPOS>MOLECULE
ZINC09300964_7
55   59    1
SMALL
USER_CHARGES


@<TRIPOS>ATOM
      1 C1          5.1034   53.8962   21.8112 C.ar      1 UNK         0.0000 
      2 C2          5.0518   54.0506   20.4193 C.ar      1 UNK         0.0000 
      3 C3          5.9807   54.8963   19.8303 C.ar      1 UNK         0.0000 
      4 C4          6.9171   55.5578   20.5673 C.ar      1 UNK         0.0000 
      5 C5          6.9957   55.4234   21.9461 C.ar      1 UNK         0.0000 
      6 C6          6.0617   54.5892   22.5950 C.ar      1 UNK         0.0000 
      7 C7          6.0657   54.4937   24.1065 C.2       1 UNK         0.0000 
      8 O8          7.1023   54.6707   24.7554 O.2       1 UNK         0.0000 
      9 N9          4.8405   54.2866   24.6397 N.am      1 UNK         0.0000 
     10 C10         4.4741   54.1487   25.9688 C.2       1 UNK         0.0000 
     11 N11         3.2042   54.0203   26.2794 N.2       1 UNK         0.0000 
     12 C12         3.0485   53.9185   27.5839 C.2       1 UNK         0.0000 
     13 C13         4.1908   53.9329   28.3490 C.2       1 UNK         0.0000 
     14 S14         5.5859   54.1054   27.3316 S.3       1 UNK         0.0000 
     15 C15         3.9218   53.7438   29.8145 C.3       1 UNK         0.0000 
     16 C16         2.3819   53.8651   29.8679 C.3       1 UNK         0.0000 
     17 C17         1.8140   53.6970   28.4316 C.3       1 UNK         0.0000 
     18 H18         1.0236   54.4236   28.2365 H         1 UNK         0.0000 
     19 C19         1.2450   52.2840   28.1787 C.2       1 UNK         0.0000 
     20 O20         1.9044   51.2940   28.4913 O.2       1 UNK         0.0000 
     21 N21         0.0310   52.2100   27.6049 N.am      1 UNK         0.0000 
     22 C22        -0.6909   50.9805   27.2543 C.3       1 UNK         0.0000 
     23 C23        -1.3911   51.0728   25.8709 C.3       1 UNK         0.0000 
     24 C24        -0.4228   51.3418   24.6895 C.3       1 UNK         0.0000 
     25 C25         0.4610   50.1200   24.3680 C.3       1 UNK         0.0000 
     26 C26        -0.3886   48.8687   24.0673 C.3       1 UNK         0.0000 
     27 C27        -1.3908   48.5804   25.2005 C.3       1 UNK         0.0000 
     28 C28        -2.2448   49.8198   25.5422 C.3       1 UNK         0.0000 
     29 O29         7.6616   56.3464   19.7508 O.3       1 UNK         0.0000 
     30 C30         7.3012   55.9803   18.4468 C.3       1 UNK         0.0000 
     31 O31         6.1115   55.2426   18.5239 O.3       1 UNK         0.0000 
     32 H32         4.3786   53.2357   22.2682 H         1 UNK         0.0000 
     33 H33         4.3111   53.5347   19.8287 H         1 UNK         0.0000 
     34 H34         7.7443   55.9786   22.4871 H         1 UNK         0.0000 
     35 H35         4.0775   54.2734   23.9839 H         1 UNK         0.0000 
     36 H36         4.4046   54.4957   30.4355 H         1 UNK         0.0000 
     37 H37         4.2580   52.7633   30.1542 H         1 UNK         0.0000 
     38 H38         2.1223   54.8667   30.2165 H         1 UNK         0.0000 
     39 H39         1.9448   53.1725   30.5905 H         1 UNK         0.0000 
     40 H40        -0.4662   53.0687   27.4330 H         1 UNK         0.0000 
     41 H41        -1.4116   50.7225   28.0307 H         1 UNK         0.0000 
     42 H42        -0.0069   50.1302   27.2477 H         1 UNK         0.0000 
     43 H43        -2.0894   51.9129   25.9076 H         1 UNK         0.0000 
     44 H44         0.2156   52.2006   24.9020 H         1 UNK         0.0000 
     45 H45        -0.9957   51.6099   23.8007 H         1 UNK         0.0000 
     46 H46         1.1045   49.9049   25.2177 H         1 UNK         0.0000 
     47 H47         1.1219   50.3359   23.5265 H         1 UNK         0.0000 
     48 H48         0.2641   48.0085   23.9177 H         1 UNK         0.0000 
     49 H49        -0.9285   49.0117   23.1295 H         1 UNK         0.0000 
     50 H50        -0.8417   48.2489   26.0822 H         1 UNK         0.0000 
     51 H51        -2.0361   47.7466   24.9269 H         1 UNK         0.0000 
     52 H52        -2.8987   50.0421   24.6970 H         1 UNK         0.0000 
     53 H53        -2.9044   49.5878   26.3806 H         1 UNK         0.0000 
     54 H54         8.0847   55.3514   18.0201 H         1 UNK         0.0000 
     55 H55         7.1588   56.8634   17.8216 H         1 UNK         0.0000 
@<TRIPOS>BOND
     1    1    6 ar   
     2    1    2 ar   
     3    1   32 1    
     4    2    3 ar   
     5    2   33 1    
     6    3   31 1    
     7    3    4 ar   
     8    4    5 ar   
     9    4   29 1    
    10    5    6 ar   
    11    5   34 1    
    12    6    7 1    
    13    7    8 2    
    14    7    9 am   BACKBONE|DICT|INTERRES
    15    9   10 am   BACKBONE|DICT|INTERRES
    16    9   35 1    
    17   10   14 1    
    18   10   11 2    
    19   11   12 1    
    20   12   17 1    
    21   12   13 2    
    22   13   14 1    
    23   13   15 1    
    24   15   16 1    
    25   15   36 1    
    26   15   37 1    
    27   16   17 1    
    28   16   38 1    
    29   16   39 1    
    30   17   18 1    
    31   17   19 1    
    32   19   20 2    
    33   19   21 am   BACKBONE|DICT|INTERRES
    34   21   22 1    
    35   21   40 1    
    36   22   23 1    
    37   22   41 1    
    38   22   42 1    
    39   23   28 1    
    40   23   24 1    
    41   23   43 1    
    42   24   25 1    
    43   24   44 1    
    44   24   45 1    
    45   25   26 1    
    46   25   46 1    
    47   25   47 1    
    48   26   27 1    
    49   26   48 1    
    50   26   49 1    
    51   27   28 1    
    52   27   50 1    
    53   27   51 1    
    54   28   52 1    
    55   28   53 1    
    56   29   30 1    
    57   30   31 1    
    58   30   54 1    
    59   30   55 1    
@<TRIPOS>SUBSTRUCTURE
     1 UNK         1 GROUP             0       ****    0 ROOT    
