@<TRIPOS>MOLECULE
ZINC33010948_4281
51   55    1
SMALL
USER_CHARGES


@<TRIPOS>ATOM
      1 C1          6.3044   56.0967   24.4817 C.ar      1 UNK         0.0000 
      2 C2          6.2589   55.5841   25.7673 C.ar      1 UNK         0.0000 
      3 C3          6.6841   54.3202   26.0137 C.ar      1 UNK         0.0000 
      4 C4          7.1044   53.5802   24.9452 C.ar      1 UNK         0.0000 
      5 C5          7.1044   54.0283   23.6320 C.ar      1 UNK         0.0000 
      6 C6          6.7044   55.3303   23.3796 C.ar      1 UNK         0.0000 
      7 S7          6.7044   56.0646   21.7348 S.3       1 UNK         0.0000 
      8 C8          6.6591   54.8908   20.3689 C.3       1 UNK         0.0000 
      9 C9          6.2487   55.5791   19.0790 C.ar      1 UNK         0.0000 
     10 N10         7.2135   56.3072   18.4773 N.ar      1 UNK         0.0000 
     11 C11         6.8776   57.0510   17.3895 C.ar      1 UNK         0.0000 
     12 C12         5.5570   56.9890   16.8571 C.ar      1 UNK         0.0000 
     13 C13         4.8990   57.5412   15.7045 C.2       1 UNK         0.0000 
     14 C14         3.5885   57.1433   15.6084 C.2       1 UNK         0.0000 
     15 S15         3.0400   56.0967   16.8820 S.3       1 UNK         0.0000 
     16 C16         4.6457   56.1553   17.5945 C.ar      1 UNK         0.0000 
     17 N17         4.9527   55.4703   18.7006 N.ar      1 UNK         0.0000 
     18 C18         2.8824   57.7175   14.4128 C.3       1 UNK         0.0000 
     19 C19         4.0546   58.2543   13.5839 C.3       1 UNK         0.0000 
     20 C20         5.2520   58.4278   14.5304 C.3       1 UNK         0.0000 
     21 N21         7.9189   57.8234   16.8353 N.pl3     1 UNK         0.0000 
     22 C22         7.7270   59.1744   16.3047 C.3       1 UNK         0.0000 
     23 C23         8.7644   60.0975   16.9454 C.3       1 UNK         0.0000 
     24 H24         8.9899   60.9719   16.3328 H         1 UNK         0.0000 
     25 C25         9.9647   59.1703   17.0264 C.3       1 UNK         0.0000 
     26 C26         9.3297   57.7916   17.2842 C.3       1 UNK         0.0000 
     27 H27         9.3786   57.5803   18.3543 H         1 UNK         0.0000 
     28 C28        10.1239   56.6715   16.5683 C.2       1 UNK         0.0000 
     29 O29         9.9771   56.4468   15.3691 O.2       1 UNK         0.0000 
     30 N30        10.9998   55.9653   17.2817 N.am      1 UNK         0.0000 
     31 O31         8.3044   60.4967   18.2234 O.3       1 UNK         0.0000 
     32 Cl32        6.7044   53.6967   27.6235 Cl        1 UNK         0.0000 
     33 H33         5.9058   57.0911   24.3741 H         1 UNK         0.0000 
     34 H34         5.8846   56.0967   26.6151 H         1 UNK         0.0000 
     35 H35         7.5044   52.6245   25.1993 H         1 UNK         0.0000 
     36 H36         7.4845   53.3691   22.8817 H         1 UNK         0.0000 
     37 H37         5.9838   54.0653   20.5966 H         1 UNK         0.0000 
     38 H38         7.6637   54.4967   20.2271 H         1 UNK         0.0000 
     39 H39         2.3201   56.9725   13.8488 H         1 UNK         0.0000 
     40 H40         2.1909   58.5125   14.6951 H         1 UNK         0.0000 
     41 H41         4.3113   57.5262   12.8118 H         1 UNK         0.0000 
     42 H42         3.8018   59.1814   13.0673 H         1 UNK         0.0000 
     43 H43         5.3545   59.4754   14.8156 H         1 UNK         0.0000 
     44 H44         6.1726   58.1257   14.0298 H         1 UNK         0.0000 
     45 H45         6.7289   59.5771   16.4806 H         1 UNK         0.0000 
     46 H46         7.9260   59.1523   15.2324 H         1 UNK         0.0000 
     47 H47        10.6420   59.4826   17.8223 H         1 UNK         0.0000 
     48 H48        10.5118   59.2095   16.0812 H         1 UNK         0.0000 
     49 H49        11.5233   55.2415   16.8149 H         1 UNK         0.0000 
     50 H50        11.1081   56.0966   18.2799 H         1 UNK         0.0000 
     51 H51         7.3903   60.8543   18.0818 H         1 UNK         0.0000 
@<TRIPOS>BOND
     1    1    6 ar   
     2    1    2 ar   
     3    1   33 1    
     4    2    3 ar   
     5    2   34 1    
     6    3    4 ar   
     7    3   32 1    
     8    4    5 ar   
     9    4   35 1    
    10    5    6 ar   
    11    5   36 1    
    12    6    7 1    
    13    7    8 1    
    14    8    9 1    
    15    8   37 1    
    16    8   38 1    
    17    9   17 ar   
    18    9   10 ar   
    19   10   11 ar   
    20   11   12 ar   
    21   11   21 1    
    22   12   16 ar   
    23   12   13 1    
    24   13   20 1    
    25   13   14 2    
    26   14   15 1    
    27   14   18 1    
    28   15   16 1    
    29   16   17 ar   
    30   18   19 1    
    31   18   39 1    
    32   18   40 1    
    33   19   20 1    
    34   19   41 1    
    35   19   42 1    
    36   20   43 1    
    37   20   44 1    
    38   21   26 1    
    39   21   22 1    
    40   22   23 1    
    41   22   45 1    
    42   22   46 1    
    43   23   24 1    
    44   23   25 1    
    45   23   31 1    
    46   25   26 1    
    47   25   47 1    
    48   25   48 1    
    49   26   27 1    
    50   26   28 1    
    51   28   29 2    
    52   28   30 am   BACKBONE|DICT|INTERRES
    53   30   49 1    
    54   30   50 1    
    55   31   51 1    
@<TRIPOS>SUBSTRUCTURE
     1 UNK         1 GROUP             0       ****    0 ROOT    
