ZINC09183784_2799
                    3D
 Schrodinger Suite 2024-2.
 55 59  0  0  1  0            999 V2000
    2.8620   52.7578   30.4831 C   0  0  0  0  0  0
    2.8402   53.0313   29.0098 C   0  0  0  0  0  0
    3.7974   53.6573   28.2158 C   0  0  0  0  0  0
    3.3254   53.5526   26.9207 C   0  0  0  0  0  0
    2.0986   52.9061   27.0130 N   0  0  0  0  0  0
    1.8118   52.6347   28.2978 N   0  0  0  0  0  0
    1.1678   52.5281   25.9941 C   0  0  0  0  0  0
    1.1149   53.2219   24.7747 C   0  0  0  0  0  0
    0.2844   52.7773   23.7510 C   0  0  0  0  0  0
   -0.5232   51.6598   23.9449 C   0  0  0  0  0  0
   -0.5139   50.9857   25.1633 C   0  0  0  0  0  0
    0.3297   51.4157   26.1853 C   0  0  0  0  0  0
    3.8963   53.8648   25.7073 N   0  0  0  0  0  0
    5.1173   54.3754   25.4529 C   0  0  0  0  0  0
    5.9405   54.7438   26.2973 O   0  0  0  0  0  0
    5.3892   54.4586   24.0315 C   0  0  0  0  0  0
    6.5699   54.9377   23.4425 C   0  0  0  0  0  0
    6.3681   54.9007   22.0726 C   0  0  0  0  0  0
    5.1017   54.3828   21.9073 N   0  0  0  0  0  0
    4.5396   54.0985   23.0850 N   0  0  0  0  0  0
    4.4008   54.1029   20.6539 C   0  0  1  0  0  0
    3.4217   54.5571   20.7570 H   0  0  0  0  0  0
    5.1400   54.8426   19.5052 C   0  0  0  0  0  0
    6.6787   54.9601   19.6468 C   0  0  2  0  0  0
    7.0934   53.9692   19.4654 H   0  0  0  0  0  0
    7.1067   55.3499   20.9983 N   0  0  0  0  0  0
    7.2840   55.8510   18.5644 C   0  0  0  0  0  0
    8.1350   55.3010   17.6013 C   0  0  0  0  0  0
    8.7007   56.1206   16.6261 C   0  0  0  0  0  0
    8.4053   57.4832   16.6101 C   0  0  0  0  0  0
    7.5486   58.0353   17.5600 C   0  0  0  0  0  0
    6.9864   57.2197   18.5395 C   0  0  0  0  0  0
    4.1005   52.6017   20.4228 C   0  0  0  0  0  0
    3.5435   52.4051   19.2304 F   0  0  0  0  0  0
    5.2043   51.8655   20.4818 F   0  0  0  0  0  0
    3.2497   52.1235   21.3328 F   0  0  0  0  0  0
    3.8063   53.0537   30.9428 H   0  0  0  0  0  0
    2.0558   53.2874   30.9902 H   0  0  0  0  0  0
    2.7370   51.6972   30.6937 H   0  0  0  0  0  0
    4.7440   54.0712   28.5335 H   0  0  0  0  0  0
    1.6919   54.1165   24.6013 H   0  0  0  0  0  0
    0.2870   53.2965   22.8053 H   0  0  0  0  0  0
   -1.1584   51.3090   23.1442 H   0  0  0  0  0  0
   -1.1417   50.1168   25.3102 H   0  0  0  0  0  0
    0.3353   50.8552   27.1133 H   0  0  0  0  0  0
    3.3666   53.5967   24.8939 H   0  0  0  0  0  0
    7.4481   55.3124   23.9487 H   0  0  0  0  0  0
    4.8956   54.3868   18.5422 H   0  0  0  0  0  0
    4.7141   55.8394   19.4191 H   0  0  0  0  0  0
    8.1131   55.3438   21.0727 H   0  0  0  0  0  0
    8.3663   54.2443   17.6059 H   0  0  0  0  0  0
    9.3646   55.6981   15.8846 H   0  0  0  0  0  0
    8.8431   58.1148   15.8493 H   0  0  0  0  0  0
    7.3163   59.0909   17.5347 H   0  0  0  0  0  0
    6.3212   57.6512   19.2717 H   0  0  0  0  0  0
  1  2  1  0  0  0
  1 37  1  0  0  0
  1 38  1  0  0  0
  1 39  1  0  0  0
  2  6  2  0  0  0
  2  3  1  0  0  0
  3  4  2  0  0  0
  3 40  1  0  0  0
  4  5  1  0  0  0
  4 13  1  0  0  0
  5  6  1  0  0  0
  5  7  1  0  0  0
  7 12  2  0  0  0
  7  8  1  0  0  0
  8  9  2  0  0  0
  8 41  1  0  0  0
  9 10  1  0  0  0
  9 42  1  0  0  0
 10 11  2  0  0  0
 10 43  1  0  0  0
 11 12  1  0  0  0
 11 44  1  0  0  0
 12 45  1  0  0  0
 13 14  1  0  0  0
 13 46  1  0  0  0
 14 15  2  0  0  0
 14 16  1  0  0  0
 16 20  2  0  0  0
 16 17  1  0  0  0
 17 18  2  0  0  0
 17 47  1  0  0  0
 18 26  1  0  0  0
 18 19  1  0  0  0
 19 20  1  0  0  0
 19 21  1  0  0  0
 21 22  1  0  0  0
 21 23  1  0  0  0
 21 33  1  0  0  0
 23 24  1  0  0  0
 23 48  1  0  0  0
 23 49  1  0  0  0
 24 25  1  0  0  0
 24 26  1  0  0  0
 24 27  1  0  0  0
 26 50  1  0  0  0
 27 32  2  0  0  0
 27 28  1  0  0  0
 28 29  2  0  0  0
 28 51  1  0  0  0
 29 30  1  0  0  0
 29 52  1  0  0  0
 30 31  2  0  0  0
 30 53  1  0  0  0
 31 32  1  0  0  0
 31 54  1  0  0  0
 32 55  1  0  0  0
 33 34  1  0  0  0
 33 35  1  0  0  0
 33 36  1  0  0  0
M  END
> <i_i_glide_confnum>
15

> <i_i_glide_lignum>
2800

> <i_i_glide_posenum>
106

> <i_i_glide_rotatable_bonds>
6

> <i_m_Source_File_Index>
2811

> <b_m_subgroup_collapsed>
0

> <r_i_docking_score>
-5.51175

> <r_i_glide_ecoul>
-2.79868

> <r_i_glide_eff_state_penalty>
0

> <r_i_glide_einternal>
1.88657

> <r_i_glide_emodel>
-61.4178

> <r_i_glide_energy>
-46.5319

> <r_i_glide_erotb>
0.463613

> <r_i_glide_esite>
-0.144778

> <r_i_glide_evdw>
-43.7332

> <r_i_glide_gscore>
-5.51175

> <r_i_glide_hbond>
0

> <r_i_glide_ligand_efficiency>
-0.16211

> <r_i_glide_ligand_efficiency_ln>
-1.2177

> <r_i_glide_ligand_efficiency_sa>
-0.525175

> <r_i_glide_lipo>
-2.1378

> <r_i_glide_metal>
0

> <r_i_glide_rewards>
-1.08632

> <s_i_glide_gridfile>
wee1_glide-grid

> <s_m_Source_File>
wee1_decoys_glide_SP.sdf

> <s_m_Source_Path>
/Users/zhangxujun/Desktop

> <s_m_entry_id>
3086

> <s_m_entry_name>
wee1_decoys_glide_SP.2811

> <s_m_subgroup_title>
wee1_decoys_glide_SP

> <s_m_subgroupid>
wee1_decoys_glide_SP


$$$$
