@<TRIPOS>MOLECULE
ZINC33033385_319
79   81    1
SMALL
USER_CHARGES


@<TRIPOS>ATOM
      1 C1          6.5977   53.6980   26.2553 C.3       1 UNK         0.0000 
      2 C2          5.3813   53.6232   27.1982 C.3       1 UNK         0.0000 
      3 C3          5.8141   54.0716   28.6049 C.3       1 UNK         0.0000 
      4 C4          4.2003   54.4437   26.6111 C.3       1 UNK         0.0000 
      5 N5          2.8529   54.1954   27.1829 N.am      1 UNK         0.0000 
      6 C6          2.7181   54.5846   28.6075 C.3       1 UNK         0.0000 
      7 C7          1.3770   55.2204   29.0765 C.3       1 UNK         0.0000 
      8 C8          0.6508   54.3323   30.1089 C.3       1 UNK         0.0000 
      9 C9          1.6077   56.6258   29.6478 C.3       1 UNK         0.0000 
     10 C10         1.9192   53.3816   26.6054 C.2       1 UNK         0.0000 
     11 O11         1.0455   52.8328   27.2814 O.2       1 UNK         0.0000 
     12 C12         1.9026   53.1176   25.1079 C.ar      1 UNK         0.0000 
     13 C13         2.3298   54.0279   24.1361 C.ar      1 UNK         0.0000 
     14 C14         2.3480   53.6632   22.7908 C.ar      1 UNK         0.0000 
     15 C15         1.9210   52.3963   22.3491 C.ar      1 UNK         0.0000 
     16 C16         1.4048   51.5044   23.3264 C.ar      1 UNK         0.0000 
     17 C17         1.3815   51.9039   24.6639 C.ar      1 UNK         0.0000 
     18 N18         0.8993   50.2358   22.9907 N.pl3     1 UNK         0.0000 
     19 S19        -0.0649   49.1913   24.0611 S.o2      1 UNK         0.0000 
     20 O20        -0.5236   48.0966   23.2051 O.2       1 UNK         0.0000 
     21 O21         0.7045   48.9270   25.2806 O.2       1 UNK         0.0000 
     22 C22        -1.5026   50.1562   24.5025 C.ar      1 UNK         0.0000 
     23 C23        -1.7257   50.5006   25.8374 C.ar      1 UNK         0.0000 
     24 C24        -2.8231   51.2876   26.1720 C.ar      1 UNK         0.0000 
     25 C25        -3.7097   51.7219   25.1787 C.ar      1 UNK         0.0000 
     26 C26        -3.4785   51.3652   23.8457 C.ar      1 UNK         0.0000 
     27 C27        -2.3790   50.5820   23.5057 C.ar      1 UNK         0.0000 
     28 C28        -4.9178   52.5935   25.5310 C.3       1 UNK         0.0000 
     29 C29        -5.7062   52.0684   26.7497 C.3       1 UNK         0.0000 
     30 C30        -4.5114   54.0676   25.7004 C.3       1 UNK         0.0000 
     31 N31         2.0669   52.1069   20.9802 N.pl3     1 UNK         0.0000 
     32 C32         3.4034   52.3017   20.3766 C.3       1 UNK         0.0000 
     33 C33         3.4098   52.5076   18.8495 C.3       1 UNK         0.0000 
     34 N34         2.7045   51.3316   18.1707 N.4       1 UNK         0.0000 
     35 C35         1.2823   51.1754   18.7230 C.3       1 UNK         0.0000 
     36 C36         1.3085   51.0608   20.2632 C.3       1 UNK         0.0000 
     37 H37         6.9488   54.7232   26.1332 H         1 UNK         0.0000 
     38 H38         6.3615   53.3041   25.2662 H         1 UNK         0.0000 
     39 H39         7.4268   53.1065   26.6439 H         1 UNK         0.0000 
     40 H40         5.0831   52.5745   27.2512 H         1 UNK         0.0000 
     41 H41         5.9054   55.1556   28.6705 H         1 UNK         0.0000 
     42 H42         5.1046   53.7455   29.3617 H         1 UNK         0.0000 
     43 H43         6.7795   53.6478   28.8815 H         1 UNK         0.0000 
     44 H44         4.4263   55.5055   26.6986 H         1 UNK         0.0000 
     45 H45         4.2218   54.2457   25.5462 H         1 UNK         0.0000 
     46 H46         2.9308   53.6987   29.2071 H         1 UNK         0.0000 
     47 H47         3.5150   55.2895   28.8421 H         1 UNK         0.0000 
     48 H48         0.7047   55.3377   28.2251 H         1 UNK         0.0000 
     49 H49         1.2725   54.1437   30.9826 H         1 UNK         0.0000 
     50 H50        -0.2671   54.7973   30.4655 H         1 UNK         0.0000 
     51 H51         0.3797   53.3630   29.6938 H         1 UNK         0.0000 
     52 H52         2.3045   56.6170   30.4816 H         1 UNK         0.0000 
     53 H53         1.9859   57.2967   28.8802 H         1 UNK         0.0000 
     54 H54         0.6948   57.0564   30.0413 H         1 UNK         0.0000 
     55 H55         2.6626   55.0200   24.4045 H         1 UNK         0.0000 
     56 H56         2.6991   54.3954   22.0773 H         1 UNK         0.0000 
     57 H57         1.0067   51.2324   25.4176 H         1 UNK         0.0000 
     58 H58         0.7966   50.0528   22.0060 H         1 UNK         0.0000 
     59 H59        -1.0592   50.1617   26.6204 H         1 UNK         0.0000 
     60 H60        -2.9762   51.5533   27.2077 H         1 UNK         0.0000 
     61 H61        -4.1536   51.6948   23.0715 H         1 UNK         0.0000 
     62 H62        -2.2051   50.3116   22.4740 H         1 UNK         0.0000 
     63 H63        -5.6142   52.5466   24.6911 H         1 UNK         0.0000 
     64 H64        -5.9876   51.0236   26.6167 H         1 UNK         0.0000 
     65 H65        -5.1338   52.1377   27.6747 H         1 UNK         0.0000 
     66 H66        -6.6261   52.6362   26.8922 H         1 UNK         0.0000 
     67 H67        -4.0957   54.4716   24.7758 H         1 UNK         0.0000 
     68 H68        -5.3704   54.6798   25.9696 H         1 UNK         0.0000 
     69 H69        -3.7618   54.1907   26.4814 H         1 UNK         0.0000 
     70 H70         3.9659   53.1032   20.8535 H         1 UNK         0.0000 
     71 H71         3.9488   51.3803   20.5851 H         1 UNK         0.0000 
     72 H72         4.4212   52.5064   18.4386 H         1 UNK         0.0000 
     73 H73         2.8951   53.4201   18.5454 H         1 UNK         0.0000 
     74 H74         3.2689   50.4967   18.3095 H         1 UNK         0.0000 
     75 H75         0.8811   50.2805   18.2449 H         1 UNK         0.0000 
     76 H76         0.7234   52.0486   18.3823 H         1 UNK         0.0000 
     77 H77         1.8206   50.1249   20.4966 H         1 UNK         0.0000 
     78 H78         0.2820   51.0128   20.6271 H         1 UNK         0.0000 
     79 H79         2.6912   51.4660   17.1683 H         1 UNK         0.0000 
@<TRIPOS>BOND
     1    1    2 1    
     2    1   37 1    
     3    1   38 1    
     4    1   39 1    
     5    2    3 1    
     6    2    4 1    
     7    2   40 1    
     8    3   41 1    
     9    3   42 1    
    10    3   43 1    
    11    4    5 1    
    12    4   44 1    
    13    4   45 1    
    14    5    6 1    
    15    5   10 am   BACKBONE|DICT|INTERRES
    16    6    7 1    
    17    6   46 1    
    18    6   47 1    
    19    7    8 1    
    20    7    9 1    
    21    7   48 1    
    22    8   49 1    
    23    8   50 1    
    24    8   51 1    
    25    9   52 1    
    26    9   53 1    
    27    9   54 1    
    28   10   11 2    
    29   10   12 1    
    30   12   17 ar   
    31   12   13 ar   
    32   13   14 ar   
    33   13   55 1    
    34   14   15 ar   
    35   14   56 1    
    36   15   16 ar   
    37   15   31 1    
    38   16   17 ar   
    39   16   18 1    
    40   17   57 1    
    41   18   19 1    
    42   18   58 1    
    43   19   20 2    
    44   19   21 2    
    45   19   22 1    
    46   22   27 ar   
    47   22   23 ar   
    48   23   24 ar   
    49   23   59 1    
    50   24   25 ar   
    51   24   60 1    
    52   25   26 ar   
    53   25   28 1    
    54   26   27 ar   
    55   26   61 1    
    56   27   62 1    
    57   28   29 1    
    58   28   30 1    
    59   28   63 1    
    60   29   64 1    
    61   29   65 1    
    62   29   66 1    
    63   30   67 1    
    64   30   68 1    
    65   30   69 1    
    66   31   36 1    
    67   31   32 1    
    68   32   33 1    
    69   32   70 1    
    70   32   71 1    
    71   33   34 1    
    72   33   72 1    
    73   33   73 1    
    74   34   35 1    
    75   34   74 1    
    76   34   79 1    
    77   35   36 1    
    78   35   75 1    
    79   35   76 1    
    80   36   77 1    
    81   36   78 1    
@<TRIPOS>SUBSTRUCTURE
     1 UNK         1 GROUP             0       ****    0 ROOT    
