@<TRIPOS>MOLECULE
ZINC66359219_6225
53   55    1
SMALL
USER_CHARGES


@<TRIPOS>ATOM
      1 C1         10.5669   52.4099   16.4005 C.3       1 UNK         0.0000 
      2 N2          9.1661   52.4805   16.8471 N.pl3     1 UNK         0.0000 
      3 C3          8.3051   51.2976   16.6922 C.3       1 UNK         0.0000 
      4 C4          8.6676   53.6580   17.5116 C.ar      1 UNK         0.0000 
      5 C5          7.3613   53.7339   18.0256 C.ar      1 UNK         0.0000 
      6 C6          6.9376   54.8785   18.7116 C.ar      1 UNK         0.0000 
      7 C7          7.8086   55.9677   18.8151 C.ar      1 UNK         0.0000 
      8 C8          9.1039   55.8644   18.3076 C.ar      1 UNK         0.0000 
      9 N9          9.4782   54.7261   17.6914 N.pl3     1 UNK         0.0000 
     10 C10         5.5390   54.9363   19.3247 C.3       1 UNK         0.0000 
     11 N11         5.4667   54.4378   20.7058 N.am      1 UNK         0.0000 
     12 C12         6.1118   54.9832   21.7520 C.2       1 UNK         0.0000 
     13 O13         6.7177   56.0514   21.6837 O.2       1 UNK         0.0000 
     14 N14         6.0158   54.2497   22.8721 N.am      1 UNK         0.0000 
     15 C15         6.6673   54.5695   24.1512 C.3       1 UNK         0.0000 
     16 C16         5.7836   54.4546   25.3955 C.ar      1 UNK         0.0000 
     17 C17         6.3889   54.2573   26.6386 C.ar      1 UNK         0.0000 
     18 C18         5.6142   54.0932   27.7848 C.ar      1 UNK         0.0000 
     19 C19         4.2154   54.1092   27.7103 C.ar      1 UNK         0.0000 
     20 C20         3.6121   54.3216   26.4598 C.ar      1 UNK         0.0000 
     21 C21         4.3880   54.4952   25.3154 C.ar      1 UNK         0.0000 
     22 C22         3.3928   53.9211   28.9685 C.2       1 UNK         0.0000 
     23 O23         3.8961   54.0959   30.0818 O.2       1 UNK         0.0000 
     24 N24         2.1139   53.5290   28.8080 N.am      1 UNK         0.0000 
     25 C25         1.1346   53.3996   29.8866 C.3       1 UNK         0.0000 
     26 C26         0.3690   52.1012   29.9985 C.3       1 UNK         0.0000 
     27 C27         1.3993   52.4601   31.0452 C.3       1 UNK         0.0000 
     28 H28        11.2146   52.3552   17.2803 H         1 UNK         0.0000 
     29 H29        10.7276   51.5197   15.7875 H         1 UNK         0.0000 
     30 H30        10.8107   53.2951   15.8102 H         1 UNK         0.0000 
     31 H31         7.3794   51.5858   16.1942 H         1 UNK         0.0000 
     32 H32         8.8063   50.5315   16.0977 H         1 UNK         0.0000 
     33 H33         8.0872   50.8988   17.6848 H         1 UNK         0.0000 
     34 H34         6.6762   52.8994   17.9387 H         1 UNK         0.0000 
     35 H35         7.4963   56.8677   19.3197 H         1 UNK         0.0000 
     36 H36         9.8552   56.6383   18.3840 H         1 UNK         0.0000 
     37 H37         4.8603   54.3418   18.7104 H         1 UNK         0.0000 
     38 H38         5.1484   55.9556   19.2748 H         1 UNK         0.0000 
     39 H39         4.8697   53.6385   20.8615 H         1 UNK         0.0000 
     40 H40         5.5778   53.3440   22.8156 H         1 UNK         0.0000 
     41 H41         7.1129   55.5644   24.1460 H         1 UNK         0.0000 
     42 H42         7.5036   53.8750   24.2477 H         1 UNK         0.0000 
     43 H43         7.4631   54.2129   26.7285 H         1 UNK         0.0000 
     44 H44         6.1155   53.9462   28.7319 H         1 UNK         0.0000 
     45 H45         2.5374   54.3604   26.3534 H         1 UNK         0.0000 
     46 H46         3.8939   54.6577   24.3704 H         1 UNK         0.0000 
     47 H47         1.7527   53.4710   27.8686 H         1 UNK         0.0000 
     48 H48         0.6030   54.3297   30.1031 H         1 UNK         0.0000 
     49 H49         0.5856   51.2965   29.2935 H         1 UNK         0.0000 
     50 H50        -0.6856   52.1333   30.2743 H         1 UNK         0.0000 
     51 H51         1.0579   52.7537   32.0412 H         1 UNK         0.0000 
     52 H52         2.3440   51.9204   31.0758 H         1 UNK         0.0000 
     53 H53        10.4256   54.6574   17.3502 H         1 UNK         0.0000 
@<TRIPOS>BOND
     1    1    2 1    
     2    1   28 1    
     3    1   29 1    
     4    1   30 1    
     5    2    3 1    
     6    2    4 1    
     7    3   31 1    
     8    3   32 1    
     9    3   33 1    
    10    4    9 ar   
    11    4    5 ar   
    12    5    6 ar   
    13    5   34 1    
    14    6    7 ar   
    15    6   10 1    
    16    7    8 ar   
    17    7   35 1    
    18    8    9 ar   
    19    8   36 1    
    20    9   53 1    
    21   10   11 1    
    22   10   37 1    
    23   10   38 1    
    24   11   12 am   BACKBONE|DICT|INTERRES
    25   11   39 1    
    26   12   13 2    
    27   12   14 am   BACKBONE|DICT|INTERRES
    28   14   15 1    
    29   14   40 1    
    30   15   16 1    
    31   15   41 1    
    32   15   42 1    
    33   16   21 ar   
    34   16   17 ar   
    35   17   18 ar   
    36   17   43 1    
    37   18   19 ar   
    38   18   44 1    
    39   19   20 ar   
    40   19   22 1    
    41   20   21 ar   
    42   20   45 1    
    43   21   46 1    
    44   22   23 2    
    45   22   24 am   BACKBONE|DICT|INTERRES
    46   24   25 1    
    47   24   47 1    
    48   25   27 1    
    49   25   26 1    
    50   25   48 1    
    51   26   27 1    
    52   26   49 1    
    53   26   50 1    
    54   27   51 1    
    55   27   52 1    
@<TRIPOS>SUBSTRUCTURE
     1 UNK         1 GROUP             0       ****    0 ROOT    
