@<TRIPOS>MOLECULE
ZINC38687269_2319
54   58    1
SMALL
USER_CHARGES


@<TRIPOS>ATOM
      1 C1          5.5963   55.7011   19.5980 C.3       1 UNK         0.0000 
      2 C2          4.8284   54.5187   19.0360 C.2       1 UNK         0.0000 
      3 C3          4.6270   54.2763   17.6354 C.ar      1 UNK         0.0000 
      4 C4          4.9854   54.9273   16.4418 C.ar      1 UNK         0.0000 
      5 C5          4.6072   54.3602   15.2221 C.ar      1 UNK         0.0000 
      6 C6          3.8845   53.1667   15.1710 C.ar      1 UNK         0.0000 
      7 C7          3.5067   52.4971   16.3362 C.ar      1 UNK         0.0000 
      8 C8          3.8891   53.0764   17.5506 C.ar      1 UNK         0.0000 
      9 O9          3.6150   52.5865   18.7881 O.3       1 UNK         0.0000 
     10 C10         4.1850   53.4460   19.6840 C.2       1 UNK         0.0000 
     11 C11         3.9788   53.0950   21.0906 C.2       1 UNK         0.0000 
     12 O12         3.6186   51.9740   21.4648 O.2       1 UNK         0.0000 
     13 O13         4.2181   54.1595   21.9041 O.3       1 UNK         0.0000 
     14 C14         3.9105   54.0969   23.2452 C.ar      1 UNK         0.0000 
     15 C15         2.5926   53.9245   23.6878 C.ar      1 UNK         0.0000 
     16 C16         2.3013   53.9055   25.0513 C.ar      1 UNK         0.0000 
     17 C17         3.3086   54.0936   26.0077 C.ar      1 UNK         0.0000 
     18 C18         4.6305   54.2493   25.5413 C.ar      1 UNK         0.0000 
     19 C19         4.9312   54.2606   24.1814 C.ar      1 UNK         0.0000 
     20 O20         5.6920   54.3535   26.4232 O.3       1 UNK         0.0000 
     21 C21         5.5360   53.7717   27.6407 C.2       1 UNK         0.0000 
     22 C22         4.3316   53.5605   28.2104 C.2       1 UNK         0.0000 
     23 C23         3.0925   54.1534   27.5354 C.3       1 UNK         0.0000 
     24 H24         3.1246   55.2257   27.7328 H         1 UNK         0.0000 
     25 C25         1.7806   53.6282   28.1405 C.ar      1 UNK         0.0000 
     26 C26         1.2442   52.4076   27.7074 C.ar      1 UNK         0.0000 
     27 C27         0.1477   51.8445   28.3552 C.ar      1 UNK         0.0000 
     28 C28        -0.4176   52.4921   29.4483 C.ar      1 UNK         0.0000 
     29 C29         0.0984   53.7131   29.8812 C.ar      1 UNK         0.0000 
     30 C30         1.2028   54.2970   29.2381 C.ar      1 UNK         0.0000 
     31 O31         1.8063   55.4703   29.6654 O.3       1 UNK         0.0000 
     32 C32         1.2483   56.2249   30.7357 C.3       1 UNK         0.0000 
     33 C33         4.1640   52.7995   29.4127 C.1       1 UNK         0.0000 
     34 N34         3.9077   52.1827   30.3613 N.1       1 UNK         0.0000 
     35 N35         6.7611   53.3688   28.0825 N.pl3     1 UNK         0.0000 
     36 F36         4.9522   54.9767   14.0703 F         1 UNK         0.0000 
     37 H37         6.6249   55.7057   19.2343 H         1 UNK         0.0000 
     38 H38         5.1500   56.6435   19.2801 H         1 UNK         0.0000 
     39 H39         5.6538   55.7253   20.6847 H         1 UNK         0.0000 
     40 H40         5.5476   55.8487   16.4595 H         1 UNK         0.0000 
     41 H41         3.6209   52.7525   14.2084 H         1 UNK         0.0000 
     42 H42         2.9727   51.5568   16.3111 H         1 UNK         0.0000 
     43 H43         1.7942   53.8078   22.9690 H         1 UNK         0.0000 
     44 H44         1.2735   53.7829   25.3579 H         1 UNK         0.0000 
     45 H45         5.9529   54.3880   23.8558 H         1 UNK         0.0000 
     46 H46         1.7052   51.8657   26.8952 H         1 UNK         0.0000 
     47 H47        -0.2473   50.8909   28.0310 H         1 UNK         0.0000 
     48 H48        -1.2497   52.0374   29.9674 H         1 UNK         0.0000 
     49 H49        -0.3582   54.1805   30.7393 H         1 UNK         0.0000 
     50 H50         1.9119   57.0520   30.9865 H         1 UNK         0.0000 
     51 H51         0.3042   56.6676   30.4395 H         1 UNK         0.0000 
     52 H52         1.1021   55.6362   31.6417 H         1 UNK         0.0000 
     53 H53         6.8889   53.0442   29.0296 H         1 UNK         0.0000 
     54 H54         7.5102   53.2072   27.4270 H         1 UNK         0.0000 
@<TRIPOS>BOND
     1    1    2 1    
     2    1   37 1    
     3    1   38 1    
     4    1   39 1    
     5    2   10 2    
     6    2    3 1    
     7    3    8 ar   
     8    3    4 ar   
     9    4    5 ar   
    10    4   40 1    
    11    5    6 ar   
    12    5   36 1    
    13    6    7 ar   
    14    6   41 1    
    15    7    8 ar   
    16    7   42 1    
    17    8    9 1    
    18    9   10 1    
    19   10   11 1    
    20   11   12 2    
    21   11   13 1    
    22   13   14 1    
    23   14   19 ar   
    24   14   15 ar   
    25   15   16 ar   
    26   15   43 1    
    27   16   17 ar   
    28   16   44 1    
    29   17   23 1    
    30   17   18 ar   
    31   18   19 ar   
    32   18   20 1    
    33   19   45 1    
    34   20   21 1    
    35   21   22 2    
    36   21   35 1    
    37   22   23 1    
    38   22   33 1    
    39   23   24 1    
    40   23   25 1    
    41   25   30 ar   
    42   25   26 ar   
    43   26   27 ar   
    44   26   46 1    
    45   27   28 ar   
    46   27   47 1    
    47   28   29 ar   
    48   28   48 1    
    49   29   30 ar   
    50   29   49 1    
    51   30   31 1    
    52   31   32 1    
    53   32   50 1    
    54   32   51 1    
    55   32   52 1    
    56   33   34 3    
    57   35   53 1    
    58   35   54 1    
@<TRIPOS>SUBSTRUCTURE
     1 UNK         1 GROUP             0       ****    0 ROOT    
