ZINC39675425_4901
                    3D
 Schrodinger Suite 2024-2.
 77 79  0  0  1  0            999 V2000
    6.6738   54.7670   26.4702 C   0  0  0  0  0  0
    6.6062   55.2061   24.9986 C   0  0  0  0  0  0
    6.4121   54.0301   24.0208 C   0  0  0  0  0  0
    6.2141   54.4850   22.5500 C   0  0  0  0  0  0
    5.1965   53.6618   21.6985 C   0  0  2  0  0  0
    5.5699   52.6394   21.6550 H   0  0  0  0  0  0
    5.1378   54.2190   20.2586 C   0  0  0  0  0  0
    3.7777   53.5935   22.3241 C   0  0  0  0  0  0
    3.4132   54.4966   23.0810 O   0  0  0  0  0  0
    2.9838   52.5209   22.0829 N   0  0  0  0  0  0
    1.7305   52.3334   22.8108 C   0  0  0  0  0  0
    1.3751   50.8699   22.4892 C   0  0  2  0  0  0
    1.9040   50.2322   23.2004 H   0  0  0  0  0  0
    1.8985   50.6564   21.0423 C   0  0  0  0  0  0
    3.2500   51.4174   21.1500 C   0  0  0  0  0  0
    0.9752   51.2885   19.9482 C   0  0  0  0  0  0
    1.6033   51.2253   18.5368 C   0  0  0  0  0  0
    1.9043   49.7485   18.1926 N   0  3  0  0  0  0
    2.7075   49.0008   19.2818 C   0  0  0  0  0  0
    2.0197   49.1631   20.6451 C   0  0  0  0  0  0
   -0.1239   50.5722   22.7271 C   0  0  0  0  0  0
   -0.5945   49.5233   22.2884 O   0  0  0  0  0  0
   -0.8563   51.4403   23.4526 N   0  0  0  0  0  0
   -2.2830   51.3187   23.7647 C   0  0  1  0  0  0
   -2.5473   52.2565   24.2576 H   0  0  0  0  0  0
   -3.1465   51.2548   22.4923 C   0  0  0  0  0  0
   -2.5806   50.1603   24.7525 C   0  0  0  0  0  0
   -2.5124   50.5484   26.2407 C   0  0  0  0  0  0
   -1.1944   51.1559   26.7081 C   0  0  0  0  0  0
   -1.1454   52.4966   27.0657 C   0  0  0  0  0  0
   -0.0116   53.0201   27.6870 C   0  0  0  0  0  0
    1.1170   52.2220   27.8974 C   0  0  0  0  0  0
    1.0737   50.8967   27.4843 C   0  0  0  0  0  0
   -0.0632   50.3645   26.8816 C   0  0  0  0  0  0
    2.2868   52.6508   28.4949 O   0  0  0  0  0  0
    2.4144   54.0180   28.8687 C   0  0  0  0  0  0
    6.7924   55.6249   27.1334 H   0  0  0  0  0  0
    7.5040   54.0852   26.6528 H   0  0  0  0  0  0
    5.7591   54.2522   26.7684 H   0  0  0  0  0  0
    5.7770   55.9070   24.8895 H   0  0  0  0  0  0
    7.5044   55.7619   24.7316 H   0  0  0  0  0  0
    7.2679   53.3558   24.0776 H   0  0  0  0  0  0
    5.5594   53.4435   24.3642 H   0  0  0  0  0  0
    5.9046   55.5277   22.5282 H   0  0  0  0  0  0
    7.1915   54.4968   22.0660 H   0  0  0  0  0  0
    4.4469   53.6645   19.6236 H   0  0  0  0  0  0
    4.8173   55.2617   20.2415 H   0  0  0  0  0  0
    6.1151   54.1697   19.7771 H   0  0  0  0  0  0
    1.8264   52.4917   23.8871 H   0  0  0  0  0  0
    1.0039   53.0191   22.3696 H   0  0  0  0  0  0
    3.6849   51.6897   20.1907 H   0  0  0  0  0  0
    3.9678   50.7559   21.6341 H   0  0  0  0  0  0
   -0.0162   50.8336   19.9450 H   0  0  0  0  0  0
    0.8031   52.3424   20.1742 H   0  0  0  0  0  0
    0.9261   51.5855   17.7620 H   0  0  0  0  0  0
    2.5462   51.7651   18.4399 H   0  0  0  0  0  0
    1.0436   49.2534   18.0091 H   0  0  0  0  0  0
    2.7904   47.9624   18.9550 H   0  0  0  0  0  0
    3.6970   49.4461   19.2817 H   0  0  0  0  0  0
    2.6297   48.6449   21.3868 H   0  0  0  0  0  0
    1.0577   48.6510   20.6549 H   0  0  0  0  0  0
   -0.3768   52.2108   23.8937 H   0  0  0  0  0  0
   -4.2069   51.2967   22.7422 H   0  0  0  0  0  0
   -2.8960   52.0765   21.8192 H   0  0  0  0  0  0
   -3.0091   50.3178   21.9534 H   0  0  0  0  0  0
   -3.5823   49.7691   24.5657 H   0  0  0  0  0  0
   -1.9185   49.3126   24.5703 H   0  0  0  0  0  0
   -3.3316   51.2305   26.4752 H   0  0  0  0  0  0
   -2.7081   49.6689   26.8556 H   0  0  0  0  0  0
   -2.0030   53.1293   26.8817 H   0  0  0  0  0  0
   -0.0251   54.0510   28.0073 H   0  0  0  0  0  0
    1.9143   50.2535   27.6816 H   0  0  0  0  0  0
   -0.0946   49.3133   26.6253 H   0  0  0  0  0  0
    3.4073   54.1831   29.2890 H   0  0  0  0  0  0
    2.3072   54.6807   28.0086 H   0  0  0  0  0  0
    1.6839   54.2958   29.6306 H   0  0  0  0  0  0
    2.4703   49.6976   17.3449 H   0  0  0  0  0  0
  1  2  1  0  0  0
  1 37  1  0  0  0
  1 38  1  0  0  0
  1 39  1  0  0  0
  2  3  1  0  0  0
  2 40  1  0  0  0
  2 41  1  0  0  0
  3  4  1  0  0  0
  3 42  1  0  0  0
  3 43  1  0  0  0
  4  5  1  0  0  0
  4 44  1  0  0  0
  4 45  1  0  0  0
  5  6  1  0  0  0
  5  7  1  0  0  0
  5  8  1  0  0  0
  7 46  1  0  0  0
  7 47  1  0  0  0
  7 48  1  0  0  0
  8  9  2  0  0  0
  8 10  1  0  0  0
 10 15  1  0  0  0
 10 11  1  0  0  0
 11 12  1  0  0  0
 11 49  1  0  0  0
 11 50  1  0  0  0
 12 13  1  0  0  0
 12 14  1  0  0  0
 12 21  1  0  0  0
 14 20  1  0  0  0
 14 15  1  0  0  0
 14 16  1  0  0  0
 15 51  1  0  0  0
 15 52  1  0  0  0
 16 17  1  0  0  0
 16 53  1  0  0  0
 16 54  1  0  0  0
 17 18  1  0  0  0
 17 55  1  0  0  0
 17 56  1  0  0  0
 18 19  1  0  0  0
 18 57  1  0  0  0
 18 77  1  0  0  0
 19 20  1  0  0  0
 19 58  1  0  0  0
 19 59  1  0  0  0
 20 60  1  0  0  0
 20 61  1  0  0  0
 21 22  2  0  0  0
 21 23  1  0  0  0
 23 24  1  0  0  0
 23 62  1  0  0  0
 24 25  1  0  0  0
 24 26  1  0  0  0
 24 27  1  0  0  0
 26 63  1  0  0  0
 26 64  1  0  0  0
 26 65  1  0  0  0
 27 28  1  0  0  0
 27 66  1  0  0  0
 27 67  1  0  0  0
 28 29  1  0  0  0
 28 68  1  0  0  0
 28 69  1  0  0  0
 29 34  2  0  0  0
 29 30  1  0  0  0
 30 31  2  0  0  0
 30 70  1  0  0  0
 31 32  1  0  0  0
 31 71  1  0  0  0
 32 33  2  0  0  0
 32 35  1  0  0  0
 33 34  1  0  0  0
 33 72  1  0  0  0
 34 73  1  0  0  0
 35 36  1  0  0  0
 36 74  1  0  0  0
 36 75  1  0  0  0
 36 76  1  0  0  0
M  CHG  1  18   1
M  END
> <i_i_glide_confnum>
334

> <i_i_glide_lignum>
4902

> <i_i_glide_posenum>
85

> <i_i_glide_rotatable_bonds>
12

> <i_m_Source_File_Index>
48

> <b_m_subgroup_collapsed>
0

> <r_i_docking_score>
-3.94936

> <r_i_glide_ecoul>
-2.57636

> <r_i_glide_eff_state_penalty>
0

> <r_i_glide_einternal>
14.793

> <r_i_glide_emodel>
-39.845

> <r_i_glide_energy>
-34.781

> <r_i_glide_erotb>
0.956167

> <r_i_glide_esite>
-0.1

> <r_i_glide_evdw>
-32.2046

> <r_i_glide_gscore>
-3.94936

> <r_i_glide_hbond>
-0.177499

> <r_i_glide_ligand_efficiency>
-0.119678

> <r_i_glide_ligand_efficiency_ln>
-0.878317

> <r_i_glide_ligand_efficiency_sa>
-0.38387

> <r_i_glide_lipo>
-2.02266

> <r_i_glide_metal>
0

> <r_i_glide_rewards>
-0.608682

> <s_i_glide_gridfile>
wee1_glide-grid

> <s_m_Source_File>
wee1_decoys_glide_SP.sdf

> <s_m_Source_Path>
/Users/zhangxujun/Desktop

> <s_m_entry_id>
323

> <s_m_entry_name>
wee1_decoys_glide_SP.48

> <s_m_subgroup_title>
wee1_decoys_glide_SP

> <s_m_subgroupid>
wee1_decoys_glide_SP


$$$$
