@<TRIPOS>MOLECULE
ZINC15613361_4674
43   44    1
SMALL
USER_CHARGES


@<TRIPOS>ATOM
      1 C1          5.0551   54.0967   23.8377 C.ar      1 UNK         0.0000 
      2 C2          4.6937   53.6092   22.5843 C.ar      1 UNK         0.0000 
      3 C3          3.3996   53.1302   22.3809 C.ar      1 UNK         0.0000 
      4 C4          2.4413   53.2225   23.3887 C.ar      1 UNK         0.0000 
      5 C5          2.8061   53.7103   24.6388 C.ar      1 UNK         0.0000 
      6 C6          4.1318   54.1124   24.8942 C.ar      1 UNK         0.0000 
      7 C7          4.5925   54.4978   26.2849 C.2       1 UNK         0.0000 
      8 O8          5.7635   54.8213   26.5022 O.2       1 UNK         0.0000 
      9 N9          3.6588   54.4494   27.2537 N.am      1 UNK         0.0000 
     10 C10         3.8557   54.6633   28.6877 C.3       1 UNK         0.0000 
     11 C11         2.7034   55.4683   29.3460 C.3       1 UNK         0.0000 
     12 C12         1.2697   55.2961   28.8095 C.3       1 UNK         0.0000 
     13 C13         0.4944   54.0871   29.3456 C.3       1 UNK         0.0000 
     14 C14         0.9538   52.7199   28.8209 C.3       1 UNK         0.0000 
     15 C15         2.0232   52.0338   29.6805 C.3       1 UNK         0.0000 
     16 C16         3.4614   52.1043   29.1570 C.3       1 UNK         0.0000 
     17 C17         4.2550   53.3845   29.4477 C.3       1 UNK         0.0000 
     18 S18         3.0226   52.2496   20.8769 S.o2      1 UNK         0.0000 
     19 O19         3.9070   51.0837   20.8773 O.2       1 UNK         0.0000 
     20 O20         1.5667   52.1012   20.7834 O.2       1 UNK         0.0000 
     21 N21         3.5348   53.2965   19.5856 N.pl3     1 UNK         0.0000 
     22 H22         6.0798   54.4104   23.9920 H         1 UNK         0.0000 
     23 H23         5.4317   53.5383   21.7982 H         1 UNK         0.0000 
     24 H24         1.4355   52.8554   23.2303 H         1 UNK         0.0000 
     25 H25         2.0503   53.7148   25.4097 H         1 UNK         0.0000 
     26 H26         2.7189   54.2133   26.9859 H         1 UNK         0.0000 
     27 H27         4.7358   55.2966   28.7986 H         1 UNK         0.0000 
     28 H28         2.6924   55.3006   30.4229 H         1 UNK         0.0000 
     29 H29         2.9430   56.5269   29.2479 H         1 UNK         0.0000 
     30 H30         0.7068   56.1881   29.0949 H         1 UNK         0.0000 
     31 H31         1.2489   55.2965   27.7196 H         1 UNK         0.0000 
     32 H32         0.4591   54.1013   30.4360 H         1 UNK         0.0000 
     33 H33        -0.5381   54.2001   29.0294 H         1 UNK         0.0000 
     34 H34         0.0758   52.0695   28.8153 H         1 UNK         0.0000 
     35 H35         1.2554   52.7786   27.7727 H         1 UNK         0.0000 
     36 H36         1.9647   52.3428   30.7260 H         1 UNK         0.0000 
     37 H37         1.7559   50.9768   29.6816 H         1 UNK         0.0000 
     38 H38         4.0166   51.2954   29.6215 H         1 UNK         0.0000 
     39 H39         3.4722   51.8939   28.0880 H         1 UNK         0.0000 
     40 H40         5.2928   53.1708   29.1834 H         1 UNK         0.0000 
     41 H41         4.2805   53.5747   30.5228 H         1 UNK         0.0000 
     42 H42         3.9444   52.7776   18.8036 H         1 UNK         0.0000 
     43 H43         2.7836   53.9263   19.2837 H         1 UNK         0.0000 
@<TRIPOS>BOND
     1    1    6 ar   
     2    1    2 ar   
     3    1   22 1    
     4    2    3 ar   
     5    2   23 1    
     6    3    4 ar   
     7    3   18 1    
     8    4    5 ar   
     9    4   24 1    
    10    5    6 ar   
    11    5   25 1    
    12    6    7 1    
    13    7    8 2    
    14    7    9 am   BACKBONE|DICT|INTERRES
    15    9   10 1    
    16    9   26 1    
    17   10   17 1    
    18   10   11 1    
    19   10   27 1    
    20   11   12 1    
    21   11   28 1    
    22   11   29 1    
    23   12   13 1    
    24   12   30 1    
    25   12   31 1    
    26   13   14 1    
    27   13   32 1    
    28   13   33 1    
    29   14   15 1    
    30   14   34 1    
    31   14   35 1    
    32   15   16 1    
    33   15   36 1    
    34   15   37 1    
    35   16   17 1    
    36   16   38 1    
    37   16   39 1    
    38   17   40 1    
    39   17   41 1    
    40   18   19 2    
    41   18   20 2    
    42   18   21 1    
    43   21   42 1    
    44   21   43 1    
@<TRIPOS>SUBSTRUCTURE
     1 UNK         1 GROUP             0       ****    0 ROOT    
