ZINC13729225_3496
                    3D
 Schrodinger Suite 2024-2.
 67 71  0  0  1  0            999 V2000
    5.9162   55.1603   25.7271 C   0  0  0  0  0  0
    4.5778   54.4286   25.8721 C   0  0  0  0  0  0
    3.9673   54.3555   24.5901 O   0  0  0  0  0  0
    2.8220   53.5985   24.4019 C   0  0  0  0  0  0
    2.1650   52.8971   25.4208 C   0  0  0  0  0  0
    1.0270   52.1201   25.1718 C   0  0  0  0  0  0
    0.5364   52.0651   23.8629 C   0  0  0  0  0  0
    1.1961   52.7235   22.8260 C   0  0  0  0  0  0
    2.3393   53.4897   23.0963 C   0  0  0  0  0  0
    3.0309   54.1033   22.0816 O   0  0  0  0  0  0
    4.1584   53.3672   21.6164 C   0  0  0  0  0  0
    5.1043   54.2870   20.8643 C   0  0  0  0  0  0
    6.1704   54.8972   21.5318 C   0  0  0  0  0  0
    7.0760   55.6879   20.8240 C   0  0  0  0  0  0
    6.9027   55.8816   19.4509 C   0  0  0  0  0  0
    5.8155   55.3018   18.7930 C   0  0  0  0  0  0
    4.9191   54.5033   19.4976 C   0  0  0  0  0  0
    7.8932   56.7112   18.6541 C   0  0  0  0  0  0
    0.5695   52.4963   21.0413 Br  0  0  0  0  0  0
    0.4067   51.2150   26.2463 C   0  0  0  0  0  0
   -0.2817   51.8644   27.4656 N   0  3  0  0  0  0
    0.5352   52.5278   28.6042 C   0  0  1  0  0  0
    0.7260   54.0346   28.2760 C   0  0  0  0  0  0
    1.4635   54.7253   29.4530 C   0  0  1  0  0  0
    1.6099   55.7826   29.2253 H   0  0  0  0  0  0
    0.6096   54.5890   30.7411 C   0  0  0  0  0  0
    0.4021   53.0897   31.0734 C   0  0  1  0  0  0
   -0.1822   52.9962   31.9856 H   0  0  0  0  0  0
   -0.3287   52.4016   29.8918 C   0  0  0  0  0  0
    1.7790   52.4191   31.2881 C   0  0  0  0  0  0
    2.6438   52.5289   30.0071 C   0  0  2  0  0  0
    2.8405   54.0370   29.6719 C   0  0  0  0  0  0
    1.8889   51.7977   28.8673 C   0  0  0  0  0  0
    3.8908   51.9176   30.2536 O   0  0  0  0  0  0
    6.3971   55.2872   26.6979 H   0  0  0  0  0  0
    6.5968   54.5991   25.0888 H   0  0  0  0  0  0
    5.7795   56.1425   25.2798 H   0  0  0  0  0  0
    3.9266   54.9633   26.5648 H   0  0  0  0  0  0
    4.7599   53.4315   26.2771 H   0  0  0  0  0  0
    2.5948   52.9243   26.3997 H   0  0  0  0  0  0
   -0.3194   51.4500   23.6312 H   0  0  0  0  0  0
    3.8259   52.5644   20.9553 H   0  0  0  0  0  0
    4.7110   52.8852   22.4255 H   0  0  0  0  0  0
    6.3165   54.7325   22.5884 H   0  0  0  0  0  0
    7.9244   56.1136   21.3415 H   0  0  0  0  0  0
    5.6758   55.4547   17.7335 H   0  0  0  0  0  0
    4.0897   54.0421   18.9759 H   0  0  0  0  0  0
    8.5707   57.2906   19.2833 H   0  0  0  0  0  0
    8.4893   56.0679   18.0024 H   0  0  0  0  0  0
    7.3630   57.4207   18.0168 H   0  0  0  0  0  0
   -0.4083   50.6254   25.8193 H   0  0  0  0  0  0
    1.1044   50.4918   26.6601 H   0  0  0  0  0  0
   -0.9688   52.5273   27.1380 H   0  0  0  0  0  0
    1.2901   54.2103   27.3696 H   0  0  0  0  0  0
   -0.2395   54.4963   28.0829 H   0  0  0  0  0  0
    1.0873   55.1149   31.5701 H   0  0  0  0  0  0
   -0.3594   55.0655   30.6106 H   0  0  0  0  0  0
   -1.2951   52.8729   29.7413 H   0  0  0  0  0  0
   -0.5314   51.3555   30.1358 H   0  0  0  0  0  0
    1.6529   51.3821   31.6038 H   0  0  0  0  0  0
    2.2875   52.8960   32.1191 H   0  0  0  0  0  0
    3.3907   54.5336   30.4740 H   0  0  0  0  0  0
    3.4579   54.1483   28.7778 H   0  0  0  0  0  0
    1.7084   50.7601   29.1364 H   0  0  0  0  0  0
    2.5289   51.7453   27.9964 H   0  0  0  0  0  0
    4.4742   52.0933   29.5091 H   0  0  0  0  0  0
   -0.8010   51.1151   27.9082 H   0  0  0  0  0  0
  1  2  1  0  0  0
  1 35  1  0  0  0
  1 36  1  0  0  0
  1 37  1  0  0  0
  2  3  1  0  0  0
  2 38  1  0  0  0
  2 39  1  0  0  0
  3  4  1  0  0  0
  4  9  2  0  0  0
  4  5  1  0  0  0
  5  6  2  0  0  0
  5 40  1  0  0  0
  6  7  1  0  0  0
  6 20  1  0  0  0
  7  8  2  0  0  0
  7 41  1  0  0  0
  8  9  1  0  0  0
  8 19  1  0  0  0
  9 10  1  0  0  0
 10 11  1  0  0  0
 11 12  1  0  0  0
 11 42  1  0  0  0
 11 43  1  0  0  0
 12 17  2  0  0  0
 12 13  1  0  0  0
 13 14  2  0  0  0
 13 44  1  0  0  0
 14 15  1  0  0  0
 14 45  1  0  0  0
 15 16  2  0  0  0
 15 18  1  0  0  0
 16 17  1  0  0  0
 16 46  1  0  0  0
 17 47  1  0  0  0
 18 48  1  0  0  0
 18 49  1  0  0  0
 18 50  1  0  0  0
 20 21  1  0  0  0
 20 51  1  0  0  0
 20 52  1  0  0  0
 21 22  1  0  0  0
 21 53  1  0  0  0
 21 67  1  0  0  0
 22 29  1  0  0  0
 22 33  1  0  0  0
 22 23  1  0  0  0
 23 24  1  0  0  0
 23 54  1  0  0  0
 23 55  1  0  0  0
 24 25  1  0  0  0
 24 32  1  0  0  0
 24 26  1  0  0  0
 26 27  1  0  0  0
 26 56  1  0  0  0
 26 57  1  0  0  0
 27 28  1  0  0  0
 27 29  1  0  0  0
 27 30  1  0  0  0
 29 58  1  0  0  0
 29 59  1  0  0  0
 30 31  1  0  0  0
 30 60  1  0  0  0
 30 61  1  0  0  0
 31 32  1  0  0  0
 31 33  1  0  0  0
 31 34  1  0  0  0
 32 62  1  0  0  0
 32 63  1  0  0  0
 33 64  1  0  0  0
 33 65  1  0  0  0
 34 66  1  0  0  0
M  CHG  1  21   1
M  END
> <i_i_glide_confnum>
155

> <i_i_glide_lignum>
3497

> <i_i_glide_posenum>
385

> <i_i_glide_rotatable_bonds>
9

> <i_m_Source_File_Index>
4463

> <b_m_subgroup_collapsed>
0

> <r_i_docking_score>
-5.27133

> <r_i_glide_ecoul>
-1.17683

> <r_i_glide_eff_state_penalty>
0

> <r_i_glide_einternal>
6.86404

> <r_i_glide_emodel>
-53.2702

> <r_i_glide_energy>
-40.8881

> <r_i_glide_erotb>
0.568586

> <r_i_glide_esite>
-0.0236704

> <r_i_glide_evdw>
-39.7113

> <r_i_glide_gscore>
-5.27133

> <r_i_glide_hbond>
-0.240776

> <r_i_glide_ligand_efficiency>
-0.164729

> <r_i_glide_ligand_efficiency_ln>
-1.1804

> <r_i_glide_ligand_efficiency_sa>
-0.522983

> <r_i_glide_lipo>
-3.36253

> <r_i_glide_metal>
0

> <r_i_glide_rewards>
-0.0508496

> <s_i_glide_gridfile>
wee1_glide-grid

> <s_m_Source_File>
wee1_decoys_glide_SP.sdf

> <s_m_Source_Path>
/Users/zhangxujun/Desktop

> <s_m_entry_id>
4738

> <s_m_entry_name>
wee1_decoys_glide_SP.4463

> <s_m_subgroup_title>
wee1_decoys_glide_SP

> <s_m_subgroupid>
wee1_decoys_glide_SP


$$$$
