@<TRIPOS>MOLECULE
ZINC12485510_3154
66   69    1
SMALL
USER_CHARGES


@<TRIPOS>ATOM
      1 C1          5.1020   53.8924   29.1591 C.3       1 UNK         0.0000 
      2 C2          4.5056   53.9849   27.7783 C.ar      1 UNK         0.0000 
      3 C3          3.1226   53.9652   27.6223 C.ar      1 UNK         0.0000 
      4 C4          2.5753   54.0448   26.3500 C.ar      1 UNK         0.0000 
      5 C5          3.4019   54.1553   25.2321 C.ar      1 UNK         0.0000 
      6 C6          4.7915   54.1772   25.3948 C.ar      1 UNK         0.0000 
      7 C7          5.3431   54.0898   26.6683 C.ar      1 UNK         0.0000 
      8 C8          2.7701   54.3885   23.8646 C.3       1 UNK         0.0000 
      9 N9          2.8555   53.2587   22.8994 N.am      1 UNK         0.0000 
     10 C10         2.0395   52.0192   23.1965 C.3       1 UNK         0.0000 
     11 H11         2.6569   51.4918   23.9213 H         1 UNK         0.0000 
     12 C12         1.7908   51.1461   21.9735 C.ar      1 UNK         0.0000 
     13 C13         1.2941   51.7051   20.7875 C.ar      1 UNK         0.0000 
     14 C14         1.1298   50.9162   19.6530 C.ar      1 UNK         0.0000 
     15 C15         1.4594   49.5611   19.6958 C.ar      1 UNK         0.0000 
     16 C16         1.9226   48.9929   20.8811 C.ar      1 UNK         0.0000 
     17 C17         2.0908   49.7804   22.0180 C.ar      1 UNK         0.0000 
     18 C18         1.3260   48.7037   18.4520 C.3       1 UNK         0.0000 
     19 C19         0.6715   52.2242   23.9002 C.2       1 UNK         0.0000 
     20 O20        -0.0088   53.2296   23.6911 O.2       1 UNK         0.0000 
     21 N21         0.3049   51.2421   24.7392 N.am      1 UNK         0.0000 
     22 C22        -0.8642   51.2785   25.6182 C.3       1 UNK         0.0000 
     23 C23        -0.4536   51.4645   27.0644 C.2       1 UNK         0.0000 
     24 C24         0.7620   51.5384   27.7325 C.2       1 UNK         0.0000 
     25 C25         0.4825   51.6981   29.0878 C.2       1 UNK         0.0000 
     26 C26        -0.8951   51.6964   29.1963 C.2       1 UNK         0.0000 
     27 O27        -1.4616   51.5719   27.9692 O.3       1 UNK         0.0000 
     28 C28         3.9454   53.2306   22.0636 C.2       1 UNK         0.0000 
     29 O29         4.3958   52.1875   21.5801 O.2       1 UNK         0.0000 
     30 C30         4.6380   54.5595   21.7035 C.3       1 UNK         0.0000 
     31 N31         5.5089   54.4244   20.5418 N.am      1 UNK         0.0000 
     32 C32         6.4806   55.2972   20.2263 C.2       1 UNK         0.0000 
     33 O33         6.7051   56.3352   20.8563 O.2       1 UNK         0.0000 
     34 C34         7.3117   54.9016   19.1173 C.2       1 UNK         0.0000 
     35 C35         8.6070   55.3485   18.8484 C.2       1 UNK         0.0000 
     36 C36         9.1545   54.7826   17.6927 C.2       1 UNK         0.0000 
     37 C37         8.2710   53.9319   17.0431 C.2       1 UNK         0.0000 
     38 S38         6.7427   53.8322   17.8545 S.3       1 UNK         0.0000 
     39 H39         4.3655   54.0838   29.9398 H         1 UNK         0.0000 
     40 H40         5.5146   52.8926   29.2817 H         1 UNK         0.0000 
     41 H41         5.9056   54.6201   29.2805 H         1 UNK         0.0000 
     42 H42         2.4679   53.8892   28.4788 H         1 UNK         0.0000 
     43 H43         1.5012   54.0504   26.2365 H         1 UNK         0.0000 
     44 H44         5.4575   54.2691   24.5529 H         1 UNK         0.0000 
     45 H45         6.4167   54.1051   26.7909 H         1 UNK         0.0000 
     46 H46         3.2319   55.2966   23.4926 H         1 UNK         0.0000 
     47 H47         1.7393   54.7136   23.9863 H         1 UNK         0.0000 
     48 H48         1.0626   52.7605   20.7405 H         1 UNK         0.0000 
     49 H49         0.7729   51.3678   18.7388 H         1 UNK         0.0000 
     50 H50         2.1994   47.9503   20.9013 H         1 UNK         0.0000 
     51 H51         2.4856   49.3334   22.9197 H         1 UNK         0.0000 
     52 H52         0.6439   49.1497   17.7266 H         1 UNK         0.0000 
     53 H53         2.3040   48.5660   17.9865 H         1 UNK         0.0000 
     54 H54         0.9282   47.7195   18.7042 H         1 UNK         0.0000 
     55 H55         0.8903   50.4236   24.8119 H         1 UNK         0.0000 
     56 H56        -1.3679   50.3171   25.5141 H         1 UNK         0.0000 
     57 H57        -1.5851   52.0383   25.3075 H         1 UNK         0.0000 
     58 H58         1.7405   51.4669   27.2852 H         1 UNK         0.0000 
     59 H59         1.1920   51.7652   29.8989 H         1 UNK         0.0000 
     60 H60        -1.5694   51.7093   30.0386 H         1 UNK         0.0000 
     61 H61         3.8744   55.2951   21.4868 H         1 UNK         0.0000 
     62 H62         5.2436   54.8966   22.5409 H         1 UNK         0.0000 
     63 H63         5.3878   53.5835   19.9930 H         1 UNK         0.0000 
     64 H64         9.1480   56.0401   19.4810 H         1 UNK         0.0000 
     65 H65        10.1571   54.9888   17.3451 H         1 UNK         0.0000 
     66 H66         8.4391   53.3708   16.1355 H         1 UNK         0.0000 
@<TRIPOS>BOND
     1    1    2 1    
     2    1   39 1    
     3    1   40 1    
     4    1   41 1    
     5    2    7 ar   
     6    2    3 ar   
     7    3    4 ar   
     8    3   42 1    
     9    4    5 ar   
    10    4   43 1    
    11    5    6 ar   
    12    5    8 1    
    13    6    7 ar   
    14    6   44 1    
    15    7   45 1    
    16    8    9 1    
    17    8   46 1    
    18    8   47 1    
    19    9   10 1    
    20    9   28 am   BACKBONE|DICT|INTERRES
    21   10   11 1    
    22   10   12 1    
    23   10   19 1    
    24   12   17 ar   
    25   12   13 ar   
    26   13   14 ar   
    27   13   48 1    
    28   14   15 ar   
    29   14   49 1    
    30   15   16 ar   
    31   15   18 1    
    32   16   17 ar   
    33   16   50 1    
    34   17   51 1    
    35   18   52 1    
    36   18   53 1    
    37   18   54 1    
    38   19   20 2    
    39   19   21 am   BACKBONE|DICT|INTERRES
    40   21   22 1    
    41   21   55 1    
    42   22   23 1    
    43   22   56 1    
    44   22   57 1    
    45   23   27 1    
    46   23   24 2    
    47   24   25 1    
    48   24   58 1    
    49   25   26 2    
    50   25   59 1    
    51   26   27 1    
    52   26   60 1    
    53   28   29 2    
    54   28   30 1    
    55   30   31 1    
    56   30   61 1    
    57   30   62 1    
    58   31   32 am   BACKBONE|DICT|INTERRES
    59   31   63 1    
    60   32   33 2    
    61   32   34 1    
    62   34   38 1    
    63   34   35 2    
    64   35   36 1    
    65   35   64 1    
    66   36   37 2    
    67   36   65 1    
    68   37   38 1    
    69   37   66 1    
@<TRIPOS>SUBSTRUCTURE
     1 UNK         1 GROUP             0       ****    0 ROOT    
