@<TRIPOS>MOLECULE
ZINC33008275_3935
49   51    1
SMALL
USER_CHARGES


@<TRIPOS>ATOM
      1 C1          5.4072   56.7692   14.5849 C.3       1 UNK         0.0000 
      2 C2          4.7575   55.8457   15.6350 C.3       1 UNK         0.0000 
      3 C3          5.4463   55.8475   17.0086 C.2       1 UNK         0.0000 
      4 O4          6.5299   56.4138   17.1567 O.2       1 UNK         0.0000 
      5 N5          4.7730   55.1963   17.9775 N.am      1 UNK         0.0000 
      6 C6          5.1276   55.0313   19.3069 C.2       1 UNK         0.0000 
      7 N7          4.3071   54.4145   20.1060 N.2       1 UNK         0.0000 
      8 C8          4.7775   54.3816   21.3830 C.ar      1 UNK         0.0000 
      9 C9          4.0995   53.8127   22.4782 C.ar      1 UNK         0.0000 
     10 C10         4.7354   53.8619   23.7230 C.ar      1 UNK         0.0000 
     11 C11         5.9971   54.4513   23.9062 C.ar      1 UNK         0.0000 
     12 C12         6.6713   55.0143   22.8196 C.ar      1 UNK         0.0000 
     13 C13         6.0506   54.9844   21.5672 C.ar      1 UNK         0.0000 
     14 S14         6.6141   55.6308   20.0366 S.3       1 UNK         0.0000 
     15 N15         6.6999   54.4416   25.1287 N.am      1 UNK         0.0000 
     16 C16         6.2768   54.3137   26.4074 C.2       1 UNK         0.0000 
     17 O17         7.1037   54.0969   27.2867 O.2       1 UNK         0.0000 
     18 N18         4.9615   54.4706   26.6578 N.am      1 UNK         0.0000 
     19 C19         4.2623   54.1900   27.8480 C.ar      1 UNK         0.0000 
     20 C20         3.0526   54.8613   28.0399 C.ar      1 UNK         0.0000 
     21 C21         2.2513   54.5738   29.1435 C.ar      1 UNK         0.0000 
     22 C22         2.6472   53.6049   30.0656 C.ar      1 UNK         0.0000 
     23 C23         3.8712   52.9546   29.9139 C.ar      1 UNK         0.0000 
     24 C24         4.6723   53.2386   28.7999 C.ar      1 UNK         0.0000 
     25 C25         4.3020   51.9428   30.9595 C.3       1 UNK         0.0000 
     26 C26         0.9378   55.2955   29.3119 C.3       1 UNK         0.0000 
     27 C27         2.7348   53.1465   22.3651 C.3       1 UNK         0.0000 
     28 H28         4.8518   56.7238   13.6470 H         1 UNK         0.0000 
     29 H29         6.4307   56.4652   14.3563 H         1 UNK         0.0000 
     30 H30         5.4053   57.8128   14.9060 H         1 UNK         0.0000 
     31 H31         3.7105   56.1306   15.7629 H         1 UNK         0.0000 
     32 H32         4.7599   54.8207   15.2594 H         1 UNK         0.0000 
     33 H33         3.8909   54.7768   17.7255 H         1 UNK         0.0000 
     34 H34         4.2378   53.3785   24.5487 H         1 UNK         0.0000 
     35 H35         7.6405   55.4720   22.9260 H         1 UNK         0.0000 
     36 H36         7.7004   54.4956   25.0196 H         1 UNK         0.0000 
     37 H37         4.4107   54.8645   25.9121 H         1 UNK         0.0000 
     38 H38         2.7095   55.5896   27.3228 H         1 UNK         0.0000 
     39 H39         1.9997   53.3572   30.8966 H         1 UNK         0.0000 
     40 H40         5.5954   52.6945   28.6650 H         1 UNK         0.0000 
     41 H41         3.4686   51.2987   31.2279 H         1 UNK         0.0000 
     42 H42         5.1043   51.3015   30.6044 H         1 UNK         0.0000 
     43 H43         4.6192   52.4411   31.8757 H         1 UNK         0.0000 
     44 H44         0.3006   54.8314   30.0672 H         1 UNK         0.0000 
     45 H45         1.1055   56.3443   29.5668 H         1 UNK         0.0000 
     46 H46         0.4068   55.2608   28.3582 H         1 UNK         0.0000 
     47 H47         2.4225   52.6614   23.2922 H         1 UNK         0.0000 
     48 H48         1.9792   53.8819   22.0860 H         1 UNK         0.0000 
     49 H49         2.7555   52.3894   21.5802 H         1 UNK         0.0000 
@<TRIPOS>BOND
     1    1    2 1    
     2    1   28 1    
     3    1   29 1    
     4    1   30 1    
     5    2    3 1    
     6    2   31 1    
     7    2   32 1    
     8    3    4 2    
     9    3    5 am   BACKBONE|DICT|INTERRES
    10    5    6 am   BACKBONE|DICT|INTERRES
    11    5   33 1    
    12    6   14 1    
    13    6    7 2    
    14    7    8 1    
    15    8   13 ar   
    16    8    9 ar   
    17    9   10 ar   
    18    9   27 1    
    19   10   11 ar   
    20   10   34 1    
    21   11   12 ar   
    22   11   15 1    
    23   12   13 ar   
    24   12   35 1    
    25   13   14 1    
    26   15   16 am   BACKBONE|DICT|INTERRES
    27   15   36 1    
    28   16   17 2    
    29   16   18 am   BACKBONE|DICT|INTERRES
    30   18   19 1    
    31   18   37 1    
    32   19   24 ar   
    33   19   20 ar   
    34   20   21 ar   
    35   20   38 1    
    36   21   22 ar   
    37   21   26 1    
    38   22   23 ar   
    39   22   39 1    
    40   23   24 ar   
    41   23   25 1    
    42   24   40 1    
    43   25   41 1    
    44   25   42 1    
    45   25   43 1    
    46   26   44 1    
    47   26   45 1    
    48   26   46 1    
    49   27   47 1    
    50   27   48 1    
    51   27   49 1    
@<TRIPOS>SUBSTRUCTURE
     1 UNK         1 GROUP             0       ****    0 ROOT    
