ZINC20528878_2495
                    3D
 Schrodinger Suite 2024-2.
 56 61  0  0  1  0            999 V2000
    3.1602   53.7815   28.5981 C   0  0  0  0  0  0
    4.0329   54.2740   27.5398 N   0  0  0  0  0  0
    5.4252   53.8840   27.7727 C   0  0  0  0  0  0
    6.3365   54.6641   26.7994 C   0  0  0  0  0  0
    5.8308   54.6361   25.3549 C   0  0  0  0  0  0
    4.5243   54.1917   25.0840 C   0  0  0  0  0  0
    4.1271   54.0627   23.7477 C   0  0  0  0  0  0
    5.0278   54.3950   22.7183 C   0  0  0  0  0  0
    4.9176   54.3120   21.2958 C   0  0  0  0  0  0
    6.0080   54.8575   20.6176 C   0  0  0  0  0  0
    7.2586   55.3837   21.7274 S   0  0  0  0  0  0
    6.2940   54.8916   23.1146 C   0  0  0  0  0  0
    6.7052   54.9937   24.3786 N   0  0  0  0  0  0
    6.3088   55.0217   19.1912 C   0  0  0  0  0  0
    7.4366   54.7937   18.7530 O   0  0  0  0  0  0
    5.3150   55.6496   18.3236 C   0  0  0  0  0  0
    5.3241   56.9356   17.7972 C   0  0  0  0  0  0
    4.1654   57.2291   17.0173 C   0  0  0  0  0  0
    3.7475   58.4048   16.3784 C   0  0  0  0  0  0
    2.5053   58.4436   15.7386 C   0  0  0  0  0  0
    1.7378   57.2634   15.6948 C   0  0  0  0  0  0
    2.1205   56.1054   16.2977 N   0  0  0  0  0  0
    3.2963   56.1120   16.9246 C   0  0  0  0  0  0
    3.9565   54.7032   17.7327 S   0  0  0  0  0  0
    0.3761   57.2866   15.0032 C   0  0  0  0  0  0
   -0.2120   58.7128   14.9192 C   0  0  0  0  0  0
    0.7878   59.5968   14.3158 N   0  0  0  0  0  0
    1.9337   59.7624   15.2200 C   0  0  0  0  0  0
    0.2142   60.8959   13.9765 C   0  0  0  0  0  0
    6.3249   57.8498   18.0271 N   0  0  0  0  0  0
    3.8593   53.6968   20.6911 N   0  0  0  0  0  0
    3.5996   53.7724   26.2290 C   0  0  0  0  0  0
    3.4638   54.1902   29.5634 H   0  0  0  0  0  0
    2.1293   54.0926   28.4208 H   0  0  0  0  0  0
    3.1800   52.6911   28.6668 H   0  0  0  0  0  0
    5.7076   54.1808   28.7840 H   0  0  0  0  0  0
    5.5761   52.8023   27.7308 H   0  0  0  0  0  0
    7.3561   54.2822   26.8642 H   0  0  0  0  0  0
    6.3808   55.6974   27.1355 H   0  0  0  0  0  0
    3.1424   53.6868   23.5097 H   0  0  0  0  0  0
    4.3582   59.2963   16.4301 H   0  0  0  0  0  0
   -0.3252   56.6194   15.5048 H   0  0  0  0  0  0
    0.4939   56.8928   13.9925 H   0  0  0  0  0  0
   -1.0816   58.6684   14.2608 H   0  0  0  0  0  0
   -0.5784   59.0839   15.8794 H   0  0  0  0  0  0
    2.7152   60.3030   14.6840 H   0  0  0  0  0  0
    1.6655   60.3769   16.0814 H   0  0  0  0  0  0
    0.9634   61.5376   13.5095 H   0  0  0  0  0  0
   -0.6061   60.7805   13.2676 H   0  0  0  0  0  0
   -0.1696   61.4075   14.8607 H   0  0  0  0  0  0
    7.1743   57.5797   18.5052 H   0  0  0  0  0  0
    6.2827   58.7984   17.6798 H   0  0  0  0  0  0
    2.9407   53.6792   21.1169 H   0  0  0  0  0  0
    3.8627   53.5357   19.6902 H   0  0  0  0  0  0
    2.6018   54.1665   26.0386 H   0  0  0  0  0  0
    3.5097   52.6862   26.2384 H   0  0  0  0  0  0
  1  2  1  0  0  0
  1 33  1  0  0  0
  1 34  1  0  0  0
  1 35  1  0  0  0
  2 32  1  0  0  0
  2  3  1  0  0  0
  3  4  1  0  0  0
  3 36  1  0  0  0
  3 37  1  0  0  0
  4  5  1  0  0  0
  4 38  1  0  0  0
  4 39  1  0  0  0
  5 13  2  0  0  0
  5  6  1  0  0  0
  6  7  2  0  0  0
  6 32  1  0  0  0
  7  8  1  0  0  0
  7 40  1  0  0  0
  8 12  2  0  0  0
  8  9  1  0  0  0
  9 10  2  0  0  0
  9 31  1  0  0  0
 10 11  1  0  0  0
 10 14  1  0  0  0
 11 12  1  0  0  0
 12 13  1  0  0  0
 14 15  2  0  0  0
 14 16  1  0  0  0
 16 24  1  0  0  0
 16 17  2  0  0  0
 17 18  1  0  0  0
 17 30  1  0  0  0
 18 23  2  0  0  0
 18 19  1  0  0  0
 19 20  2  0  0  0
 19 41  1  0  0  0
 20 28  1  0  0  0
 20 21  1  0  0  0
 21 22  2  0  0  0
 21 25  1  0  0  0
 22 23  1  0  0  0
 23 24  1  0  0  0
 25 26  1  0  0  0
 25 42  1  0  0  0
 25 43  1  0  0  0
 26 27  1  0  0  0
 26 44  1  0  0  0
 26 45  1  0  0  0
 27 28  1  0  0  0
 27 29  1  0  0  0
 28 46  1  0  0  0
 28 47  1  0  0  0
 29 48  1  0  0  0
 29 49  1  0  0  0
 29 50  1  0  0  0
 30 51  1  0  0  0
 30 52  1  0  0  0
 31 53  1  0  0  0
 31 54  1  0  0  0
 32 55  1  0  0  0
 32 56  1  0  0  0
M  END
> <i_i_glide_confnum>
9

> <i_i_glide_lignum>
2496

> <i_i_glide_posenum>
71

> <i_i_glide_rotatable_bonds>
2

> <i_m_Source_File_Index>
3033

> <b_m_subgroup_collapsed>
0

> <r_i_docking_score>
-5.42788

> <r_i_glide_ecoul>
-2.03205

> <r_i_glide_eff_state_penalty>
0

> <r_i_glide_einternal>
8.2591

> <r_i_glide_emodel>
-51.7162

> <r_i_glide_energy>
-42.4816

> <r_i_glide_erotb>
0.186794

> <r_i_glide_esite>
-0.0378058

> <r_i_glide_evdw>
-40.4495

> <r_i_glide_gscore>
-5.42788

> <r_i_glide_hbond>
-0.00384779

> <r_i_glide_ligand_efficiency>
-0.169621

> <r_i_glide_ligand_efficiency_ln>
-1.21545

> <r_i_glide_ligand_efficiency_sa>
-0.538514

> <r_i_glide_lipo>
-2.81007

> <r_i_glide_metal>
0

> <r_i_glide_rewards>
-0.435666

> <s_i_glide_gridfile>
wee1_glide-grid

> <s_m_Source_File>
wee1_decoys_glide_SP.sdf

> <s_m_Source_Path>
/Users/zhangxujun/Desktop

> <s_m_entry_id>
3308

> <s_m_entry_name>
wee1_decoys_glide_SP.3033

> <s_m_subgroup_title>
wee1_decoys_glide_SP

> <s_m_subgroupid>
wee1_decoys_glide_SP


$$$$
