@<TRIPOS>MOLECULE
ZINC23472937_3973
52   56    1
SMALL
USER_CHARGES


@<TRIPOS>ATOM
      1 C1         -1.0797   51.7085   29.3458 C.3       1 UNK         0.0000 
      2 C2         -0.5808   51.5517   27.9002 C.3       1 UNK         0.0000 
      3 H3         -0.6914   50.4967   27.6573 H         1 UNK         0.0000 
      4 C4          0.9320   51.8001   27.7757 C.2       1 UNK         0.0000 
      5 O5          1.7023   50.8967   28.0817 O.2       1 UNK         0.0000 
      6 N6          1.4249   53.0181   27.4546 N.am      1 UNK         0.0000 
      7 C7          1.9709   53.9181   28.4945 C.3       1 UNK         0.0000 
      8 H8          1.1875   54.5882   28.8529 H         1 UNK         0.0000 
      9 C9          3.0367   54.6876   27.7163 C.3       1 UNK         0.0000 
     10 C10         3.1042   53.9374   26.4151 C.2       1 UNK         0.0000 
     11 N11         2.1460   53.1109   26.3080 N.2       1 UNK         0.0000 
     12 C12         4.0979   54.2142   25.3615 C.ar      1 UNK         0.0000 
     13 C13         3.7954   53.9052   24.0264 C.ar      1 UNK         0.0000 
     14 C14         4.7428   54.0967   23.0258 C.ar      1 UNK         0.0000 
     15 C15         5.9940   54.6106   23.3520 C.ar      1 UNK         0.0000 
     16 C16         6.3044   54.9361   24.6701 C.ar      1 UNK         0.0000 
     17 C17         5.3586   54.7412   25.6757 C.ar      1 UNK         0.0000 
     18 Cl18        7.1478   54.8968   22.1029 Cl        1 UNK         0.0000 
     19 C19         2.5724   53.2096   29.7175 C.2       1 UNK         0.0000 
     20 C20         3.8438   52.7747   30.0706 C.2       1 UNK         0.0000 
     21 C21         3.7243   52.0967   31.2817 C.2       1 UNK         0.0000 
     22 C22         2.3774   52.0967   31.5986 C.2       1 UNK         0.0000 
     23 O23         1.6875   52.8042   30.6689 O.3       1 UNK         0.0000 
     24 S24        -1.5768   52.4426   26.6563 S.3       1 UNK         0.0000 
     25 C25        -1.5764   51.2341   25.3730 C.ar      1 UNK         0.0000 
     26 N26        -1.1238   51.4742   24.1684 N.2       1 UNK         0.0000 
     27 N27        -1.3721   50.3459   23.3970 N.2       1 UNK         0.0000 
     28 C28        -2.0413   49.4966   24.1400 C.ar      1 UNK         0.0000 
     29 N29        -2.2105   50.0070   25.4132 N.pl3     1 UNK         0.0000 
     30 N30        -2.8956   49.4402   26.4817 N.3       1 UNK         0.0000 
     31 C31        -2.4958   48.1957   23.6442 C.2       1 UNK         0.0000 
     32 C32        -1.8504   47.3810   22.7159 C.2       1 UNK         0.0000 
     33 C33        -2.5617   46.2213   22.3926 C.2       1 UNK         0.0000 
     34 C34        -3.7706   46.1377   23.0656 C.2       1 UNK         0.0000 
     35 S35        -4.0259   47.5001   24.1065 S.3       1 UNK         0.0000 
     36 H36        -0.4956   51.1151   30.0476 H         1 UNK         0.0000 
     37 H37        -1.0298   52.7443   29.6816 H         1 UNK         0.0000 
     38 H38        -2.1093   51.3628   29.4365 H         1 UNK         0.0000 
     39 H39         2.7044   55.6967   27.5185 H         1 UNK         0.0000 
     40 H40         3.9971   54.7393   28.2276 H         1 UNK         0.0000 
     41 H41         2.8307   53.4981   23.7555 H         1 UNK         0.0000 
     42 H42         4.5020   53.8555   22.0004 H         1 UNK         0.0000 
     43 H43         7.2774   55.3411   24.9031 H         1 UNK         0.0000 
     44 H44         5.6280   54.9848   26.6928 H         1 UNK         0.0000 
     45 H45         4.7503   52.9172   29.5014 H         1 UNK         0.0000 
     46 H46         4.5217   51.6381   31.8474 H         1 UNK         0.0000 
     47 H47         1.8008   51.7021   32.4247 H         1 UNK         0.0000 
     48 H48        -2.2568   48.9966   27.1564 H         1 UNK         0.0000 
     49 H49        -3.4450   50.1379   26.9585 H         1 UNK         0.0000 
     50 H50        -0.8956   47.6330   22.2793 H         1 UNK         0.0000 
     51 H51        -2.2112   45.4872   21.6818 H         1 UNK         0.0000 
     52 H52        -4.5251   45.3689   22.9888 H         1 UNK         0.0000 
@<TRIPOS>BOND
     1    1    2 1    
     2    1   36 1    
     3    1   37 1    
     4    1   38 1    
     5    2    3 1    
     6    2    4 1    
     7    2   24 1    
     8    4    5 2    
     9    4    6 am   BACKBONE|DICT|INTERRES
    10    6   11 1    
    11    6    7 1    
    12    7    8 1    
    13    7    9 1    
    14    7   19 1    
    15    9   10 1    
    16    9   39 1    
    17    9   40 1    
    18   10   11 2    
    19   10   12 1    
    20   12   17 ar   
    21   12   13 ar   
    22   13   14 ar   
    23   13   41 1    
    24   14   15 ar   
    25   14   42 1    
    26   15   16 ar   
    27   15   18 1    
    28   16   17 ar   
    29   16   43 1    
    30   17   44 1    
    31   19   23 1    
    32   19   20 2    
    33   20   21 1    
    34   20   45 1    
    35   21   22 2    
    36   21   46 1    
    37   22   23 1    
    38   22   47 1    
    39   24   25 1    
    40   25   29 ar   
    41   25   26 ar   
    42   26   27 ar   
    43   27   28 ar   
    44   28   29 ar   
    45   28   31 1    
    46   29   30 1    
    47   30   48 1    
    48   30   49 1    
    49   31   35 1    
    50   31   32 2    
    51   32   33 1    
    52   32   50 1    
    53   33   34 2    
    54   33   51 1    
    55   34   35 1    
    56   34   52 1    
@<TRIPOS>SUBSTRUCTURE
     1 UNK         1 GROUP             0       ****    0 ROOT    
