@<TRIPOS>MOLECULE
ZINC36213837_2057
65   68    1
SMALL
USER_CHARGES


@<TRIPOS>ATOM
      1 C1          8.8842   56.2769   19.6337 C.3       1 UNK         0.0000 
      2 C2          7.5541   55.6168   19.9557 C.ar      1 UNK         0.0000 
      3 C3          6.7900   55.0781   18.9176 C.ar      1 UNK         0.0000 
      4 C4          5.5886   54.4303   19.1952 C.ar      1 UNK         0.0000 
      5 C5          5.1612   54.3107   20.5173 C.ar      1 UNK         0.0000 
      6 C6          5.9097   54.8659   21.5613 C.ar      1 UNK         0.0000 
      7 C7          7.1102   55.5191   21.2782 C.ar      1 UNK         0.0000 
      8 N8          3.9506   53.6642   20.7779 N.am      1 UNK         0.0000 
      9 C9          3.8224   52.4780   21.4164 C.2       1 UNK         0.0000 
     10 O10         4.7978   51.7680   21.6813 O.2       1 UNK         0.0000 
     11 N11         2.5416   52.1130   21.7240 N.am      1 UNK         0.0000 
     12 C12         1.4463   53.1071   21.8756 C.3       1 UNK         0.0000 
     13 C13         1.0274   53.1866   23.3500 C.3       1 UNK         0.0000 
     14 C14         0.6099   51.8205   23.8983 C.3       1 UNK         0.0000 
     15 C15         1.8959   50.9762   23.7630 C.3       1 UNK         0.0000 
     16 C16         2.2692   50.7673   22.2828 C.3       1 UNK         0.0000 
     17 C17         0.0354   51.9623   25.3500 C.3       1 UNK         0.0000 
     18 H18        -0.6327   52.8182   25.3097 H         1 UNK         0.0000 
     19 C19        -0.7802   50.7073   25.7799 C.2       1 UNK         0.0000 
     20 O20        -0.2650   49.6057   25.5758 O.2       1 UNK         0.0000 
     21 N21        -2.0349   50.8443   26.2958 N.am      1 UNK         0.0000 
     22 C22        -2.7392   52.1194   26.5045 C.3       1 UNK         0.0000 
     23 C23        -3.7161   52.2961   25.3204 C.3       1 UNK         0.0000 
     24 C24        -4.6814   51.0956   25.2005 C.3       1 UNK         0.0000 
     25 C25        -3.9225   49.7501   25.2370 C.3       1 UNK         0.0000 
     26 C26        -2.9166   49.6688   26.4107 C.3       1 UNK         0.0000 
     27 N27         1.1008   52.2921   26.3127 N.am      1 UNK         0.0000 
     28 C28         0.9779   52.6635   27.5992 C.2       1 UNK         0.0000 
     29 O29        -0.0918   52.7959   28.1922 O.2       1 UNK         0.0000 
     30 C30         2.2315   52.8952   28.2639 C.2       1 UNK         0.0000 
     31 C31         2.5299   52.6434   29.6027 C.2       1 UNK         0.0000 
     32 C32         3.8422   52.9964   29.9446 C.2       1 UNK         0.0000 
     33 C33         4.5290   53.5877   28.8935 C.2       1 UNK         0.0000 
     34 S34         3.5615   53.6963   27.4594 S.3       1 UNK         0.0000 
     35 H35         8.7241   57.2332   19.1393 H         1 UNK         0.0000 
     36 H36         9.4978   56.4414   20.5209 H         1 UNK         0.0000 
     37 H37         9.4613   55.6466   18.9562 H         1 UNK         0.0000 
     38 H38         7.1312   55.1507   17.8953 H         1 UNK         0.0000 
     39 H39         5.0074   54.0050   18.3886 H         1 UNK         0.0000 
     40 H40         5.5711   54.7783   22.5846 H         1 UNK         0.0000 
     41 H41         7.7008   55.9308   22.0861 H         1 UNK         0.0000 
     42 H42         3.1115   54.1359   20.4698 H         1 UNK         0.0000 
     43 H43         0.6133   52.8465   21.2226 H         1 UNK         0.0000 
     44 H44         1.7937   54.1028   21.6820 H         1 UNK         0.0000 
     45 H45         0.1961   53.8817   23.4248 H         1 UNK         0.0000 
     46 H46         1.7976   53.6529   23.9679 H         1 UNK         0.0000 
     47 H47        -0.1763   51.4040   23.2631 H         1 UNK         0.0000 
     48 H48         2.7028   51.4605   24.3084 H         1 UNK         0.0000 
     49 H49         1.7676   49.9959   24.2190 H         1 UNK         0.0000 
     50 H50         1.4259   50.3406   21.7392 H         1 UNK         0.0000 
     51 H51         3.0986   50.0700   22.1478 H         1 UNK         0.0000 
     52 H52        -3.2997   52.0115   27.4346 H         1 UNK         0.0000 
     53 H53        -2.0862   52.9609   26.7223 H         1 UNK         0.0000 
     54 H54        -4.2863   53.2148   25.4527 H         1 UNK         0.0000 
     55 H55        -3.1535   52.4278   24.3950 H         1 UNK         0.0000 
     56 H56        -5.2749   51.1725   24.2884 H         1 UNK         0.0000 
     57 H57        -5.3919   51.1237   26.0282 H         1 UNK         0.0000 
     58 H58        -3.3913   49.5955   24.2971 H         1 UNK         0.0000 
     59 H59        -4.6335   48.9278   25.3111 H         1 UNK         0.0000 
     60 H60        -2.3708   48.7259   26.4794 H         1 UNK         0.0000 
     61 H61        -3.4319   49.7435   27.3692 H         1 UNK         0.0000 
     62 H62         2.0365   52.1798   25.9546 H         1 UNK         0.0000 
     63 H63         1.8295   52.1934   30.2924 H         1 UNK         0.0000 
     64 H64         4.2772   52.8416   30.9225 H         1 UNK         0.0000 
     65 H65         5.5431   53.9631   28.8938 H         1 UNK         0.0000 
@<TRIPOS>BOND
     1    1    2 1    
     2    1   35 1    
     3    1   36 1    
     4    1   37 1    
     5    2    7 ar   
     6    2    3 ar   
     7    3    4 ar   
     8    3   38 1    
     9    4    5 ar   
    10    4   39 1    
    11    5    6 ar   
    12    5    8 1    
    13    6    7 ar   
    14    6   40 1    
    15    7   41 1    
    16    8    9 am   BACKBONE|DICT|INTERRES
    17    8   42 1    
    18    9   10 2    
    19    9   11 am   BACKBONE|DICT|INTERRES
    20   11   16 1    
    21   11   12 1    
    22   12   13 1    
    23   12   43 1    
    24   12   44 1    
    25   13   14 1    
    26   13   45 1    
    27   13   46 1    
    28   14   15 1    
    29   14   17 1    
    30   14   47 1    
    31   15   16 1    
    32   15   48 1    
    33   15   49 1    
    34   16   50 1    
    35   16   51 1    
    36   17   18 1    
    37   17   19 1    
    38   17   27 1    
    39   19   20 2    
    40   19   21 am   BACKBONE|DICT|INTERRES
    41   21   26 1    
    42   21   22 1    
    43   22   23 1    
    44   22   52 1    
    45   22   53 1    
    46   23   24 1    
    47   23   54 1    
    48   23   55 1    
    49   24   25 1    
    50   24   56 1    
    51   24   57 1    
    52   25   26 1    
    53   25   58 1    
    54   25   59 1    
    55   26   60 1    
    56   26   61 1    
    57   27   28 am   BACKBONE|DICT|INTERRES
    58   27   62 1    
    59   28   29 2    
    60   28   30 1    
    61   30   34 1    
    62   30   31 2    
    63   31   32 1    
    64   31   63 1    
    65   32   33 2    
    66   32   64 1    
    67   33   34 1    
    68   33   65 1    
@<TRIPOS>SUBSTRUCTURE
     1 UNK         1 GROUP             0       ****    0 ROOT    
