@<TRIPOS>MOLECULE
ZINC22996585_1780
31   33    1
SMALL
USER_CHARGES


@<TRIPOS>ATOM
      1 C1          4.6739   54.0115   17.5837 C.ar      1 UNK         0.0000 
      2 C2          5.3409   55.2312   17.6483 C.ar      1 UNK         0.0000 
      3 C3          5.8098   55.7762   18.8633 C.ar      1 UNK         0.0000 
      4 C4          5.5673   55.0100   20.0381 C.ar      1 UNK         0.0000 
      5 N5          5.9044   55.2395   21.3385 N.2       1 UNK         0.0000 
      6 C6          5.3326   54.2803   22.0396 C.ar      1 UNK         0.0000 
      7 C7          4.7044   53.3422   21.2228 C.ar      1 UNK         0.0000 
      8 N8          4.8507   53.8019   19.9403 N.pl3     1 UNK         0.0000 
      9 C9          4.4226   53.2967   18.7457 C.ar      1 UNK         0.0000 
     10 C10         5.3737   54.2875   23.5291 C.ar      1 UNK         0.0000 
     11 C11         6.5711   54.4964   24.2211 C.ar      1 UNK         0.0000 
     12 C12         6.5808   54.4705   25.6141 C.ar      1 UNK         0.0000 
     13 C13         5.3946   54.2626   26.3125 C.ar      1 UNK         0.0000 
     14 C14         4.1918   54.0967   25.6308 C.ar      1 UNK         0.0000 
     15 C15         4.1836   54.0967   24.2384 C.ar      1 UNK         0.0000 
     16 Br16        5.4251   54.1718   28.2125 Br        1 UNK         0.0000 
     17 C17         6.4899   57.1320   18.8844 C.2       1 UNK         0.0000 
     18 O18         6.7044   57.6967   19.9611 O.2       1 UNK         0.0000 
     19 N19         6.8175   57.6780   17.6944 N.am      1 UNK         0.0000 
     20 N20         7.5044   58.8967   17.6373 N.3       1 UNK         0.0000 
     21 H21         4.3428   53.6223   16.6307 H         1 UNK         0.0000 
     22 H22         5.4770   55.7536   16.7121 H         1 UNK         0.0000 
     23 H23         4.1605   52.4401   21.4583 H         1 UNK         0.0000 
     24 H24         3.9130   52.3425   18.7627 H         1 UNK         0.0000 
     25 H25         7.4938   54.6494   23.6787 H         1 UNK         0.0000 
     26 H26         7.5043   54.5828   26.1582 H         1 UNK         0.0000 
     27 H27         3.2749   53.9371   26.1787 H         1 UNK         0.0000 
     28 H28         3.2522   53.9496   23.7105 H         1 UNK         0.0000 
     29 H29         6.8715   57.1370   16.8436 H         1 UNK         0.0000 
     30 H30         6.8172   59.6486   17.6606 H         1 UNK         0.0000 
     31 H31         8.0553   58.9653   18.4817 H         1 UNK         0.0000 
@<TRIPOS>BOND
     1    1    9 ar   
     2    1    2 ar   
     3    1   21 1    
     4    2    3 ar   
     5    2   22 1    
     6    3    4 ar   
     7    3   17 1    
     8    4    8 ar   
     9    4    5 ar   
    10    5    6 ar   
    11    6    7 ar   
    12    6   10 1    
    13    7    8 ar   
    14    7   23 1    
    15    8    9 ar   
    16    9   24 1    
    17   10   15 ar   
    18   10   11 ar   
    19   11   12 ar   
    20   11   25 1    
    21   12   13 ar   
    22   12   26 1    
    23   13   14 ar   
    24   13   16 1    
    25   14   15 ar   
    26   14   27 1    
    27   15   28 1    
    28   17   18 2    
    29   17   19 am   BACKBONE|DICT|INTERRES
    30   19   20 1    
    31   19   29 1    
    32   20   30 1    
    33   20   31 1    
@<TRIPOS>SUBSTRUCTURE
     1 UNK         1 GROUP             0       ****    0 ROOT    
