@<TRIPOS>MOLECULE
ZINC39671054_1324
60   63    1
SMALL
USER_CHARGES


@<TRIPOS>ATOM
      1 C1          5.3810   54.0978   21.1327 C.2       1 UNK         0.0000 
      2 C2          4.8655   53.3359   20.0809 C.2       1 UNK         0.0000 
      3 C3          3.5894   52.9391   20.4525 C.2       1 UNK         0.0000 
      4 O4          3.3224   53.4159   21.6992 O.3       1 UNK         0.0000 
      5 C5          4.4148   54.0973   22.1217 C.2       1 UNK         0.0000 
      6 C6          2.4868   52.1609   19.7552 C.3       1 UNK         0.0000 
      7 C7          1.9819   50.9239   20.5308 C.3       1 UNK         0.0000 
      8 N8          1.5516   51.2297   21.8946 N.am      1 UNK         0.0000 
      9 C9          0.3824   51.7983   22.2442 C.2       1 UNK         0.0000 
     10 O10        -0.5317   51.9849   21.4414 O.2       1 UNK         0.0000 
     11 C11         0.1617   52.2020   23.7248 C.3       1 UNK         0.0000 
     12 H12        -0.5079   53.0647   23.7122 H         1 UNK         0.0000 
     13 C13         1.4757   52.6990   24.3608 C.3       1 UNK         0.0000 
     14 N14         1.2249   52.5722   25.8021 N.am      1 UNK         0.0000 
     15 C15         0.0577   51.7199   26.0478 C.3       1 UNK         0.0000 
     16 C16        -0.3391   51.0961   24.6824 C.3       1 UNK         0.0000 
     17 C17         0.3525   49.7169   24.4455 C.3       1 UNK         0.0000 
     18 C18         0.0132   48.6887   25.5394 C.3       1 UNK         0.0000 
     19 N19        -1.5224   48.5572   25.6817 N.4       1 UNK         0.0000 
     20 C20        -2.3232   49.8815   25.7066 C.3       1 UNK         0.0000 
     21 C21        -1.8482   50.7907   24.5529 C.3       1 UNK         0.0000 
     22 C22         1.9655   53.2969   26.6918 C.2       1 UNK         0.0000 
     23 O23         2.9121   53.9727   26.2752 O.2       1 UNK         0.0000 
     24 C24         1.7491   53.3420   28.2433 C.3       1 UNK         0.0000 
     25 H25         2.7009   52.9516   28.6083 H         1 UNK         0.0000 
     26 C26         0.6336   52.4503   28.8561 C.3       1 UNK         0.0000 
     27 C27         0.5768   52.5611   30.3989 C.3       1 UNK         0.0000 
     28 C28         0.6466   54.0077   30.8541 C.2       1 UNK         0.0000 
     29 C29         1.1032   55.0133   30.0866 C.2       1 UNK         0.0000 
     30 C30         1.6409   54.8416   28.6747 C.3       1 UNK         0.0000 
     31 H31         6.3462   54.5810   21.1726 H         1 UNK         0.0000 
     32 H32         5.3516   53.1096   19.1417 H         1 UNK         0.0000 
     33 H33         4.3523   54.5336   23.1080 H         1 UNK         0.0000 
     34 H34         1.6434   52.8241   19.5584 H         1 UNK         0.0000 
     35 H35         2.8331   51.8366   18.7728 H         1 UNK         0.0000 
     36 H36         1.1794   50.4303   19.9779 H         1 UNK         0.0000 
     37 H37         2.7928   50.1976   20.6044 H         1 UNK         0.0000 
     38 H38         2.2465   51.0865   22.6099 H         1 UNK         0.0000 
     39 H39         2.3045   52.0263   24.1410 H         1 UNK         0.0000 
     40 H40         1.6968   53.7182   24.0354 H         1 UNK         0.0000 
     41 H41        -0.7506   52.3905   26.3434 H         1 UNK         0.0000 
     42 H42         0.1504   50.9730   26.8270 H         1 UNK         0.0000 
     43 H43         0.1299   49.3106   23.4574 H         1 UNK         0.0000 
     44 H44         1.4363   49.8384   24.4665 H         1 UNK         0.0000 
     45 H45         0.3823   47.6972   25.2808 H         1 UNK         0.0000 
     46 H46         0.3964   48.9395   26.5276 H         1 UNK         0.0000 
     47 H47        -1.8821   47.9553   24.9564 H         1 UNK         0.0000 
     48 H48        -3.3748   49.6041   25.6222 H         1 UNK         0.0000 
     49 H49        -2.1572   50.3098   26.6972 H         1 UNK         0.0000 
     50 H50        -2.4074   51.7238   24.6343 H         1 UNK         0.0000 
     51 H51        -2.1016   50.3884   23.5703 H         1 UNK         0.0000 
     52 H52        -0.3510   52.7661   28.5084 H         1 UNK         0.0000 
     53 H53         0.8259   51.3926   28.6793 H         1 UNK         0.0000 
     54 H54         1.3945   52.0063   30.8596 H         1 UNK         0.0000 
     55 H55        -0.3398   52.0964   30.7689 H         1 UNK         0.0000 
     56 H56         0.3058   54.2477   31.8524 H         1 UNK         0.0000 
     57 H57         1.0961   56.0070   30.5135 H         1 UNK         0.0000 
     58 H58         2.5786   55.3790   28.5211 H         1 UNK         0.0000 
     59 H59         0.9021   55.3492   28.0527 H         1 UNK         0.0000 
     60 H60        -1.6926   48.0972   26.5819 H         1 UNK         0.0000 
@<TRIPOS>BOND
     1    1    5 2    
     2    1    2 1    
     3    1   31 1    
     4    2    3 2    
     5    2   32 1    
     6    3    4 1    
     7    3    6 1    
     8    4    5 1    
     9    5   33 1    
    10    6    7 1    
    11    6   34 1    
    12    6   35 1    
    13    7    8 1    
    14    7   36 1    
    15    7   37 1    
    16    8    9 am   BACKBONE|DICT|INTERRES
    17    8   38 1    
    18    9   10 2    
    19    9   11 1    
    20   11   12 1    
    21   11   16 1    
    22   11   13 1    
    23   13   14 1    
    24   13   39 1    
    25   13   40 1    
    26   14   15 1    
    27   14   22 am   BACKBONE|DICT|INTERRES
    28   15   16 1    
    29   15   41 1    
    30   15   42 1    
    31   16   21 1    
    32   16   17 1    
    33   17   18 1    
    34   17   43 1    
    35   17   44 1    
    36   18   19 1    
    37   18   45 1    
    38   18   46 1    
    39   19   20 1    
    40   19   47 1    
    41   19   60 1    
    42   20   21 1    
    43   20   48 1    
    44   20   49 1    
    45   21   50 1    
    46   21   51 1    
    47   22   23 2    
    48   22   24 1    
    49   24   25 1    
    50   24   30 1    
    51   24   26 1    
    52   26   27 1    
    53   26   52 1    
    54   26   53 1    
    55   27   28 1    
    56   27   54 1    
    57   27   55 1    
    58   28   29 2    
    59   28   56 1    
    60   29   30 1    
    61   29   57 1    
    62   30   58 1    
    63   30   59 1    
@<TRIPOS>SUBSTRUCTURE
     1 UNK         1 GROUP             0       ****    0 ROOT    
