@<TRIPOS>MOLECULE
ZINC16400311_1949
51   54    1
SMALL
USER_CHARGES


@<TRIPOS>ATOM
      1 C1          6.3742   54.7072   27.2452 C.ar      1 UNK         0.0000 
      2 C2          5.3637   54.8657   26.2986 C.ar      1 UNK         0.0000 
      3 C3          4.1448   54.2078   26.4688 C.ar      1 UNK         0.0000 
      4 C4          3.9256   53.4068   27.5948 C.ar      1 UNK         0.0000 
      5 C5          4.9426   53.2543   28.5265 C.ar      1 UNK         0.0000 
      6 C6          6.1731   53.8871   28.3529 C.ar      1 UNK         0.0000 
      7 C7          4.5164   52.2233   29.5218 C.3       1 UNK         0.0000 
      8 C8          3.0258   52.0967   29.2818 C.3       1 UNK         0.0000 
      9 N9          2.8076   52.6275   27.9474 N.pl3     1 UNK         0.0000 
     10 S10         1.1502   53.0392   27.5316 S.o2      1 UNK         0.0000 
     11 O11         1.1045   54.4967   27.6817 O.2       1 UNK         0.0000 
     12 O12         0.2742   52.1819   28.3388 O.2       1 UNK         0.0000 
     13 C13         0.9202   52.5663   25.8058 C.ar      1 UNK         0.0000 
     14 C14         1.1494   53.4829   24.7808 C.ar      1 UNK         0.0000 
     15 C15         0.9922   53.1118   23.4521 C.ar      1 UNK         0.0000 
     16 C16         0.5846   51.8188   23.1287 C.ar      1 UNK         0.0000 
     17 C17         0.3410   50.8929   24.1569 C.ar      1 UNK         0.0000 
     18 C18         0.5070   51.2697   25.4897 C.ar      1 UNK         0.0000 
     19 N19         0.4374   51.5681   21.7531 N.am      1 UNK         0.0000 
     20 C20         0.0560   50.4460   21.1092 C.2       1 UNK         0.0000 
     21 O21        -0.2157   49.3778   21.6598 O.2       1 UNK         0.0000 
     22 C22        -0.0285   50.5682   19.5625 C.3       1 UNK         0.0000 
     23 H23         0.3180   51.5606   19.2661 H         1 UNK         0.0000 
     24 C24         0.9548   49.5064   18.9666 C.3       1 UNK         0.0000 
     25 C25         0.7042   49.2633   17.4846 C.2       1 UNK         0.0000 
     26 C26        -0.3801   49.6983   16.8184 C.2       1 UNK         0.0000 
     27 C27        -1.5318   50.4501   17.4685 C.3       1 UNK         0.0000 
     28 C28        -1.4827   50.3136   19.0209 C.3       1 UNK         0.0000 
     29 H29        -1.8105   49.3027   19.2754 H         1 UNK         0.0000 
     30 C30        -2.5223   51.2946   19.6309 C.2       1 UNK         0.0000 
     31 O31        -3.2953   50.8428   20.5017 O.co2     1 UNK         0.0000 
     32 H32         7.3195   55.2101   27.1236 H         1 UNK         0.0000 
     33 H33         5.5246   55.4898   25.4321 H         1 UNK         0.0000 
     34 H34         3.3961   54.3338   25.7121 H         1 UNK         0.0000 
     35 H35         6.9815   53.7454   29.0549 H         1 UNK         0.0000 
     36 H36         4.7044   52.4963   30.5574 H         1 UNK         0.0000 
     37 H37         5.0307   51.2967   29.2923 H         1 UNK         0.0000 
     38 H38         2.4862   52.7196   29.9980 H         1 UNK         0.0000 
     39 H39         2.6250   51.0878   29.3678 H         1 UNK         0.0000 
     40 H40         1.4303   54.4966   25.0050 H         1 UNK         0.0000 
     41 H41         1.1771   53.8439   22.6782 H         1 UNK         0.0000 
     42 H42         0.0200   49.8836   23.9547 H         1 UNK         0.0000 
     43 H43         0.3157   50.5487   26.2732 H         1 UNK         0.0000 
     44 H44         0.6397   52.3596   21.1623 H         1 UNK         0.0000 
     45 H45         0.8130   48.5278   19.4301 H         1 UNK         0.0000 
     46 H46         1.9940   49.7809   19.1583 H         1 UNK         0.0000 
     47 H47         1.4589   48.7302   16.9224 H         1 UNK         0.0000 
     48 H48        -0.4317   49.4923   15.7591 H         1 UNK         0.0000 
     49 H49        -1.4674   51.4909   17.1452 H         1 UNK         0.0000 
     50 H50        -2.4834   50.0732   17.0909 H         1 UNK         0.0000 
     51 O51        -2.4886   52.4967   19.2817 O.co2     1 UNK         0.0000 
@<TRIPOS>BOND
     1    1    6 ar   
     2    1    2 ar   
     3    1   32 1    
     4    2    3 ar   
     5    2   33 1    
     6    3    4 ar   
     7    3   34 1    
     8    4    9 1    
     9    4    5 ar   
    10    5    6 ar   
    11    5    7 1    
    12    6   35 1    
    13    7    8 1    
    14    7   36 1    
    15    7   37 1    
    16    8    9 1    
    17    8   38 1    
    18    8   39 1    
    19    9   10 1    
    20   10   11 2    
    21   10   12 2    
    22   10   13 1    
    23   13   18 ar   
    24   13   14 ar   
    25   14   15 ar   
    26   14   40 1    
    27   15   16 ar   
    28   15   41 1    
    29   16   17 ar   
    30   16   19 1    
    31   17   18 ar   
    32   17   42 1    
    33   18   43 1    
    34   19   20 am   BACKBONE|DICT|INTERRES
    35   19   44 1    
    36   20   21 2    
    37   20   22 1    
    38   22   23 1    
    39   22   28 1    
    40   22   24 1    
    41   24   25 1    
    42   24   45 1    
    43   24   46 1    
    44   25   26 2    
    45   25   47 1    
    46   26   27 1    
    47   26   48 1    
    48   27   28 1    
    49   27   49 1    
    50   27   50 1    
    51   28   29 1    
    52   28   30 1    
    53   30   31 2    
    54   30   51 1    
@<TRIPOS>SUBSTRUCTURE
     1 UNK         1 GROUP             0       ****    0 ROOT    
