@<TRIPOS>MOLECULE
ZINC21322972_3618
42   44    1
SMALL
USER_CHARGES


@<TRIPOS>ATOM
      1 C1          6.3654   52.7892   14.9922 C.3       1 UNK         0.0000 
      2 C2          7.4025   52.5756   16.1080 C.2       1 UNK         0.0000 
      3 N3          7.3082   53.0849   17.2815 N.2       1 UNK         0.0000 
      4 N4          6.2515   53.9302   17.6476 N.pl3     1 UNK         0.0000 
      5 C5          6.0690   54.3572   18.9448 C.ar      1 UNK         0.0000 
      6 N6          6.6089   55.4233   19.4806 N.2       1 UNK         0.0000 
      7 N7          6.2024   55.4541   20.8127 N.2       1 UNK         0.0000 
      8 C8          5.4346   54.4083   21.0217 C.ar      1 UNK         0.0000 
      9 N9          5.3072   53.6674   19.8644 N.pl3     1 UNK         0.0000 
     10 N10         4.5779   52.4968   19.6817 N.3       1 UNK         0.0000 
     11 S11         4.6453   54.0149   22.5532 S.3       1 UNK         0.0000 
     12 C12         5.9433   54.5032   23.7484 C.3       1 UNK         0.0000 
     13 C13         5.5020   54.4333   25.2159 C.ar      1 UNK         0.0000 
     14 C14         4.1606   54.5787   25.5955 C.ar      1 UNK         0.0000 
     15 C15         3.7947   54.4961   26.9363 C.ar      1 UNK         0.0000 
     16 C16         4.7670   54.2787   27.9087 C.ar      1 UNK         0.0000 
     17 C17         6.1051   54.1373   27.5467 C.ar      1 UNK         0.0000 
     18 C18         6.4682   54.2143   26.2030 C.ar      1 UNK         0.0000 
     19 Cl19        4.3044   54.2002   29.5712 Cl        1 UNK         0.0000 
     20 C20         8.5632   51.6959   15.7732 C.ar      1 UNK         0.0000 
     21 C21         9.5562   51.4455   16.7363 C.ar      1 UNK         0.0000 
     22 C22        10.6378   50.6137   16.4765 C.ar      1 UNK         0.0000 
     23 C23        10.7604   50.0175   15.2296 C.ar      1 UNK         0.0000 
     24 C24         9.8040   50.2469   14.2452 C.ar      1 UNK         0.0000 
     25 C25         8.7152   51.0782   14.5161 C.ar      1 UNK         0.0000 
     26 Br26       12.2571   48.8967   14.8804 Br        1 UNK         0.0000 
     27 H27         5.8948   51.8440   14.7184 H         1 UNK         0.0000 
     28 H28         5.5511   53.4550   15.2716 H         1 UNK         0.0000 
     29 H29         6.8262   53.2302   14.1076 H         1 UNK         0.0000 
     30 H30         5.5910   54.1232   16.9100 H         1 UNK         0.0000 
     31 H31         3.7153   52.6921   19.1964 H         1 UNK         0.0000 
     32 H32         5.1042   51.8258   19.1172 H         1 UNK         0.0000 
     33 H33         6.7871   53.8289   23.5922 H         1 UNK         0.0000 
     34 H34         6.3031   55.5109   23.5365 H         1 UNK         0.0000 
     35 H35         3.3908   54.7589   24.8601 H         1 UNK         0.0000 
     36 H36         2.7586   54.6074   27.2199 H         1 UNK         0.0000 
     37 H37         6.8581   53.9733   28.3044 H         1 UNK         0.0000 
     38 H38         7.5043   54.0986   25.9283 H         1 UNK         0.0000 
     39 H39         9.5040   51.9002   17.7120 H         1 UNK         0.0000 
     40 H40        11.3800   50.4414   17.2428 H         1 UNK         0.0000 
     41 H41         9.9115   49.7828   13.2743 H         1 UNK         0.0000 
     42 H42         7.9928   51.2242   13.7273 H         1 UNK         0.0000 
@<TRIPOS>BOND
     1    1    2 1    
     2    1   27 1    
     3    1   28 1    
     4    1   29 1    
     5    2    3 2    
     6    2   20 1    
     7    3    4 1    
     8    4    5 1    
     9    4   30 1    
    10    5    9 ar   
    11    5    6 ar   
    12    6    7 ar   
    13    7    8 ar   
    14    8    9 ar   
    15    8   11 1    
    16    9   10 1    
    17   10   31 1    
    18   10   32 1    
    19   11   12 1    
    20   12   13 1    
    21   12   33 1    
    22   12   34 1    
    23   13   18 ar   
    24   13   14 ar   
    25   14   15 ar   
    26   14   35 1    
    27   15   16 ar   
    28   15   36 1    
    29   16   17 ar   
    30   16   19 1    
    31   17   18 ar   
    32   17   37 1    
    33   18   38 1    
    34   20   25 ar   
    35   20   21 ar   
    36   21   22 ar   
    37   21   39 1    
    38   22   23 ar   
    39   22   40 1    
    40   23   24 ar   
    41   23   26 1    
    42   24   25 ar   
    43   24   41 1    
    44   25   42 1    
@<TRIPOS>SUBSTRUCTURE
     1 UNK         1 GROUP             0       ****    0 ROOT    
