@<TRIPOS>MOLECULE
ZINC59135278_1001
57   61    1
SMALL
USER_CHARGES


@<TRIPOS>ATOM
      1 C1          3.4689   52.3196   21.0226 C.3       1 UNK         0.0000 
      2 C2          2.4608   51.5369   21.8689 C.3       1 UNK         0.0000 
      3 O3          2.1795   52.2845   23.0491 O.3       1 UNK         0.0000 
      4 C4          1.3751   51.7338   24.0322 C.ar      1 UNK         0.0000 
      5 C5          0.7531   50.4724   23.9254 C.ar      1 UNK         0.0000 
      6 C6         -0.0524   49.9711   24.9550 C.ar      1 UNK         0.0000 
      7 C7         -0.1943   50.7243   26.1216 C.ar      1 UNK         0.0000 
      8 C8          0.3719   51.9864   26.2222 C.ar      1 UNK         0.0000 
      9 C9          1.1678   52.4956   25.1937 C.ar      1 UNK         0.0000 
     10 O10         1.6889   53.7672   25.3080 O.3       1 UNK         0.0000 
     11 C11         2.9603   53.9058   25.9560 C.3       1 UNK         0.0000 
     12 C12         2.8634   53.6780   27.4649 C.ar      1 UNK         0.0000 
     13 C13         3.8382   52.8984   28.1124 C.ar      1 UNK         0.0000 
     14 C14         3.6641   52.4769   29.4380 C.ar      1 UNK         0.0000 
     15 C15         2.4927   52.8588   30.0789 C.ar      1 UNK         0.0000 
     16 C16         1.5876   53.6968   29.4909 C.ar      1 UNK         0.0000 
     17 C17         1.7625   54.1663   28.1930 C.ar      1 UNK         0.0000 
     18 O18         0.5532   53.9094   30.3478 O.3       1 UNK         0.0000 
     19 C19         0.7045   52.9337   31.3462 C.3       1 UNK         0.0000 
     20 O20         2.0380   52.4968   31.3055 O.3       1 UNK         0.0000 
     21 C21        -0.7308   48.6598   24.8078 C.2       1 UNK         0.0000 
     22 C22        -2.0051   48.2849   25.1439 C.2       1 UNK         0.0000 
     23 C23        -2.3926   46.8656   25.0726 C.2       1 UNK         0.0000 
     24 O24        -1.6977   46.0985   24.4053 O.2       1 UNK         0.0000 
     25 N25        -3.4752   46.4689   25.7193 N.2       1 UNK         0.0000 
     26 C26        -4.2339   47.2738   26.4610 C.2       1 UNK         0.0000 
     27 O27        -5.1921   46.8664   27.1238 O.2       1 UNK         0.0000 
     28 N28        -3.9548   48.6343   26.4734 N.am      1 UNK         0.0000 
     29 C29        -2.9971   49.2323   25.6816 C.2       1 UNK         0.0000 
     30 O30        -2.9924   50.4419   25.4212 O.2       1 UNK         0.0000 
     31 C31        -4.6945   49.4985   27.3247 C.ar      1 UNK         0.0000 
     32 C32        -5.8678   50.1170   26.8754 C.ar      1 UNK         0.0000 
     33 C33        -6.5334   51.0185   27.7058 C.ar      1 UNK         0.0000 
     34 C34        -6.0313   51.2941   28.9777 C.ar      1 UNK         0.0000 
     35 C35        -4.8774   50.6646   29.4360 C.ar      1 UNK         0.0000 
     36 C36        -4.2067   49.7686   28.6100 C.ar      1 UNK         0.0000 
     37 F37        -6.6602   52.1901   29.7730 F         1 UNK         0.0000 
     38 H38         3.7233   51.7761   20.1117 H         1 UNK         0.0000 
     39 H39         3.0636   53.2887   20.7291 H         1 UNK         0.0000 
     40 H40         4.3927   52.4946   21.5743 H         1 UNK         0.0000 
     41 H41         2.8852   50.5632   22.1217 H         1 UNK         0.0000 
     42 H42         1.5456   51.3709   21.2980 H         1 UNK         0.0000 
     43 H43         0.8758   49.8726   23.0367 H         1 UNK         0.0000 
     44 H44        -0.7846   50.3483   26.9461 H         1 UNK         0.0000 
     45 H45         0.1695   52.5593   27.1100 H         1 UNK         0.0000 
     46 H46         3.6863   53.2302   25.5007 H         1 UNK         0.0000 
     47 H47         3.3335   54.9139   25.7791 H         1 UNK         0.0000 
     48 H48         4.7015   52.5443   27.5645 H         1 UNK         0.0000 
     49 H49         4.3896   51.8321   29.9108 H         1 UNK         0.0000 
     50 H50         1.0184   54.7886   27.7182 H         1 UNK         0.0000 
     51 H51         0.0331   52.0953   31.1413 H         1 UNK         0.0000 
     52 H52         0.4428   53.3236   32.3315 H         1 UNK         0.0000 
     53 H53        -0.0590   47.9023   24.4254 H         1 UNK         0.0000 
     54 H54        -6.2447   49.9143   25.8836 H         1 UNK         0.0000 
     55 H55        -7.4309   51.5105   27.3624 H         1 UNK         0.0000 
     56 H56        -4.4932   50.8753   30.4233 H         1 UNK         0.0000 
     57 H57        -3.2986   49.2982   28.9632 H         1 UNK         0.0000 
@<TRIPOS>BOND
     1    1    2 1    
     2    1   38 1    
     3    1   39 1    
     4    1   40 1    
     5    2    3 1    
     6    2   41 1    
     7    2   42 1    
     8    3    4 1    
     9    4    9 ar   
    10    4    5 ar   
    11    5    6 ar   
    12    5   43 1    
    13    6    7 ar   
    14    6   21 1    
    15    7    8 ar   
    16    7   44 1    
    17    8    9 ar   
    18    8   45 1    
    19    9   10 1    
    20   10   11 1    
    21   11   12 1    
    22   11   46 1    
    23   11   47 1    
    24   12   17 ar   
    25   12   13 ar   
    26   13   14 ar   
    27   13   48 1    
    28   14   15 ar   
    29   14   49 1    
    30   15   20 1    
    31   15   16 ar   
    32   16   17 ar   
    33   16   18 1    
    34   17   50 1    
    35   18   19 1    
    36   19   20 1    
    37   19   51 1    
    38   19   52 1    
    39   21   22 2    
    40   21   53 1    
    41   22   29 1    
    42   22   23 1    
    43   23   24 2    
    44   23   25 1    
    45   25   26 1    
    46   26   27 2    
    47   26   28 am   BACKBONE|DICT|INTERRES
    48   28   29 am   BACKBONE|DICT|INTERRES
    49   28   31 1    
    50   29   30 2    
    51   31   36 ar   
    52   31   32 ar   
    53   32   33 ar   
    54   32   54 1    
    55   33   34 ar   
    56   33   55 1    
    57   34   35 ar   
    58   34   37 1    
    59   35   36 ar   
    60   35   56 1    
    61   36   57 1    
@<TRIPOS>SUBSTRUCTURE
     1 UNK         1 GROUP             0       ****    0 ROOT    
