@<TRIPOS>MOLECULE
ZINC03012148_2327
59   62    1
SMALL
USER_CHARGES


@<TRIPOS>ATOM
      1 C1          9.8719   54.4946   15.5630 C.3       1 UNK         0.0000 
      2 C2          8.8803   54.5769   16.7089 C.ar      1 UNK         0.0000 
      3 C3          9.2214   55.2411   17.8858 C.ar      1 UNK         0.0000 
      4 C4          8.3206   55.2985   18.9466 C.ar      1 UNK         0.0000 
      5 C5          7.0616   54.6778   18.8542 C.ar      1 UNK         0.0000 
      6 C6          6.7174   54.0102   17.6616 C.ar      1 UNK         0.0000 
      7 C7          7.6308   53.9649   16.6029 C.ar      1 UNK         0.0000 
      8 C8          5.3781   53.2967   17.4930 C.3       1 UNK         0.0000 
      9 N9          6.1280   54.6437   19.9119 N.am      1 UNK         0.0000 
     10 C10         6.2783   54.9868   21.2110 C.2       1 UNK         0.0000 
     11 O11         7.2255   55.6185   21.6817 O.2       1 UNK         0.0000 
     12 C12         5.2263   54.4969   22.0721 C.ar      1 UNK         0.0000 
     13 C13         5.3426   54.3558   23.4658 C.ar      1 UNK         0.0000 
     14 C14         4.0970   53.9870   23.9245 C.ar      1 UNK         0.0000 
     15 N15         3.2946   53.9458   22.8019 N.pl3     1 UNK         0.0000 
     16 N16         3.9934   54.2196   21.6897 N.2       1 UNK         0.0000 
     17 C17         1.8759   53.5869   22.7517 C.3       1 UNK         0.0000 
     18 H18         1.3919   54.3022   22.0900 H         1 UNK         0.0000 
     19 C19         1.3168   53.7682   24.1875 C.3       1 UNK         0.0000 
     20 C20         2.2432   53.1859   25.2865 C.3       1 UNK         0.0000 
     21 H21         2.3529   52.1148   25.1133 H         1 UNK         0.0000 
     22 N22         3.5917   53.7610   25.1889 N.pl3     1 UNK         0.0000 
     23 C23         1.6040   53.2383   26.6772 C.ar      1 UNK         0.0000 
     24 C24         2.0957   54.0538   27.7029 C.ar      1 UNK         0.0000 
     25 C25         1.4936   54.0490   28.9595 C.ar      1 UNK         0.0000 
     26 C26         0.3719   53.2428   29.2127 C.ar      1 UNK         0.0000 
     27 C27        -0.1450   52.4421   28.1835 C.ar      1 UNK         0.0000 
     28 C28         0.4905   52.4347   26.9323 C.ar      1 UNK         0.0000 
     29 O29        -1.2748   51.6961   28.4674 O.3       1 UNK         0.0000 
     30 C30        -1.8736   50.9047   27.4452 C.3       1 UNK         0.0000 
     31 O31        -0.2796   53.1942   30.4311 O.3       1 UNK         0.0000 
     32 C32         0.3043   53.8007   31.5761 C.3       1 UNK         0.0000 
     33 C33         1.6043   52.1877   22.1417 C.3       1 UNK         0.0000 
     34 F34         0.2954   51.9332   22.1163 F         1 UNK         0.0000 
     35 F35         2.0437   52.0963   20.8866 F         1 UNK         0.0000 
     36 F36         2.1781   51.2061   22.8372 F         1 UNK         0.0000 
     37 H37        10.8988   54.5281   15.9292 H         1 UNK         0.0000 
     38 H38         9.7184   55.3162   14.8628 H         1 UNK         0.0000 
     39 H39         9.7646   53.5521   15.0241 H         1 UNK         0.0000 
     40 H40        10.1895   55.7099   17.9891 H         1 UNK         0.0000 
     41 H41         8.6437   55.8206   19.8315 H         1 UNK         0.0000 
     42 H42         7.3711   53.4437   15.6929 H         1 UNK         0.0000 
     43 H43         5.1504   52.6895   18.3694 H         1 UNK         0.0000 
     44 H44         4.5712   54.0188   17.3652 H         1 UNK         0.0000 
     45 H45         5.3813   52.6121   16.6435 H         1 UNK         0.0000 
     46 H46         5.2695   54.1632   19.6870 H         1 UNK         0.0000 
     47 H47         6.2253   54.5334   24.0630 H         1 UNK         0.0000 
     48 H48         1.1314   54.8256   24.3767 H         1 UNK         0.0000 
     49 H49         0.3268   53.3154   24.2489 H         1 UNK         0.0000 
     50 H50         4.2071   53.3318   25.8654 H         1 UNK         0.0000 
     51 H51         2.9494   54.6946   27.5372 H         1 UNK         0.0000 
     52 H52         1.9065   54.6898   29.7221 H         1 UNK         0.0000 
     53 H53         0.1189   51.8075   26.1370 H         1 UNK         0.0000 
     54 H54        -2.7425   50.3890   27.8542 H         1 UNK         0.0000 
     55 H55        -2.2213   51.5247   26.6181 H         1 UNK         0.0000 
     56 H56        -1.1866   50.1509   27.0567 H         1 UNK         0.0000 
     57 H57        -0.3698   53.6963   32.4264 H         1 UNK         0.0000 
     58 H58         1.2376   53.2974   31.8321 H         1 UNK         0.0000 
     59 H59         0.4809   54.8677   31.4369 H         1 UNK         0.0000 
@<TRIPOS>BOND
     1    1    2 1    
     2    1   37 1    
     3    1   38 1    
     4    1   39 1    
     5    2    7 ar   
     6    2    3 ar   
     7    3    4 ar   
     8    3   40 1    
     9    4    5 ar   
    10    4   41 1    
    11    5    6 ar   
    12    5    9 1    
    13    6    7 ar   
    14    6    8 1    
    15    7   42 1    
    16    8   43 1    
    17    8   44 1    
    18    8   45 1    
    19    9   10 am   BACKBONE|DICT|INTERRES
    20    9   46 1    
    21   10   11 2    
    22   10   12 1    
    23   12   16 ar   
    24   12   13 ar   
    25   13   14 ar   
    26   13   47 1    
    27   14   22 1    
    28   14   15 ar   
    29   15   16 ar   
    30   15   17 1    
    31   17   18 1    
    32   17   19 1    
    33   17   33 1    
    34   19   20 1    
    35   19   48 1    
    36   19   49 1    
    37   20   21 1    
    38   20   22 1    
    39   20   23 1    
    40   22   50 1    
    41   23   28 ar   
    42   23   24 ar   
    43   24   25 ar   
    44   24   51 1    
    45   25   26 ar   
    46   25   52 1    
    47   26   27 ar   
    48   26   31 1    
    49   27   28 ar   
    50   27   29 1    
    51   28   53 1    
    52   29   30 1    
    53   30   54 1    
    54   30   55 1    
    55   30   56 1    
    56   31   32 1    
    57   32   57 1    
    58   32   58 1    
    59   32   59 1    
    60   33   34 1    
    61   33   35 1    
    62   33   36 1    
@<TRIPOS>SUBSTRUCTURE
     1 UNK         1 GROUP             0       ****    0 ROOT    
