@<TRIPOS>MOLECULE
ZINC34681179_271
60   63    1
SMALL
USER_CHARGES


@<TRIPOS>ATOM
      1 C1          8.9659   56.7674   13.7475 C.3       1 UNK         0.0000 
      2 C2          8.3028   57.3164   14.9972 C.ar      1 UNK         0.0000 
      3 C3          8.2079   58.6967   15.1929 C.ar      1 UNK         0.0000 
      4 C4          7.6066   59.2010   16.3448 C.ar      1 UNK         0.0000 
      5 C5          7.1081   58.3301   17.3140 C.ar      1 UNK         0.0000 
      6 C6          7.2077   56.9417   17.1313 C.ar      1 UNK         0.0000 
      7 C7          7.7970   56.4441   15.9652 C.ar      1 UNK         0.0000 
      8 N8          6.6850   56.0051   18.0370 N.am      1 UNK         0.0000 
      9 C9          6.6068   56.1180   19.3755 C.2       1 UNK         0.0000 
     10 O10         7.0977   57.0316   20.0406 O.2       1 UNK         0.0000 
     11 N11         5.9109   55.0958   19.9039 N.am      1 UNK         0.0000 
     12 C12         5.7131   54.8559   21.2715 C.ar      1 UNK         0.0000 
     13 C13         4.4837   54.3285   21.6751 C.ar      1 UNK         0.0000 
     14 C14         4.2452   54.0953   23.0308 C.ar      1 UNK         0.0000 
     15 C15         5.2455   54.3531   23.9882 C.ar      1 UNK         0.0000 
     16 N16         6.4370   54.8139   23.5328 N.pl3     1 UNK         0.0000 
     17 C17         6.7043   55.0813   22.2390 C.ar      1 UNK         0.0000 
     18 N18         5.0367   54.1762   25.4084 N.pl3     1 UNK         0.0000 
     19 C19         6.1862   53.7734   26.2431 C.3       1 UNK         0.0000 
     20 C20         6.3574   54.6450   27.4885 C.3       1 UNK         0.0000 
     21 C21         5.4743   54.2445   28.6888 C.3       1 UNK         0.0000 
     22 N22         4.0411   53.9478   28.4489 N.am      1 UNK         0.0000 
     23 C23         3.3664   54.5809   27.2990 C.3       1 UNK         0.0000 
     24 C24         3.6665   53.9687   25.9139 C.3       1 UNK         0.0000 
     25 C25         3.3799   53.2177   29.4003 C.2       1 UNK         0.0000 
     26 O26         3.9043   52.9176   30.4767 O.2       1 UNK         0.0000 
     27 C27         1.9551   52.7485   29.1915 C.ar      1 UNK         0.0000 
     28 C28         1.5440   52.1354   27.9993 C.ar      1 UNK         0.0000 
     29 C29         0.2558   51.6220   27.8721 C.ar      1 UNK         0.0000 
     30 C30        -0.6241   51.6968   28.9463 C.ar      1 UNK         0.0000 
     31 C31        -0.2265   52.2887   30.1409 C.ar      1 UNK         0.0000 
     32 C32         1.0544   52.8149   30.2632 C.ar      1 UNK         0.0000 
     33 H33         9.7524   57.4365   13.3970 H         1 UNK         0.0000 
     34 H34         9.4419   55.8066   13.9476 H         1 UNK         0.0000 
     35 H35         8.2347   56.6369   12.9494 H         1 UNK         0.0000 
     36 H36         8.5872   59.3816   14.4492 H         1 UNK         0.0000 
     37 H37         7.5069   60.2681   16.4822 H         1 UNK         0.0000 
     38 H38         6.6243   58.7477   18.1852 H         1 UNK         0.0000 
     39 H39         7.8691   55.3772   15.8086 H         1 UNK         0.0000 
     40 H40         6.4334   55.1162   17.6336 H         1 UNK         0.0000 
     41 H41         5.3572   54.5410   19.2679 H         1 UNK         0.0000 
     42 H42         3.7034   54.1274   20.9526 H         1 UNK         0.0000 
     43 H43         3.2813   53.6947   23.3033 H         1 UNK         0.0000 
     44 H44         7.6969   55.4586   22.0281 H         1 UNK         0.0000 
     45 H45         7.1008   53.7460   25.6526 H         1 UNK         0.0000 
     46 H46         6.0007   52.7428   26.5485 H         1 UNK         0.0000 
     47 H47         6.2277   55.6968   27.2407 H         1 UNK         0.0000 
     48 H48         7.3945   54.5707   27.8169 H         1 UNK         0.0000 
     49 H49         5.5298   55.0546   29.4174 H         1 UNK         0.0000 
     50 H50         5.9361   53.3638   29.1394 H         1 UNK         0.0000 
     51 H51         2.2856   54.6080   27.4471 H         1 UNK         0.0000 
     52 H52         3.6430   55.6352   27.2733 H         1 UNK         0.0000 
     53 H53         3.5510   52.8926   25.9368 H         1 UNK         0.0000 
     54 H54         2.9296   54.3602   25.2163 H         1 UNK         0.0000 
     55 H55         2.2230   52.0022   27.1782 H         1 UNK         0.0000 
     56 H56        -0.0496   51.1291   26.9605 H         1 UNK         0.0000 
     57 H57        -1.6092   51.2576   28.8649 H         1 UNK         0.0000 
     58 H58        -0.8949   52.3137   30.9881 H         1 UNK         0.0000 
     59 H59         1.3458   53.2454   31.2118 H         1 UNK         0.0000 
     60 H60         7.1706   54.9892   24.2044 H         1 UNK         0.0000 
@<TRIPOS>BOND
     1    1    2 1    
     2    1   33 1    
     3    1   34 1    
     4    1   35 1    
     5    2    7 ar   
     6    2    3 ar   
     7    3    4 ar   
     8    3   36 1    
     9    4    5 ar   
    10    4   37 1    
    11    5    6 ar   
    12    5   38 1    
    13    6    7 ar   
    14    6    8 1    
    15    7   39 1    
    16    8    9 am   BACKBONE|DICT|INTERRES
    17    8   40 1    
    18    9   10 2    
    19    9   11 am   BACKBONE|DICT|INTERRES
    20   11   12 1    
    21   11   41 1    
    22   12   17 ar   
    23   12   13 ar   
    24   13   14 ar   
    25   13   42 1    
    26   14   15 ar   
    27   14   43 1    
    28   15   16 ar   
    29   15   18 1    
    30   16   17 ar   
    31   16   60 1    
    32   17   44 1    
    33   18   24 1    
    34   18   19 1    
    35   19   20 1    
    36   19   45 1    
    37   19   46 1    
    38   20   21 1    
    39   20   47 1    
    40   20   48 1    
    41   21   22 1    
    42   21   49 1    
    43   21   50 1    
    44   22   23 1    
    45   22   25 am   BACKBONE|DICT|INTERRES
    46   23   24 1    
    47   23   51 1    
    48   23   52 1    
    49   24   53 1    
    50   24   54 1    
    51   25   26 2    
    52   25   27 1    
    53   27   32 ar   
    54   27   28 ar   
    55   28   29 ar   
    56   28   55 1    
    57   29   30 ar   
    58   29   56 1    
    59   30   31 ar   
    60   30   57 1    
    61   31   32 ar   
    62   31   58 1    
    63   32   59 1    
@<TRIPOS>SUBSTRUCTURE
     1 UNK         1 GROUP             0       ****    0 ROOT    
