@<TRIPOS>MOLECULE
ZINC21180808_5149
58   61    1
SMALL
USER_CHARGES


@<TRIPOS>ATOM
      1 C1          0.4789   51.3720   29.2028 C.3       1 UNK         0.0000 
      2 C2         -0.3127   52.4243   28.4277 C.3       1 UNK         0.0000 
      3 H3         -1.2955   52.4635   28.8959 H         1 UNK         0.0000 
      4 C4          0.2636   53.8324   28.5968 C.3       1 UNK         0.0000 
      5 C5          1.6974   53.9093   28.0471 C.3       1 UNK         0.0000 
      6 C6          1.7006   53.3684   26.6137 C.2       1 UNK         0.0000 
      7 C7          0.6746   52.5479   26.1115 C.2       1 UNK         0.0000 
      8 S8          0.8472   52.2723   24.3978 S.3       1 UNK         0.0000 
      9 C9          2.2891   53.2317   24.3624 C.ar      1 UNK         0.0000 
     10 C10         2.6375   53.6966   25.6197 C.ar      1 UNK         0.0000 
     11 C11         3.8701   54.4453   25.7782 C.ar      1 UNK         0.0000 
     12 O12         4.2716   54.8967   26.8525 O.2       1 UNK         0.0000 
     13 N13         4.5673   54.5533   24.5762 N.pl3     1 UNK         0.0000 
     14 C14         4.1193   54.0966   23.3258 C.ar      1 UNK         0.0000 
     15 N15         2.9972   53.4628   23.2261 N.2       1 UNK         0.0000 
     16 S16         5.0981   54.3618   21.8032 S.3       1 UNK         0.0000 
     17 C17         4.0834   53.6354   20.4773 C.3       1 UNK         0.0000 
     18 C18         3.9158   52.1101   20.4811 C.2       1 UNK         0.0000 
     19 O19         4.6327   51.3870   21.1781 O.2       1 UNK         0.0000 
     20 N20         2.9230   51.6778   19.6817 N.am      1 UNK         0.0000 
     21 N21         2.6840   50.3172   19.5261 N.am      1 UNK         0.0000 
     22 C22         1.4949   49.8554   19.9782 C.2       1 UNK         0.0000 
     23 O23         0.7459   50.4814   20.7371 O.2       1 UNK         0.0000 
     24 C24         1.1443   48.5301   19.5217 C.2       1 UNK         0.0000 
     25 C25         1.7827   47.7198   18.5778 C.2       1 UNK         0.0000 
     26 C26         1.0925   46.5335   18.3097 C.2       1 UNK         0.0000 
     27 C27        -0.0700   46.4114   19.0552 C.2       1 UNK         0.0000 
     28 S28        -0.3313   47.7833   20.0811 S.3       1 UNK         0.0000 
     29 C29         5.8852   55.2356   24.7123 C.3       1 UNK         0.0000 
     30 C30         7.0803   54.3217   25.0857 C.3       1 UNK         0.0000 
     31 C31         6.8837   53.5449   26.4149 C.3       1 UNK         0.0000 
     32 C32         7.5044   53.4625   23.8783 C.3       1 UNK         0.0000 
     33 C33        -0.5285   52.0721   26.9275 C.3       1 UNK         0.0000 
     34 H34         1.4096   51.0947   28.7071 H         1 UNK         0.0000 
     35 H35         0.7073   51.6981   30.2177 H         1 UNK         0.0000 
     36 H36        -0.1431   50.4967   29.2817 H         1 UNK         0.0000 
     37 H37         0.2773   54.1163   29.6506 H         1 UNK         0.0000 
     38 H38        -0.3806   54.5356   28.0817 H         1 UNK         0.0000 
     39 H39         2.0307   54.9467   28.0842 H         1 UNK         0.0000 
     40 H40         2.3959   53.3491   28.6695 H         1 UNK         0.0000 
     41 H41         3.1045   54.0966   20.5463 H         1 UNK         0.0000 
     42 H42         4.5140   53.9321   19.5212 H         1 UNK         0.0000 
     43 H43         2.5075   52.2415   18.9546 H         1 UNK         0.0000 
     44 H44         3.1892   49.9200   18.7428 H         1 UNK         0.0000 
     45 H45         2.7045   47.9808   18.0816 H         1 UNK         0.0000 
     46 H46         1.4284   45.7988   17.5929 H         1 UNK         0.0000 
     47 H47        -0.7842   45.6022   19.0402 H         1 UNK         0.0000 
     48 H48         6.1395   55.7598   23.7925 H         1 UNK         0.0000 
     49 H49         5.8197   56.0434   25.4444 H         1 UNK         0.0000 
     50 H50         7.9044   55.0004   25.2596 H         1 UNK         0.0000 
     51 H51         6.0109   52.8967   26.3848 H         1 UNK         0.0000 
     52 H52         7.7074   52.8983   26.7024 H         1 UNK         0.0000 
     53 H53         6.7439   54.2366   27.2464 H         1 UNK         0.0000 
     54 H54         6.6629   52.8967   23.4959 H         1 UNK         0.0000 
     55 H55         7.8400   54.0913   23.0528 H         1 UNK         0.0000 
     56 H56         8.3105   52.7634   24.0816 H         1 UNK         0.0000 
     57 H57        -0.6778   50.9972   26.8119 H         1 UNK         0.0000 
     58 H58        -1.4406   52.5558   26.5759 H         1 UNK         0.0000 
@<TRIPOS>BOND
     1    1    2 1    
     2    1   34 1    
     3    1   35 1    
     4    1   36 1    
     5    2    3 1    
     6    2   33 1    
     7    2    4 1    
     8    4    5 1    
     9    4   37 1    
    10    4   38 1    
    11    5    6 1    
    12    5   39 1    
    13    5   40 1    
    14    6   10 1    
    15    6    7 2    
    16    7    8 1    
    17    7   33 1    
    18    8    9 1    
    19    9   15 ar   
    20    9   10 ar   
    21   10   11 ar   
    22   11   12 2    
    23   11   13 ar   
    24   13   14 ar   
    25   13   29 1    
    26   14   15 ar   
    27   14   16 1    
    28   16   17 1    
    29   17   18 1    
    30   17   41 1    
    31   17   42 1    
    32   18   19 2    
    33   18   20 am   BACKBONE|DICT|INTERRES
    34   20   21 1    
    35   20   43 1    
    36   21   22 am   BACKBONE|DICT|INTERRES
    37   21   44 1    
    38   22   23 2    
    39   22   24 1    
    40   24   28 1    
    41   24   25 2    
    42   25   26 1    
    43   25   45 1    
    44   26   27 2    
    45   26   46 1    
    46   27   28 1    
    47   27   47 1    
    48   29   30 1    
    49   29   48 1    
    50   29   49 1    
    51   30   31 1    
    52   30   32 1    
    53   30   50 1    
    54   31   51 1    
    55   31   52 1    
    56   31   53 1    
    57   32   54 1    
    58   32   55 1    
    59   32   56 1    
    60   33   57 1    
    61   33   58 1    
@<TRIPOS>SUBSTRUCTURE
     1 UNK         1 GROUP             0       ****    0 ROOT    
