@<TRIPOS>MOLECULE
ZINC08566412_2066
56   60    1
SMALL
USER_CHARGES


@<TRIPOS>ATOM
      1 C1          0.3044   47.8604   24.7848 C.3       1 UNK         0.0000 
      2 O2          0.5530   48.7486   23.7115 O.3       1 UNK         0.0000 
      3 C3          0.1925   50.0666   23.8590 C.ar      1 UNK         0.0000 
      4 C4         -0.3921   50.5751   25.0280 C.ar      1 UNK         0.0000 
      5 C5         -0.8048   51.9004   25.0987 C.ar      1 UNK         0.0000 
      6 C6         -0.6527   52.7227   23.9788 C.ar      1 UNK         0.0000 
      7 C7         -0.0322   52.2354   22.8302 C.ar      1 UNK         0.0000 
      8 C8          0.4178   50.9107   22.7658 C.ar      1 UNK         0.0000 
      9 O9          1.1059   50.3779   21.6868 O.3       1 UNK         0.0000 
     10 C10         1.3724   51.1511   20.5127 C.3       1 UNK         0.0000 
     11 C11         2.6080   52.0512   20.6245 C.ar      1 UNK         0.0000 
     12 C12         3.2071   52.4977   19.4423 C.ar      1 UNK         0.0000 
     13 C13         4.3165   53.3374   19.4891 C.ar      1 UNK         0.0000 
     14 C14         4.8288   53.7376   20.7195 C.ar      1 UNK         0.0000 
     15 C15         4.2485   53.2936   21.9038 C.ar      1 UNK         0.0000 
     16 C16         3.1426   52.4480   21.8575 C.ar      1 UNK         0.0000 
     17 F17         5.9029   54.5573   20.7669 F         1 UNK         0.0000 
     18 C18        -1.4782   52.4073   26.3684 C.3       1 UNK         0.0000 
     19 H19        -1.6958   53.4537   26.2128 H         1 UNK         0.0000 
     20 C20        -0.6820   52.2530   27.6914 C.ar      1 UNK         0.0000 
     21 C21         0.6374   52.4993   28.2132 C.ar      1 UNK         0.0000 
     22 N22         0.7004   52.1627   29.4994 N.2       1 UNK         0.0000 
     23 N23        -0.4965   51.6969   29.8397 N.pl3     1 UNK         0.0000 
     24 H24        -0.7304   51.3651   30.7680 H         1 UNK         0.0000 
     25 C25        -1.3302   51.6967   28.7783 C.ar      1 UNK         0.0000 
     26 O26        -2.6159   51.2396   28.8826 O.3       1 UNK         0.0000 
     27 C27        -3.3166   51.2879   27.7218 C.2       1 UNK         0.0000 
     28 C28        -2.8838   51.7965   26.5439 C.2       1 UNK         0.0000 
     29 C29        -3.7628   51.8153   25.4173 C.1       1 UNK         0.0000 
     30 N30        -4.4726   51.8643   24.5049 N.1       1 UNK         0.0000 
     31 N31        -4.5387   50.7285   27.9713 N.pl3     1 UNK         0.0000 
     32 C32         1.8943   53.0728   27.5805 C.ar      1 UNK         0.0000 
     33 C33         1.9057   53.5686   26.2724 C.ar      1 UNK         0.0000 
     34 C34         3.0659   54.0927   25.7041 C.ar      1 UNK         0.0000 
     35 C35         4.2376   54.1453   26.4506 C.ar      1 UNK         0.0000 
     36 C36         4.2566   53.6726   27.7583 C.ar      1 UNK         0.0000 
     37 C37         3.0961   53.1365   28.3130 C.ar      1 UNK         0.0000 
     38 H38         0.6781   46.8918   24.4849 H         1 UNK         0.0000 
     39 H39         0.8472   48.1600   25.6823 H         1 UNK         0.0000 
     40 H40        -0.7594   47.7628   25.0084 H         1 UNK         0.0000 
     41 H41        -0.5593   49.9476   25.8921 H         1 UNK         0.0000 
     42 H42        -0.9905   53.7478   24.0040 H         1 UNK         0.0000 
     43 H43         0.1132   52.8968   21.9940 H         1 UNK         0.0000 
     44 H44         1.5539   50.4271   19.7172 H         1 UNK         0.0000 
     45 H45         0.5024   51.7262   20.1913 H         1 UNK         0.0000 
     46 H46         2.8205   52.1904   18.4809 H         1 UNK         0.0000 
     47 H47         4.7794   53.6736   18.5734 H         1 UNK         0.0000 
     48 H48         4.6588   53.6018   22.8534 H         1 UNK         0.0000 
     49 H49         2.7152   52.1106   22.7883 H         1 UNK         0.0000 
     50 H50        -5.2179   50.6482   27.2286 H         1 UNK         0.0000 
     51 H51        -4.6171   50.0693   28.7321 H         1 UNK         0.0000 
     52 H52         1.0134   53.5755   25.6817 H         1 UNK         0.0000 
     53 H53         3.0480   54.4701   24.6918 H         1 UNK         0.0000 
     54 H54         5.1364   54.5553   26.0141 H         1 UNK         0.0000 
     55 H55         5.1688   53.7116   28.3365 H         1 UNK         0.0000 
     56 H56         3.1483   52.7683   29.3268 H         1 UNK         0.0000 
@<TRIPOS>BOND
     1    1    2 1    
     2    1   38 1    
     3    1   39 1    
     4    1   40 1    
     5    2    3 1    
     6    3    8 ar   
     7    3    4 ar   
     8    4    5 ar   
     9    4   41 1    
    10    5    6 ar   
    11    5   18 1    
    12    6    7 ar   
    13    6   42 1    
    14    7    8 ar   
    15    7   43 1    
    16    8    9 1    
    17    9   10 1    
    18   10   11 1    
    19   10   44 1    
    20   10   45 1    
    21   11   16 ar   
    22   11   12 ar   
    23   12   13 ar   
    24   12   46 1    
    25   13   14 ar   
    26   13   47 1    
    27   14   15 ar   
    28   14   17 1    
    29   15   16 ar   
    30   15   48 1    
    31   16   49 1    
    32   18   19 1    
    33   18   28 1    
    34   18   20 1    
    35   20   25 ar   
    36   20   21 ar   
    37   21   22 ar   
    38   21   32 1    
    39   22   23 ar   
    40   23   24 1    
    41   23   25 ar   
    42   25   26 1    
    43   26   27 1    
    44   27   28 2    
    45   27   31 1    
    46   28   29 1    
    47   29   30 3    
    48   31   50 1    
    49   31   51 1    
    50   32   37 ar   
    51   32   33 ar   
    52   33   34 ar   
    53   33   52 1    
    54   34   35 ar   
    55   34   53 1    
    56   35   36 ar   
    57   35   54 1    
    58   36   37 ar   
    59   36   55 1    
    60   37   56 1    
@<TRIPOS>SUBSTRUCTURE
     1 UNK         1 GROUP             0       ****    0 ROOT    
