@<TRIPOS>MOLECULE
ZINC25051169_5087
56   59    1
SMALL
USER_CHARGES


@<TRIPOS>ATOM
      1 C1          3.1034   53.3927   18.5443 C.3       1 UNK         0.0000 
      2 N2          3.1724   52.3732   19.7040 N.4       1 UNK         0.0000 
      3 C3          4.6338   52.2254   20.2085 C.3       1 UNK         0.0000 
      4 C4          5.1051   53.3876   21.0593 C.2       1 UNK         0.0000 
      5 C5          5.9043   54.4967   20.8142 C.2       1 UNK         0.0000 
      6 C6          6.2257   55.0358   22.0606 C.2       1 UNK         0.0000 
      7 C7          5.4935   54.3299   23.0082 C.2       1 UNK         0.0000 
      8 O8          4.8229   53.3243   22.3869 O.3       1 UNK         0.0000 
      9 C9          5.3438   54.4337   24.4864 C.ar      1 UNK         0.0000 
     10 C10         6.4186   54.8474   25.2791 C.ar      1 UNK         0.0000 
     11 C11         6.2869   54.8741   26.6674 C.ar      1 UNK         0.0000 
     12 C12         5.0813   54.4966   27.2559 C.ar      1 UNK         0.0000 
     13 C13         3.9971   54.1191   26.4678 C.ar      1 UNK         0.0000 
     14 C14         4.1254   54.0944   25.0838 C.ar      1 UNK         0.0000 
     15 Br15        4.9061   54.5068   29.1497 Br        1 UNK         0.0000 
     16 C16         2.1545   52.7168   20.7669 C.3       1 UNK         0.0000 
     17 C17         1.8890   51.5458   21.7247 C.2       1 UNK         0.0000 
     18 O18         2.3919   50.4412   21.5166 O.2       1 UNK         0.0000 
     19 N19         1.0346   51.8440   22.7319 N.am      1 UNK         0.0000 
     20 C20         0.4811   50.9941   23.7095 C.ar      1 UNK         0.0000 
     21 C21         0.9379   49.6955   23.9608 C.ar      1 UNK         0.0000 
     22 C22         0.3248   48.9052   24.9260 C.ar      1 UNK         0.0000 
     23 C23        -0.7272   49.4101   25.6748 C.ar      1 UNK         0.0000 
     24 C24        -1.2055   50.7137   25.4629 C.ar      1 UNK         0.0000 
     25 C25        -0.5837   51.4959   24.4704 C.ar      1 UNK         0.0000 
     26 C26        -2.3612   51.2664   26.2733 C.2       1 UNK         0.0000 
     27 O27        -2.8631   52.3583   25.9954 O.2       1 UNK         0.0000 
     28 N28        -2.8001   50.4985   27.2888 N.am      1 UNK         0.0000 
     29 C29        -3.8656   50.8505   28.2096 C.3       1 UNK         0.0000 
     30 C30        -5.2981   50.6598   27.7669 C.3       1 UNK         0.0000 
     31 C31        -4.6889   49.7288   28.7939 C.3       1 UNK         0.0000 
     32 H32         3.4104   54.3687   18.9242 H         1 UNK         0.0000 
     33 H33         3.7823   53.0416   17.7620 H         1 UNK         0.0000 
     34 H34         2.0780   53.4189   18.1689 H         1 UNK         0.0000 
     35 H35         4.6726   51.2697   20.7287 H         1 UNK         0.0000 
     36 H36         5.2287   52.0985   19.3043 H         1 UNK         0.0000 
     37 H37         6.2934   54.8127   19.8574 H         1 UNK         0.0000 
     38 H38         6.8839   55.8697   22.2558 H         1 UNK         0.0000 
     39 H39         7.3604   55.1141   24.8192 H         1 UNK         0.0000 
     40 H40         7.1097   55.1771   27.2972 H         1 UNK         0.0000 
     41 H41         3.0625   53.8371   26.9337 H         1 UNK         0.0000 
     42 H42         3.2858   53.7803   24.4805 H         1 UNK         0.0000 
     43 H43         1.2287   52.9017   20.2221 H         1 UNK         0.0000 
     44 H44         2.4612   53.6292   21.2811 H         1 UNK         0.0000 
     45 H45         0.6898   52.7910   22.7505 H         1 UNK         0.0000 
     46 H46         1.7757   49.2695   23.4382 H         1 UNK         0.0000 
     47 H47         0.6932   47.9083   25.1183 H         1 UNK         0.0000 
     48 H48        -1.1547   48.7583   26.4208 H         1 UNK         0.0000 
     49 H49        -0.9433   52.5026   24.2871 H         1 UNK         0.0000 
     50 H50        -2.1978   49.7401   27.6113 H         1 UNK         0.0000 
     51 H51        -3.6282   51.6975   28.8562 H         1 UNK         0.0000 
     52 H52        -5.4840   50.2943   26.7568 H         1 UNK         0.0000 
     53 H53        -6.0430   51.3908   28.0843 H         1 UNK         0.0000 
     54 H54        -4.9794   49.8049   29.8411 H         1 UNK         0.0000 
     55 H55        -4.4289   48.7054   28.5162 H         1 UNK         0.0000 
     56 H56         2.9290   51.4722   19.3039 H         1 UNK         0.0000 
@<TRIPOS>BOND
     1    1    2 1    
     2    1   32 1    
     3    1   33 1    
     4    1   34 1    
     5    2    3 1    
     6    2   16 1    
     7    2   56 1    
     8    3    4 1    
     9    3   35 1    
    10    3   36 1    
    11    4    8 1    
    12    4    5 2    
    13    5    6 1    
    14    5   37 1    
    15    6    7 2    
    16    6   38 1    
    17    7    8 1    
    18    7    9 1    
    19    9   14 ar   
    20    9   10 ar   
    21   10   11 ar   
    22   10   39 1    
    23   11   12 ar   
    24   11   40 1    
    25   12   13 ar   
    26   12   15 1    
    27   13   14 ar   
    28   13   41 1    
    29   14   42 1    
    30   16   17 1    
    31   16   43 1    
    32   16   44 1    
    33   17   18 2    
    34   17   19 am   BACKBONE|DICT|INTERRES
    35   19   20 1    
    36   19   45 1    
    37   20   25 ar   
    38   20   21 ar   
    39   21   22 ar   
    40   21   46 1    
    41   22   23 ar   
    42   22   47 1    
    43   23   24 ar   
    44   23   48 1    
    45   24   25 ar   
    46   24   26 1    
    47   25   49 1    
    48   26   27 2    
    49   26   28 am   BACKBONE|DICT|INTERRES
    50   28   29 1    
    51   28   50 1    
    52   29   31 1    
    53   29   30 1    
    54   29   51 1    
    55   30   31 1    
    56   30   52 1    
    57   30   53 1    
    58   31   54 1    
    59   31   55 1    
@<TRIPOS>SUBSTRUCTURE
     1 UNK         1 GROUP             0       ****    0 ROOT    
