ZINC64794618_4360
                    3D
 Schrodinger Suite 2024-2.
 50 54  0  0  1  0            999 V2000
    6.2491   54.4954   23.1722 C   0  0  0  0  0  0
    5.0629   53.8870   22.7568 C   0  0  0  0  0  0
    4.0049   53.7621   23.6834 C   0  0  0  0  0  0
    2.7020   53.1806   23.5744 C   0  0  0  0  0  0
    1.9503   53.2267   24.7520 C   0  0  0  0  0  0
    2.8296   54.0864   26.0115 S   0  0  0  0  0  0
    4.2293   54.2861   24.9854 C   0  0  0  0  0  0
    5.3541   54.8762   25.3993 N   0  0  0  0  0  0
    6.3472   54.9647   24.4797 C   0  0  0  0  0  0
    0.5325   52.7859   24.8975 C   0  0  0  0  0  0
   -0.3380   53.2016   24.0091 N   0  0  0  0  0  0
   -1.5295   52.5319   24.2051 N   0  0  0  0  0  0
   -1.3638   51.7537   25.2383 C   0  0  0  0  0  0
   -0.0953   51.9004   25.7831 N   0  0  0  0  0  0
    0.4014   51.1625   26.9641 C   0  0  0  0  0  0
    0.9221   52.0660   28.1062 C   0  0  1  0  0  0
    1.8041   52.5826   27.7648 H   0  0  0  0  0  0
   -0.1044   53.0192   28.7103 C   0  0  0  0  0  0
    0.4025   53.3136   30.1033 C   0  0  0  0  0  0
    1.4182   52.2012   30.3634 C   0  0  0  0  0  0
    1.3178   51.3098   29.2463 O   0  0  0  0  0  0
   -2.6120   50.6216   25.7610 S   0  0  0  0  0  0
   -3.3629   51.6553   27.0494 C   0  0  0  0  0  0
   -4.7212   52.1912   26.6188 C   0  0  0  0  0  0
   -4.7964   53.1853   25.6358 C   0  0  0  0  0  0
   -6.0339   53.6971   25.2475 C   0  0  0  0  0  0
   -7.2024   53.2293   25.8441 C   0  0  0  0  0  0
   -7.1350   52.2439   26.8265 C   0  0  0  0  0  0
   -5.9004   51.7231   27.2131 C   0  0  0  0  0  0
   -5.8569   50.7744   28.1758 F   0  0  0  0  0  0
   -8.3997   53.7336   25.4729 F   0  0  0  0  0  0
    2.2393   52.6142   22.4140 N   0  0  0  0  0  0
    7.0827   54.6066   22.4928 H   0  0  0  0  0  0
    4.9622   53.5145   21.7482 H   0  0  0  0  0  0
    7.2572   55.4411   24.8113 H   0  0  0  0  0  0
   -0.4196   50.5758   27.3779 H   0  0  0  0  0  0
    1.1060   50.4067   26.6388 H   0  0  0  0  0  0
   -0.2917   53.8933   28.0867 H   0  0  0  0  0  0
   -1.0591   52.4977   28.7708 H   0  0  0  0  0  0
    0.8752   54.2949   30.1573 H   0  0  0  0  0  0
   -0.4111   53.2909   30.8309 H   0  0  0  0  0  0
    2.4367   52.5900   30.4149 H   0  0  0  0  0  0
    1.2330   51.6969   31.3108 H   0  0  0  0  0  0
   -3.4346   51.0600   27.9614 H   0  0  0  0  0  0
   -2.7136   52.4948   27.2814 H   0  0  0  0  0  0
   -3.8977   53.5588   25.1668 H   0  0  0  0  0  0
   -6.0910   54.4497   24.4759 H   0  0  0  0  0  0
   -8.0403   51.8807   27.2879 H   0  0  0  0  0  0
    1.3066   52.2269   22.3639 H   0  0  0  0  0  0
    2.7623   52.6341   21.5496 H   0  0  0  0  0  0
  1  9  2  0  0  0
  1  2  1  0  0  0
  1 33  1  0  0  0
  2  3  2  0  0  0
  2 34  1  0  0  0
  3  7  1  0  0  0
  3  4  1  0  0  0
  4  5  2  0  0  0
  4 32  1  0  0  0
  5  6  1  0  0  0
  5 10  1  0  0  0
  6  7  1  0  0  0
  7  8  2  0  0  0
  8  9  1  0  0  0
  9 35  1  0  0  0
 10 14  1  0  0  0
 10 11  2  0  0  0
 11 12  1  0  0  0
 12 13  2  0  0  0
 13 14  1  0  0  0
 13 22  1  0  0  0
 14 15  1  0  0  0
 15 16  1  0  0  0
 15 36  1  0  0  0
 15 37  1  0  0  0
 16 17  1  0  0  0
 16 21  1  0  0  0
 16 18  1  0  0  0
 18 19  1  0  0  0
 18 38  1  0  0  0
 18 39  1  0  0  0
 19 20  1  0  0  0
 19 40  1  0  0  0
 19 41  1  0  0  0
 20 21  1  0  0  0
 20 42  1  0  0  0
 20 43  1  0  0  0
 22 23  1  0  0  0
 23 24  1  0  0  0
 23 44  1  0  0  0
 23 45  1  0  0  0
 24 29  2  0  0  0
 24 25  1  0  0  0
 25 26  2  0  0  0
 25 46  1  0  0  0
 26 27  1  0  0  0
 26 47  1  0  0  0
 27 28  2  0  0  0
 27 31  1  0  0  0
 28 29  1  0  0  0
 28 48  1  0  0  0
 29 30  1  0  0  0
 32 49  1  0  0  0
 32 50  1  0  0  0
M  END
> <i_i_glide_confnum>
216

> <i_i_glide_lignum>
4361

> <i_i_glide_posenum>
175

> <i_i_glide_rotatable_bonds>
6

> <i_m_Source_File_Index>
3559

> <b_m_subgroup_collapsed>
0

> <r_i_docking_score>
-4.41767

> <r_i_glide_ecoul>
-0.259775

> <r_i_glide_eff_state_penalty>
0

> <r_i_glide_einternal>
3.94007

> <r_i_glide_emodel>
-48.8933

> <r_i_glide_energy>
-38.4431

> <r_i_glide_erotb>
0.571699

> <r_i_glide_esite>
-0.0175525

> <r_i_glide_evdw>
-38.1833

> <r_i_glide_gscore>
-4.41767

> <r_i_glide_hbond>
-0.00568575

> <r_i_glide_ligand_efficiency>
-0.142505

> <r_i_glide_ligand_efficiency_ln>
-0.99632

> <r_i_glide_ligand_efficiency_sa>
-0.447664

> <r_i_glide_lipo>
-2.48195

> <r_i_glide_metal>
0

> <r_i_glide_rewards>
-0.536045

> <s_i_glide_gridfile>
wee1_glide-grid

> <s_m_Source_File>
wee1_decoys_glide_SP.sdf

> <s_m_Source_Path>
/Users/zhangxujun/Desktop

> <s_m_entry_id>
3834

> <s_m_entry_name>
wee1_decoys_glide_SP.3559

> <s_m_subgroup_title>
wee1_decoys_glide_SP

> <s_m_subgroupid>
wee1_decoys_glide_SP


$$$$
