ZINC14982919_4875
                    3D
 Schrodinger Suite 2024-2.
 71 74  0  0  1  0            999 V2000
    2.4838   54.6467   28.3070 C   0  0  0  0  0  0
    2.6413   53.2487   28.9544 C   0  0  0  0  0  0
    1.6766   52.2119   28.3180 C   0  0  0  0  0  0
    0.1837   52.4993   28.6110 C   0  0  2  0  0  0
   -0.1598   53.4399   28.1786 H   0  0  0  0  0  0
    0.0176   52.6490   30.1351 C   0  0  0  0  0  0
    1.0241   53.6314   30.7568 C   0  0  0  0  0  0
    2.3621   53.2994   30.3634 O   0  0  0  0  0  0
   -0.9054   50.9987   26.6473 C   0  0  0  0  0  0
   -0.8435   52.2794   25.7803 C   0  0  0  0  0  0
   -0.6455   51.9843   24.2838 C   0  0  0  0  0  0
    0.5891   51.2048   24.1062 N   0  0  0  0  0  0
    0.3982   49.8666   24.6856 C   0  0  0  0  0  0
    0.1483   49.9474   26.2110 C   0  0  0  0  0  0
    1.4979   51.5119   23.0980 C   0  0  0  0  0  0
    1.9218   52.8380   22.9445 C   0  0  0  0  0  0
    2.8452   53.1821   21.9623 C   0  0  0  0  0  0
    3.3602   52.2042   21.1019 C   0  0  0  0  0  0
    2.9301   50.8822   21.2366 C   0  0  0  0  0  0
    2.0165   50.5354   22.2338 C   0  0  0  0  0  0
    4.2502   52.4873   20.0491 N   0  0  0  0  0  0
    5.0751   53.5495   19.9239 C   0  0  0  0  0  0
    5.2833   54.3697   20.8191 O   0  0  0  0  0  0
    5.7900   53.6688   18.5652 C   0  0  0  0  0  0
    6.6764   54.9089   18.4383 C   0  0  0  0  0  0
    8.0634   54.7840   18.5259 C   0  0  0  0  0  0
    8.8698   55.9166   18.4692 C   0  0  0  0  0  0
    8.2980   57.1885   18.3133 C   0  0  0  0  0  0
    6.9122   57.3036   18.2077 C   0  0  0  0  0  0
    6.1006   56.1727   18.2708 C   0  0  0  0  0  0
    9.0241   58.3639   18.2596 O   0  0  0  0  0  0
   10.4369   58.3080   18.4327 C   0  0  0  0  0  0
    4.0840   52.7209   28.8586 C   0  0  0  0  0  0
    2.8053   54.6308   27.2661 H   0  0  0  0  0  0
    1.4608   55.0195   28.3229 H   0  0  0  0  0  0
    3.0984   55.3822   28.8245 H   0  0  0  0  0  0
    1.9055   51.2264   28.7289 H   0  0  0  0  0  0
    1.8637   52.1155   27.2492 H   0  0  0  0  0  0
   -1.0048   52.8930   30.4012 H   0  0  0  0  0  0
    0.1886   51.6965   30.6235 H   0  0  0  0  0  0
    0.7737   54.6533   30.4713 H   0  0  0  0  0  0
    0.9561   53.5873   31.8440 H   0  0  0  0  0  0
   -1.8683   50.5042   26.4965 H   0  0  0  0  0  0
    0.0151   52.8936   26.0495 H   0  0  0  0  0  0
   -1.7114   52.9112   25.9717 H   0  0  0  0  0  0
   -0.6132   52.9272   23.7340 H   0  0  0  0  0  0
   -1.4932   51.4201   23.8873 H   0  0  0  0  0  0
   -0.4129   49.3398   24.1760 H   0  0  0  0  0  0
    1.3067   49.2831   24.5362 H   0  0  0  0  0  0
   -0.0956   48.9621   26.6135 H   0  0  0  0  0  0
    1.1059   50.1527   26.6684 H   0  0  0  0  0  0
    1.5457   53.6117   23.5971 H   0  0  0  0  0  0
    3.1171   54.2217   21.8644 H   0  0  0  0  0  0
    3.2972   50.1153   20.5697 H   0  0  0  0  0  0
    1.7037   49.5073   22.3171 H   0  0  0  0  0  0
    4.3166   51.7871   19.3208 H   0  0  0  0  0  0
    5.0341   53.6957   17.7791 H   0  0  0  0  0  0
    6.3736   52.7622   18.3966 H   0  0  0  0  0  0
    8.5232   53.8142   18.6475 H   0  0  0  0  0  0
    9.9366   55.7835   18.5505 H   0  0  0  0  0  0
    6.4630   58.2789   18.0841 H   0  0  0  0  0  0
    5.0276   56.2794   18.2080 H   0  0  0  0  0  0
   10.8472   59.3159   18.3812 H   0  0  0  0  0  0
   10.9161   57.7180   17.6490 H   0  0  0  0  0  0
   10.7065   57.8945   19.4065 H   0  0  0  0  0  0
    4.3861   52.5696   27.8221 H   0  0  0  0  0  0
    4.7897   53.4214   29.3024 H   0  0  0  0  0  0
    4.2009   51.7713   29.3820 H   0  0  0  0  0  0
   -0.7153   51.3188   28.1515 N   0  3  0  0  0  0
   -1.6240   51.4046   28.5876 H   0  0  0  0  0  0
   -0.3601   50.4694   28.5737 H   0  0  0  0  0  0
  1  2  1  0  0  0
  1 34  1  0  0  0
  1 35  1  0  0  0
  1 36  1  0  0  0
  2  8  1  0  0  0
  2  3  1  0  0  0
  2 33  1  0  0  0
  3  4  1  0  0  0
  3 37  1  0  0  0
  3 38  1  0  0  0
  4  5  1  0  0  0
  4  6  1  0  0  0
  4 69  1  0  0  0
  6  7  1  0  0  0
  6 39  1  0  0  0
  6 40  1  0  0  0
  7  8  1  0  0  0
  7 41  1  0  0  0
  7 42  1  0  0  0
  9 14  1  0  0  0
  9 10  1  0  0  0
  9 43  1  0  0  0
  9 69  1  0  0  0
 10 11  1  0  0  0
 10 44  1  0  0  0
 10 45  1  0  0  0
 11 12  1  0  0  0
 11 46  1  0  0  0
 11 47  1  0  0  0
 12 13  1  0  0  0
 12 15  1  0  0  0
 13 14  1  0  0  0
 13 48  1  0  0  0
 13 49  1  0  0  0
 14 50  1  0  0  0
 14 51  1  0  0  0
 15 20  2  0  0  0
 15 16  1  0  0  0
 16 17  2  0  0  0
 16 52  1  0  0  0
 17 18  1  0  0  0
 17 53  1  0  0  0
 18 19  2  0  0  0
 18 21  1  0  0  0
 19 20  1  0  0  0
 19 54  1  0  0  0
 20 55  1  0  0  0
 21 22  1  0  0  0
 21 56  1  0  0  0
 22 23  2  0  0  0
 22 24  1  0  0  0
 24 25  1  0  0  0
 24 57  1  0  0  0
 24 58  1  0  0  0
 25 30  2  0  0  0
 25 26  1  0  0  0
 26 27  2  0  0  0
 26 59  1  0  0  0
 27 28  1  0  0  0
 27 60  1  0  0  0
 28 29  2  0  0  0
 28 31  1  0  0  0
 29 30  1  0  0  0
 29 61  1  0  0  0
 30 62  1  0  0  0
 31 32  1  0  0  0
 32 63  1  0  0  0
 32 64  1  0  0  0
 32 65  1  0  0  0
 33 66  1  0  0  0
 33 67  1  0  0  0
 33 68  1  0  0  0
 69 70  1  0  0  0
 69 71  1  0  0  0
M  CHG  1  69   1
M  END
> <i_i_glide_confnum>
253

> <i_i_glide_lignum>
4876

> <i_i_glide_posenum>
306

> <i_i_glide_rotatable_bonds>
8

> <i_m_Source_File_Index>
5416

> <b_m_subgroup_collapsed>
0

> <r_i_docking_score>
-4.9531

> <r_i_glide_ecoul>
-6.25042

> <r_i_glide_eff_state_penalty>
0

> <r_i_glide_einternal>
10.9693

> <r_i_glide_emodel>
-56.7574

> <r_i_glide_energy>
-45.6613

> <r_i_glide_erotb>
0.685683

> <r_i_glide_esite>
-0.161775

> <r_i_glide_evdw>
-39.4109

> <r_i_glide_gscore>
-4.9531

> <r_i_glide_hbond>
-0.434332

> <r_i_glide_ligand_efficiency>
-0.150094

> <r_i_glide_ligand_efficiency_ln>
-1.10154

> <r_i_glide_ligand_efficiency_sa>
-0.481431

> <r_i_glide_lipo>
-1.73881

> <r_i_glide_metal>
0

> <r_i_glide_rewards>
-0.395757

> <s_i_glide_gridfile>
wee1_glide-grid

> <s_m_Source_File>
wee1_decoys_glide_SP.sdf

> <s_m_Source_Path>
/Users/zhangxujun/Desktop

> <s_m_entry_id>
5691

> <s_m_entry_name>
wee1_decoys_glide_SP.5416

> <s_m_subgroup_title>
wee1_decoys_glide_SP

> <s_m_subgroupid>
wee1_decoys_glide_SP


$$$$
