ZINC12329549_2138
                    3D
 Schrodinger Suite 2024-2.
 62 65  0  0  1  0            999 V2000
   -5.0029   46.6226   20.7664 C   0  0  0  0  0  0
   -4.2880   45.3954   21.3545 C   0  0  0  0  0  0
   -4.1606   45.4815   22.7739 O   0  0  0  0  0  0
   -3.2561   46.3572   23.3467 C   0  0  0  0  0  0
   -3.3283   46.4962   24.7311 C   0  0  0  0  0  0
   -2.4339   47.3205   25.4050 C   0  0  0  0  0  0
   -1.4571   48.0272   24.7009 C   0  0  0  0  0  0
   -1.3906   47.9033   23.3093 C   0  0  0  0  0  0
   -2.2773   47.0673   22.6372 C   0  0  0  0  0  0
   -0.4785   48.9067   25.4811 C   0  0  2  0  0  0
   -0.1893   48.3370   26.3644 H   0  0  0  0  0  0
   -1.1179   50.2474   25.9336 C   0  0  0  0  0  0
   -0.8968   52.3734   27.3153 C   0  0  0  0  0  0
   -0.2498   53.0036   28.5737 C   0  0  0  0  0  0
    1.2923   52.9370   28.5669 C   0  0  2  0  0  0
    1.6448   51.4361   28.4702 C   0  0  0  0  0  0
    1.1041   50.8124   27.1783 C   0  0  0  0  0  0
    1.8885   53.6835   29.7913 C   0  0  0  0  0  0
    3.4270   53.6655   29.7964 C   0  0  2  0  0  0
    3.7909   54.4342   30.4790 H   0  0  0  0  0  0
    3.9501   53.9754   28.3974 C   0  0  0  0  0  0
    5.2919   54.3029   28.1696 C   0  0  0  0  0  0
    5.7743   54.4966   26.8764 C   0  0  0  0  0  0
    4.9349   54.3664   25.7705 C   0  0  0  0  0  0
    3.5843   54.0473   25.9844 C   0  0  0  0  0  0
    3.1036   53.8425   27.2780 C   0  0  0  0  0  0
    1.7395   53.6166   27.3827 O   0  0  0  0  0  0
    5.5081   54.5686   24.5309 O   0  0  0  0  0  0
    4.7462   54.2915   23.3606 C   0  0  0  0  0  0
    3.9046   52.4424   30.3198 O   0  0  0  0  0  0
    0.7043   49.1888   24.7518 O   0  0  0  0  0  0
   -5.1343   46.5174   19.6876 H   0  0  0  0  0  0
   -4.4510   47.5460   20.9403 H   0  0  0  0  0  0
   -5.9925   46.7459   21.2098 H   0  0  0  0  0  0
   -4.8850   44.5086   21.1406 H   0  0  0  0  0  0
   -3.3228   45.2231   20.8737 H   0  0  0  0  0  0
   -4.0847   45.9647   25.2900 H   0  0  0  0  0  0
   -2.4966   47.4077   26.4810 H   0  0  0  0  0  0
   -0.6459   48.4414   22.7410 H   0  0  0  0  0  0
   -2.1798   46.9783   21.5671 H   0  0  0  0  0  0
   -1.1056   50.9831   25.1295 H   0  0  0  0  0  0
   -2.1421   50.0984   26.2767 H   0  0  0  0  0  0
   -0.6103   52.8913   26.3981 H   0  0  0  0  0  0
   -1.9847   52.3451   27.4027 H   0  0  0  0  0  0
   -0.5297   54.0546   28.6334 H   0  0  0  0  0  0
   -0.6507   52.5360   29.4743 H   0  0  0  0  0  0
    1.2637   50.8975   29.3347 H   0  0  0  0  0  0
    2.7221   51.2947   28.4716 H   0  0  0  0  0  0
    1.3880   49.7621   27.1559 H   0  0  0  0  0  0
    1.4474   51.3161   26.2754 H   0  0  0  0  0  0
    1.5747   54.7281   29.7433 H   0  0  0  0  0  0
    1.4816   53.3182   30.7365 H   0  0  0  0  0  0
    5.9764   54.4059   28.9989 H   0  0  0  0  0  0
    6.8161   54.7415   26.7302 H   0  0  0  0  0  0
    2.8950   53.9536   25.1605 H   0  0  0  0  0  0
    5.3476   54.5064   22.4769 H   0  0  0  0  0  0
    4.4619   53.2412   23.3122 H   0  0  0  0  0  0
    3.8414   54.8976   23.2983 H   0  0  0  0  0  0
    4.8519   52.4039   30.1645 H   0  0  0  0  0  0
    1.2797   48.4139   24.7658 H   0  0  0  0  0  0
   -0.4380   50.8981   27.1776 N   0  3  2  0  0  0
   -0.7628   50.3718   27.9852 H   0  0  0  0  0  0
  1  2  1  0  0  0
  1 32  1  0  0  0
  1 33  1  0  0  0
  1 34  1  0  0  0
  2  3  1  0  0  0
  2 35  1  0  0  0
  2 36  1  0  0  0
  3  4  1  0  0  0
  4  9  2  0  0  0
  4  5  1  0  0  0
  5  6  2  0  0  0
  5 37  1  0  0  0
  6  7  1  0  0  0
  6 38  1  0  0  0
  7  8  2  0  0  0
  7 10  1  0  0  0
  8  9  1  0  0  0
  8 39  1  0  0  0
  9 40  1  0  0  0
 10 11  1  0  0  0
 10 12  1  0  0  0
 10 31  1  0  0  0
 12 41  1  0  0  0
 12 42  1  0  0  0
 12 61  1  0  0  0
 13 14  1  0  0  0
 13 43  1  0  0  0
 13 44  1  0  0  0
 13 61  1  0  0  0
 14 15  1  0  0  0
 14 45  1  0  0  0
 14 46  1  0  0  0
 15 27  1  0  0  0
 15 16  1  0  0  0
 15 18  1  0  0  0
 16 17  1  0  0  0
 16 47  1  0  0  0
 16 48  1  0  0  0
 17 49  1  0  0  0
 17 50  1  0  0  0
 17 61  1  0  0  0
 18 19  1  0  0  0
 18 51  1  0  0  0
 18 52  1  0  0  0
 19 20  1  0  0  0
 19 21  1  0  0  0
 19 30  1  0  0  0
 21 26  2  0  0  0
 21 22  1  0  0  0
 22 23  2  0  0  0
 22 53  1  0  0  0
 23 24  1  0  0  0
 23 54  1  0  0  0
 24 25  2  0  0  0
 24 28  1  0  0  0
 25 26  1  0  0  0
 25 55  1  0  0  0
 26 27  1  0  0  0
 28 29  1  0  0  0
 29 56  1  0  0  0
 29 57  1  0  0  0
 29 58  1  0  0  0
 30 59  1  0  0  0
 31 60  1  0  0  0
 61 62  1  0  0  0
M  CHG  1  61   1
M  END
> <i_i_glide_confnum>
74

> <i_i_glide_lignum>
2139

> <i_i_glide_posenum>
398

> <i_i_glide_rotatable_bonds>
8

> <i_m_Source_File_Index>
3563

> <b_m_subgroup_collapsed>
0

> <r_i_docking_score>
-5.28083

> <r_i_glide_ecoul>
-4.37083

> <r_i_glide_eff_state_penalty>
0

> <r_i_glide_einternal>
7.27273

> <r_i_glide_emodel>
-50.9978

> <r_i_glide_energy>
-39.3749

> <r_i_glide_erotb>
0.459503

> <r_i_glide_esite>
-0.0797265

> <r_i_glide_evdw>
-35.0041

> <r_i_glide_gscore>
-5.28083

> <r_i_glide_hbond>
-0.42699

> <r_i_glide_ligand_efficiency>
-0.176028

> <r_i_glide_ligand_efficiency_ln>
-1.19986

> <r_i_glide_ligand_efficiency_sa>
-0.546959

> <r_i_glide_lipo>
-2.18267

> <r_i_glide_metal>
0

> <r_i_glide_rewards>
-0.645128

> <s_i_glide_gridfile>
wee1_glide-grid

> <s_m_Source_File>
wee1_decoys_glide_SP.sdf

> <s_m_Source_Path>
/Users/zhangxujun/Desktop

> <s_m_entry_id>
3838

> <s_m_entry_name>
wee1_decoys_glide_SP.3563

> <s_m_subgroup_title>
wee1_decoys_glide_SP

> <s_m_subgroupid>
wee1_decoys_glide_SP


$$$$
