@<TRIPOS>MOLECULE
ZINC11730600_963
43   46    1
SMALL
USER_CHARGES


@<TRIPOS>ATOM
      1 C1          3.0613   54.0580   24.2414 C.ar      1 UNK         0.0000 
      2 C2          3.7873   54.0969   25.4297 C.ar      1 UNK         0.0000 
      3 C3          5.1693   54.3381   25.4186 C.ar      1 UNK         0.0000 
      4 C4          5.8135   54.5003   24.1805 C.ar      1 UNK         0.0000 
      5 C5          5.0901   54.4744   22.9789 C.ar      1 UNK         0.0000 
      6 C6          3.7054   54.2564   23.0233 C.ar      1 UNK         0.0000 
      7 N7          5.7373   54.7384   21.7424 N.pl3     1 UNK         0.0000 
      8 C8          5.5005   54.2093   20.4816 C.ar      1 UNK         0.0000 
      9 C9          6.3825   54.9286   19.6637 C.ar      1 UNK         0.0000 
     10 N10         7.0890   55.7877   20.3712 N.2       1 UNK         0.0000 
     11 N11         6.7038   55.6712   21.6853 N.2       1 UNK         0.0000 
     12 S12         6.6547   54.8054   17.8727 S.o2      1 UNK         0.0000 
     13 O13         7.9622   55.4101   17.5920 O.2       1 UNK         0.0000 
     14 O14         6.3525   53.4262   17.4772 O.2       1 UNK         0.0000 
     15 C15         5.4162   55.8834   17.1595 C.ar      1 UNK         0.0000 
     16 C16         4.4078   55.3558   16.3492 C.ar      1 UNK         0.0000 
     17 C17         3.4379   56.2015   15.8180 C.ar      1 UNK         0.0000 
     18 C18         3.4882   57.5675   16.0854 C.ar      1 UNK         0.0000 
     19 C19         4.5029   58.0977   16.8788 C.ar      1 UNK         0.0000 
     20 C20         5.4712   57.2550   17.4189 C.ar      1 UNK         0.0000 
     21 F21         2.5445   58.3833   15.5653 F         1 UNK         0.0000 
     22 C22         4.5115   53.1292   20.1799 C.ar      1 UNK         0.0000 
     23 C23         4.4896   51.9610   20.9482 C.ar      1 UNK         0.0000 
     24 C24         3.5259   50.9851   20.7106 C.ar      1 UNK         0.0000 
     25 C25         2.6045   51.1592   19.6826 C.ar      1 UNK         0.0000 
     26 C26         2.6295   52.3108   18.8999 C.ar      1 UNK         0.0000 
     27 C27         3.5789   53.2970   19.1549 C.ar      1 UNK         0.0000 
     28 Br28        1.3026   49.8115   19.3516 Br        1 UNK         0.0000 
     29 C29         5.9374   54.4486   26.6998 C.2       1 UNK         0.0000 
     30 O30         5.3657   54.1130   27.7627 O.co2     1 UNK         0.0000 
     31 H31         1.9946   53.8912   24.2664 H         1 UNK         0.0000 
     32 H32         3.2643   53.9567   26.3658 H         1 UNK         0.0000 
     33 H33         6.8806   54.6840   24.1549 H         1 UNK         0.0000 
     34 H34         3.1092   54.2653   22.1215 H         1 UNK         0.0000 
     35 H35         4.3686   54.2960   16.1385 H         1 UNK         0.0000 
     36 H36         2.6496   55.8033   15.1972 H         1 UNK         0.0000 
     37 H37         4.5367   59.1627   17.0669 H         1 UNK         0.0000 
     38 H38         6.2586   57.6664   18.0348 H         1 UNK         0.0000 
     39 H39         5.2052   51.8173   21.7445 H         1 UNK         0.0000 
     40 H40         3.5033   50.0900   21.3122 H         1 UNK         0.0000 
     41 H41         1.9105   52.4430   18.1057 H         1 UNK         0.0000 
     42 H42         3.5674   54.2049   18.5754 H         1 UNK         0.0000 
     43 O43         7.1044   54.8967   26.6303 O.co2     1 UNK         0.0000 
@<TRIPOS>BOND
     1    1    6 ar   
     2    1    2 ar   
     3    1   31 1    
     4    2    3 ar   
     5    2   32 1    
     6    3    4 ar   
     7    3   29 1    
     8    4    5 ar   
     9    4   33 1    
    10    5    6 ar   
    11    5    7 1    
    12    6   34 1    
    13    7   11 ar   
    14    7    8 ar   
    15    8    9 ar   
    16    8   22 1    
    17    9   10 ar   
    18    9   12 1    
    19   10   11 ar   
    20   12   13 2    
    21   12   14 2    
    22   12   15 1    
    23   15   20 ar   
    24   15   16 ar   
    25   16   17 ar   
    26   16   35 1    
    27   17   18 ar   
    28   17   36 1    
    29   18   19 ar   
    30   18   21 1    
    31   19   20 ar   
    32   19   37 1    
    33   20   38 1    
    34   22   27 ar   
    35   22   23 ar   
    36   23   24 ar   
    37   23   39 1    
    38   24   25 ar   
    39   24   40 1    
    40   25   26 ar   
    41   25   28 1    
    42   26   27 ar   
    43   26   41 1    
    44   27   42 1    
    45   29   30 2    
    46   29   43 1    
@<TRIPOS>SUBSTRUCTURE
     1 UNK         1 GROUP             0       ****    0 ROOT    
