@<TRIPOS>MOLECULE
ZINC35729464_5398
50   54    1
SMALL
USER_CHARGES


@<TRIPOS>ATOM
      1 C1          7.6658   58.8969   18.0997 C.ar      1 UNK         0.0000 
      2 C2          6.5659   58.0605   17.9067 C.ar      1 UNK         0.0000 
      3 C3          6.7606   56.7239   17.5260 C.ar      1 UNK         0.0000 
      4 C4          8.0622   56.2480   17.3459 C.ar      1 UNK         0.0000 
      5 C5          9.1572   57.0924   17.5262 C.ar      1 UNK         0.0000 
      6 C6          8.9583   58.4167   17.9080 C.ar      1 UNK         0.0000 
      7 Br7        10.9200   56.4401   17.2395 Br        1 UNK         0.0000 
      8 N8          5.7293   55.7900   17.3473 N.am      1 UNK         0.0000 
      9 C9          4.3951   55.9754   17.2160 C.2       1 UNK         0.0000 
     10 O10         3.8685   57.0794   17.0851 O.2       1 UNK         0.0000 
     11 N11         3.6692   54.8234   17.2182 N.am      1 UNK         0.0000 
     12 C12         2.2578   54.7744   16.8394 C.3       1 UNK         0.0000 
     13 C13         1.9895   53.3101   16.5182 C.3       1 UNK         0.0000 
     14 C14         2.9020   52.5703   17.4825 C.3       1 UNK         0.0000 
     15 C15         4.1413   53.4789   17.6291 C.3       1 UNK         0.0000 
     16 H16         4.9033   53.1527   16.9169 H         1 UNK         0.0000 
     17 C17         4.7301   53.4640   19.0543 C.2       1 UNK         0.0000 
     18 O18         5.9031   53.1319   19.2049 O.2       1 UNK         0.0000 
     19 N19         3.9061   53.9043   20.0254 N.am      1 UNK         0.0000 
     20 C20         4.2113   53.9804   21.3656 C.2       1 UNK         0.0000 
     21 N21         5.3966   54.0819   21.9252 N.2       1 UNK         0.0000 
     22 N22         5.3151   54.1027   23.3095 N.2       1 UNK         0.0000 
     23 C23         4.0789   54.0269   23.7543 C.2       1 UNK         0.0000 
     24 S24         2.8954   53.8991   22.4828 S.3       1 UNK         0.0000 
     25 C25         3.6983   53.9869   25.2016 C.ar      1 UNK         0.0000 
     26 C26         2.3758   53.6964   25.6082 C.ar      1 UNK         0.0000 
     27 C27         2.0316   53.6127   26.9652 C.ar      1 UNK         0.0000 
     28 C28         3.0437   53.8040   27.8920 C.ar      1 UNK         0.0000 
     29 C29         4.3254   54.0803   27.5123 C.ar      1 UNK         0.0000 
     30 C30         4.6892   54.1923   26.1803 C.ar      1 UNK         0.0000 
     31 O31         5.1020   54.2229   28.6131 O.3       1 UNK         0.0000 
     32 C32         4.3027   53.8004   29.6805 C.3       1 UNK         0.0000 
     33 O33         2.9726   53.7800   29.2467 O.3       1 UNK         0.0000 
     34 H34         7.5075   59.9246   18.3918 H         1 UNK         0.0000 
     35 H35         5.5794   58.4697   18.0662 H         1 UNK         0.0000 
     36 H36         8.2380   55.2205   17.0590 H         1 UNK         0.0000 
     37 H37         9.8058   59.0703   18.0494 H         1 UNK         0.0000 
     38 H38         6.0385   54.8295   17.3520 H         1 UNK         0.0000 
     39 H39         2.0261   55.4167   15.9874 H         1 UNK         0.0000 
     40 H40         1.6517   55.1053   17.6817 H         1 UNK         0.0000 
     41 H41         2.3016   53.1003   15.4944 H         1 UNK         0.0000 
     42 H42         0.9405   53.0296   16.6117 H         1 UNK         0.0000 
     43 H43         3.1598   51.5717   17.1237 H         1 UNK         0.0000 
     44 H44         2.3859   52.4366   18.4335 H         1 UNK         0.0000 
     45 H45         2.9580   54.1515   19.7695 H         1 UNK         0.0000 
     46 H46         1.5992   53.5283   24.8785 H         1 UNK         0.0000 
     47 H47         1.0196   53.3952   27.2678 H         1 UNK         0.0000 
     48 H48         5.7111   54.4098   25.9048 H         1 UNK         0.0000 
     49 H49         4.6009   52.7952   29.9885 H         1 UNK         0.0000 
     50 H50         4.4270   54.4976   30.5008 H         1 UNK         0.0000 
@<TRIPOS>BOND
     1    1    6 ar   
     2    1    2 ar   
     3    1   34 1    
     4    2    3 ar   
     5    2   35 1    
     6    3    4 ar   
     7    3    8 1    
     8    4    5 ar   
     9    4   36 1    
    10    5    6 ar   
    11    5    7 1    
    12    6   37 1    
    13    8    9 am   BACKBONE|DICT|INTERRES
    14    8   38 1    
    15    9   10 2    
    16    9   11 am   BACKBONE|DICT|INTERRES
    17   11   15 1    
    18   11   12 1    
    19   12   13 1    
    20   12   39 1    
    21   12   40 1    
    22   13   14 1    
    23   13   41 1    
    24   13   42 1    
    25   14   15 1    
    26   14   43 1    
    27   14   44 1    
    28   15   16 1    
    29   15   17 1    
    30   17   18 2    
    31   17   19 am   BACKBONE|DICT|INTERRES
    32   19   20 am   BACKBONE|DICT|INTERRES
    33   19   45 1    
    34   20   24 1    
    35   20   21 2    
    36   21   22 1    
    37   22   23 2    
    38   23   24 1    
    39   23   25 1    
    40   25   30 ar   
    41   25   26 ar   
    42   26   27 ar   
    43   26   46 1    
    44   27   28 ar   
    45   27   47 1    
    46   28   33 1    
    47   28   29 ar   
    48   29   30 ar   
    49   29   31 1    
    50   30   48 1    
    51   31   32 1    
    52   32   33 1    
    53   32   49 1    
    54   32   50 1    
@<TRIPOS>SUBSTRUCTURE
     1 UNK         1 GROUP             0       ****    0 ROOT    
