@<TRIPOS>MOLECULE
ZINC43218817_702
61   65    1
SMALL
USER_CHARGES


@<TRIPOS>ATOM
      1 C1          3.0593   57.1293   15.1935 C.ar      1 UNK         0.0000 
      2 C2          3.2167   57.6354   16.4801 C.ar      1 UNK         0.0000 
      3 C3          3.9045   56.8878   17.4319 C.ar      1 UNK         0.0000 
      4 C4          4.4382   55.6317   17.1150 C.ar      1 UNK         0.0000 
      5 C5          4.2848   55.1489   15.8066 C.ar      1 UNK         0.0000 
      6 C6          3.5925   55.8895   14.8518 C.ar      1 UNK         0.0000 
      7 C7          5.2499   54.8037   18.1443 C.3       1 UNK         0.0000 
      8 C8          4.8511   53.2966   18.3065 C.3       1 UNK         0.0000 
      9 H9          5.3439   52.6820   17.5468 H         1 UNK         0.0000 
     10 C10         5.2554   52.8959   19.7029 C.3       1 UNK         0.0000 
     11 H11         6.1455   52.2693   19.6475 H         1 UNK         0.0000 
     12 C12         5.5044   54.1950   20.5233 C.3       1 UNK         0.0000 
     13 H13         6.5688   54.4429   20.5339 H         1 UNK         0.0000 
     14 N14         4.9793   55.2966   19.5895 N.4       1 UNK         0.0000 
     15 C15         4.9977   54.3186   21.9703 C.ar      1 UNK         0.0000 
     16 C16         3.6346   54.4479   22.2556 C.ar      1 UNK         0.0000 
     17 C17         3.1801   54.4803   23.5716 C.ar      1 UNK         0.0000 
     18 C18         4.0902   54.3901   24.6222 C.ar      1 UNK         0.0000 
     19 C19         5.4641   54.2460   24.3668 C.ar      1 UNK         0.0000 
     20 C20         5.9009   54.2196   23.0386 C.ar      1 UNK         0.0000 
     21 O21         6.4320   54.0964   25.3440 O.3       1 UNK         0.0000 
     22 C22         6.0716   54.1023   26.7263 C.3       1 UNK         0.0000 
     23 F23         7.1671   53.8513   27.4337 F         1 UNK         0.0000 
     24 F24         5.6298   55.2966   27.0904 F         1 UNK         0.0000 
     25 F25         5.1741   53.1699   27.0404 F         1 UNK         0.0000 
     26 C26         4.1159   52.0319   20.2195 C.2       1 UNK         0.0000 
     27 O27         4.1674   51.3663   21.2572 O.2       1 UNK         0.0000 
     28 N28         3.1022   52.1080   19.3254 N.am      1 UNK         0.0000 
     29 C29         3.3619   52.9027   18.2522 C.2       1 UNK         0.0000 
     30 O30         2.5878   53.1802   17.3366 O.2       1 UNK         0.0000 
     31 C31         1.8352   51.3675   19.5239 C.3       1 UNK         0.0000 
     32 C32         0.5806   52.2452   19.7689 C.3       1 UNK         0.0000 
     33 C33        -0.7058   51.4293   19.9984 C.3       1 UNK         0.0000 
     34 C34        -0.9379   50.3918   18.8893 C.3       1 UNK         0.0000 
     35 C35         0.2760   49.4600   18.7354 C.3       1 UNK         0.0000 
     36 C36         1.5801   50.2401   18.4878 C.3       1 UNK         0.0000 
     37 C37         6.7665   55.1027   17.8461 C.2       1 UNK         0.0000 
     38 O38         7.3237   54.3956   16.9774 O.co2     1 UNK         0.0000 
     39 O39         7.3529   56.0159   18.4825 O.co2     1 UNK         0.0000 
     40 H40         2.5296   57.7097   14.4528 H         1 UNK         0.0000 
     41 H41         2.8165   58.6070   16.7382 H         1 UNK         0.0000 
     42 H42         4.0261   57.2969   18.4201 H         1 UNK         0.0000 
     43 H43         4.7039   54.1925   15.5288 H         1 UNK         0.0000 
     44 H44         3.4752   55.5050   13.8488 H         1 UNK         0.0000 
     45 H45         5.4446   56.1824   19.7387 H         1 UNK         0.0000 
     46 H46         2.9168   54.4909   21.4556 H         1 UNK         0.0000 
     47 H47         2.1230   54.5735   23.7766 H         1 UNK         0.0000 
     48 H48         3.7011   54.4226   25.6276 H         1 UNK         0.0000 
     49 H49         6.9572   54.0952   22.8480 H         1 UNK         0.0000 
     50 H50         1.9432   50.8171   20.4610 H         1 UNK         0.0000 
     51 H51         0.7481   52.8962   20.6275 H         1 UNK         0.0000 
     52 H52         0.4206   52.8996   18.9112 H         1 UNK         0.0000 
     53 H53        -0.6411   50.9199   20.9618 H         1 UNK         0.0000 
     54 H54        -1.5650   52.0972   20.0646 H         1 UNK         0.0000 
     55 H55        -1.8321   49.8056   19.1090 H         1 UNK         0.0000 
     56 H56        -1.1306   50.9004   17.9419 H         1 UNK         0.0000 
     57 H57         0.3858   48.8534   19.6356 H         1 UNK         0.0000 
     58 H58         0.1033   48.7579   17.9188 H         1 UNK         0.0000 
     59 H59         1.5340   50.6700   17.4867 H         1 UNK         0.0000 
     60 H60         2.4219   49.5452   18.4836 H         1 UNK         0.0000 
     61 H61         3.9856   55.4175   19.7120 H         1 UNK         0.0000 
@<TRIPOS>BOND
     1    1    6 ar   
     2    1    2 ar   
     3    1   40 1    
     4    2    3 ar   
     5    2   41 1    
     6    3    4 ar   
     7    3   42 1    
     8    4    5 ar   
     9    4    7 1    
    10    5    6 ar   
    11    5   43 1    
    12    6   44 1    
    13    7   14 1    
    14    7    8 1    
    15    7   37 1    
    16    8    9 1    
    17    8   29 1    
    18    8   10 1    
    19   10   11 1    
    20   10   12 1    
    21   10   26 1    
    22   12   13 1    
    23   12   14 1    
    24   12   15 1    
    25   14   45 1    
    26   14   61 1    
    27   15   20 ar   
    28   15   16 ar   
    29   16   17 ar   
    30   16   46 1    
    31   17   18 ar   
    32   17   47 1    
    33   18   19 ar   
    34   18   48 1    
    35   19   20 ar   
    36   19   21 1    
    37   20   49 1    
    38   21   22 1    
    39   22   23 1    
    40   22   24 1    
    41   22   25 1    
    42   26   27 2    
    43   26   28 am   BACKBONE|DICT|INTERRES
    44   28   29 am   BACKBONE|DICT|INTERRES
    45   28   31 1    
    46   29   30 2    
    47   31   36 1    
    48   31   32 1    
    49   31   50 1    
    50   32   33 1    
    51   32   51 1    
    52   32   52 1    
    53   33   34 1    
    54   33   53 1    
    55   33   54 1    
    56   34   35 1    
    57   34   55 1    
    58   34   56 1    
    59   35   36 1    
    60   35   57 1    
    61   35   58 1    
    62   36   59 1    
    63   36   60 1    
    64   37   38 2    
    65   37   39 1    
@<TRIPOS>SUBSTRUCTURE
     1 UNK         1 GROUP             0       ****    0 ROOT    
