@<TRIPOS>MOLECULE
ZINC39637501_784
78   81    1
SMALL
USER_CHARGES


@<TRIPOS>ATOM
      1 C1          0.1941   49.8606   15.8105 C.3       1 UNK         0.0000 
      2 C2          0.9132   49.6825   17.1621 C.3       1 UNK         0.0000 
      3 H3          1.9218   50.0781   17.0337 H         1 UNK         0.0000 
      4 C4          1.0354   48.1944   17.5450 C.3       1 UNK         0.0000 
      5 C5          1.8987   48.0155   18.8044 C.3       1 UNK         0.0000 
      6 C6          1.4000   48.8738   19.9879 C.3       1 UNK         0.0000 
      7 C7          1.1124   50.3592   19.6267 C.3       1 UNK         0.0000 
      8 H8          2.0884   50.7801   19.3643 H         1 UNK         0.0000 
      9 C9          0.2585   50.4814   18.3254 C.3       1 UNK         0.0000 
     10 H10         0.3427   51.5276   18.0216 H         1 UNK         0.0000 
     11 C11        -1.2479   50.1942   18.5550 C.3       1 UNK         0.0000 
     12 N12         0.5633   51.1091   20.7590 N.am      1 UNK         0.0000 
     13 C13         1.2621   51.6186   21.7864 C.2       1 UNK         0.0000 
     14 O14         2.4898   51.5631   21.8590 O.2       1 UNK         0.0000 
     15 C15         0.4314   52.3488   22.8746 C.3       1 UNK         0.0000 
     16 H16        -0.5519   52.5636   22.4527 H         1 UNK         0.0000 
     17 C17         1.1144   53.6411   23.3811 C.3       1 UNK         0.0000 
     18 N18         1.8184   53.2344   24.6047 N.am      1 UNK         0.0000 
     19 C19         1.4982   51.8529   24.9449 C.3       1 UNK         0.0000 
     20 C20         0.2366   51.4702   24.1496 C.3       1 UNK         0.0000 
     21 C21        -1.0650   51.9009   24.8928 C.3       1 UNK         0.0000 
     22 C22        -1.2232   51.2291   26.2779 C.3       1 UNK         0.0000 
     23 N23        -1.2182   49.6961   26.0815 N.4       1 UNK         0.0000 
     24 C24        -0.0013   49.1701   25.2890 C.3       1 UNK         0.0000 
     25 C25         0.0665   49.9311   23.9459 C.3       1 UNK         0.0000 
     26 C26         2.8504   53.9499   25.1259 C.2       1 UNK         0.0000 
     27 O27         3.3169   54.8967   24.4997 O.2       1 UNK         0.0000 
     28 C28         3.3721   53.6726   26.5725 C.3       1 UNK         0.0000 
     29 H29         3.0204   52.6965   26.8820 H         1 UNK         0.0000 
     30 C30         4.9250   53.6200   26.7723 C.3       1 UNK         0.0000 
     31 C31         5.7062   54.9148   26.4784 C.3       1 UNK         0.0000 
     32 C32         5.2894   53.1164   28.1871 C.3       1 UNK         0.0000 
     33 O33         2.9141   54.7515   27.4019 O.3       1 UNK         0.0000 
     34 C34         2.0773   54.5707   28.4862 C.ar      1 UNK         0.0000 
     35 C35         1.4218   53.3746   28.8245 C.ar      1 UNK         0.0000 
     36 C36         0.6211   53.3143   29.9638 C.ar      1 UNK         0.0000 
     37 C37         0.4710   54.4436   30.7660 C.ar      1 UNK         0.0000 
     38 C38         1.1050   55.6376   30.4317 C.ar      1 UNK         0.0000 
     39 C39         1.9029   55.6966   29.2928 C.ar      1 UNK         0.0000 
     40 H40        -0.7924   49.3958   15.8056 H         1 UNK         0.0000 
     41 H41         0.0706   50.9152   15.5642 H         1 UNK         0.0000 
     42 H42         0.7693   49.4042   15.0036 H         1 UNK         0.0000 
     43 H43         1.4938   47.6459   16.7204 H         1 UNK         0.0000 
     44 H44         0.0510   47.7418   17.6650 H         1 UNK         0.0000 
     45 H45         2.9338   48.2794   18.5754 H         1 UNK         0.0000 
     46 H46         1.9044   46.9634   19.0925 H         1 UNK         0.0000 
     47 H47         2.1332   48.8200   20.7953 H         1 UNK         0.0000 
     48 H48         0.4836   48.4190   20.3672 H         1 UNK         0.0000 
     49 H49        -1.4160   49.1690   18.8817 H         1 UNK         0.0000 
     50 H50        -1.6747   50.8530   19.3116 H         1 UNK         0.0000 
     51 H51        -1.8320   50.3526   17.6494 H         1 UNK         0.0000 
     52 H52        -0.4203   51.3149   20.7007 H         1 UNK         0.0000 
     53 H53         0.3162   54.3370   23.6459 H         1 UNK         0.0000 
     54 H54         1.7386   54.0732   22.5953 H         1 UNK         0.0000 
     55 H55         2.3044   51.2787   24.4818 H         1 UNK         0.0000 
     56 H56         1.4811   51.5995   26.0014 H         1 UNK         0.0000 
     57 H57        -1.0464   52.9771   25.0670 H         1 UNK         0.0000 
     58 H58        -1.9469   51.7338   24.2710 H         1 UNK         0.0000 
     59 H59        -0.4234   51.4608   26.9814 H         1 UNK         0.0000 
     60 H60        -2.1764   51.4677   26.7515 H         1 UNK         0.0000 
     61 H61        -1.2807   49.2176   26.9935 H         1 UNK         0.0000 
     62 H62         0.8757   49.3099   25.9219 H         1 UNK         0.0000 
     63 H63        -0.1627   48.0975   25.1617 H         1 UNK         0.0000 
     64 H64        -0.7950   49.7073   23.3132 H         1 UNK         0.0000 
     65 H65         0.9261   49.5222   23.4116 H         1 UNK         0.0000 
     66 H66         5.3248   52.8966   26.0813 H         1 UNK         0.0000 
     67 H67         5.4086   55.6956   27.1706 H         1 UNK         0.0000 
     68 H68         6.7795   54.7622   26.6143 H         1 UNK         0.0000 
     69 H69         5.5691   55.2750   25.4590 H         1 UNK         0.0000 
     70 H70         5.0070   53.8410   28.9530 H         1 UNK         0.0000 
     71 H71         4.7891   52.1777   28.4292 H         1 UNK         0.0000 
     72 H72         6.3636   52.9432   28.2786 H         1 UNK         0.0000 
     73 H73         1.5060   52.4785   28.2336 H         1 UNK         0.0000 
     74 H74         0.1219   52.3937   30.2326 H         1 UNK         0.0000 
     75 H75        -0.1332   54.3864   31.6612 H         1 UNK         0.0000 
     76 H76         0.9946   56.5119   31.0573 H         1 UNK         0.0000 
     77 H77         2.4003   56.6215   29.0389 H         1 UNK         0.0000 
     78 H78        -2.0609   49.4295   25.5938 H         1 UNK         0.0000 
@<TRIPOS>BOND
     1    1    2 1    
     2    1   40 1    
     3    1   41 1    
     4    1   42 1    
     5    2    3 1    
     6    2    9 1    
     7    2    4 1    
     8    4    5 1    
     9    4   43 1    
    10    4   44 1    
    11    5    6 1    
    12    5   45 1    
    13    5   46 1    
    14    6    7 1    
    15    6   47 1    
    16    6   48 1    
    17    7    8 1    
    18    7    9 1    
    19    7   12 1    
    20    9   10 1    
    21    9   11 1    
    22   11   49 1    
    23   11   50 1    
    24   11   51 1    
    25   12   13 am   BACKBONE|DICT|INTERRES
    26   12   52 1    
    27   13   14 2    
    28   13   15 1    
    29   15   16 1    
    30   15   20 1    
    31   15   17 1    
    32   17   18 1    
    33   17   53 1    
    34   17   54 1    
    35   18   19 1    
    36   18   26 am   BACKBONE|DICT|INTERRES
    37   19   20 1    
    38   19   55 1    
    39   19   56 1    
    40   20   25 1    
    41   20   21 1    
    42   21   22 1    
    43   21   57 1    
    44   21   58 1    
    45   22   23 1    
    46   22   59 1    
    47   22   60 1    
    48   23   24 1    
    49   23   61 1    
    50   23   78 1    
    51   24   25 1    
    52   24   62 1    
    53   24   63 1    
    54   25   64 1    
    55   25   65 1    
    56   26   27 2    
    57   26   28 1    
    58   28   29 1    
    59   28   30 1    
    60   28   33 1    
    61   30   31 1    
    62   30   32 1    
    63   30   66 1    
    64   31   67 1    
    65   31   68 1    
    66   31   69 1    
    67   32   70 1    
    68   32   71 1    
    69   32   72 1    
    70   33   34 1    
    71   34   39 ar   
    72   34   35 ar   
    73   35   36 ar   
    74   35   73 1    
    75   36   37 ar   
    76   36   74 1    
    77   37   38 ar   
    78   37   75 1    
    79   38   39 ar   
    80   38   76 1    
    81   39   77 1    
@<TRIPOS>SUBSTRUCTURE
     1 UNK         1 GROUP             0       ****    0 ROOT    
