@<TRIPOS>MOLECULE
ZINC02791081_2540
45   48    1
SMALL
USER_CHARGES


@<TRIPOS>ATOM
      1 C1          5.0629   54.4168   29.1132 C.3       1 UNK         0.0000 
      2 C2          4.7422   54.3200   27.6358 C.ar      1 UNK         0.0000 
      3 C3          3.4344   54.0621   27.2256 C.ar      1 UNK         0.0000 
      4 C4          3.1341   53.9920   25.8680 C.ar      1 UNK         0.0000 
      5 C5          4.1400   54.1715   24.9103 C.ar      1 UNK         0.0000 
      6 C6          5.4528   54.4290   25.3362 C.ar      1 UNK         0.0000 
      7 C7          5.7526   54.4966   26.6922 C.ar      1 UNK         0.0000 
      8 C8          3.7918   54.1537   23.4419 C.2       1 UNK         0.0000 
      9 O9          2.6706   54.4965   23.0617 O.2       1 UNK         0.0000 
     10 N10         4.7593   53.6961   22.6199 N.am      1 UNK         0.0000 
     11 C11         4.7028   53.8116   21.2377 C.2       1 UNK         0.0000 
     12 C12         3.8755   53.0131   20.3471 C.ar      1 UNK         0.0000 
     13 C13         2.9784   51.9155   20.5460 C.ar      1 UNK         0.0000 
     14 C14         2.3458   51.3892   19.4104 C.ar      1 UNK         0.0000 
     15 C15         2.5823   51.9251   18.1474 C.ar      1 UNK         0.0000 
     16 N16         3.4184   52.9659   17.9270 N.ar      1 UNK         0.0000 
     17 C17         4.0330   53.4668   18.9970 C.ar      1 UNK         0.0000 
     18 S18         5.1484   54.7988   18.8344 S.3       1 UNK         0.0000 
     19 C19         5.5146   54.7298   20.5411 C.2       1 UNK         0.0000 
     20 C20         6.4838   55.6972   21.0337 C.2       1 UNK         0.0000 
     21 O21         6.6652   56.7990   20.5176 O.2       1 UNK         0.0000 
     22 N22         7.2153   55.2967   22.0719 N.am      1 UNK         0.0000 
     23 C23         1.9415   51.3310   16.8960 C.3       1 UNK         0.0000 
     24 F24         1.0960   50.3348   17.1695 F         1 UNK         0.0000 
     25 F25         1.2788   52.2669   16.2145 F         1 UNK         0.0000 
     26 C26         2.6710   51.2453   21.8889 C.3       1 UNK         0.0000 
     27 C27         1.3448   50.5903   22.2174 C.3       1 UNK         0.0000 
     28 C28         2.5892   49.7435   22.0564 C.3       1 UNK         0.0000 
     29 H29         4.7023   53.5281   29.6323 H         1 UNK         0.0000 
     30 H30         6.1374   54.4970   29.2818 H         1 UNK         0.0000 
     31 H31         4.5697   55.2826   29.5543 H         1 UNK         0.0000 
     32 H32         2.6489   53.9251   27.9548 H         1 UNK         0.0000 
     33 H33         2.1131   53.8042   25.5664 H         1 UNK         0.0000 
     34 H34         6.2498   54.5990   24.6277 H         1 UNK         0.0000 
     35 H35         6.7645   54.7004   27.0099 H         1 UNK         0.0000 
     36 H36         5.5717   53.2725   23.0376 H         1 UNK         0.0000 
     37 H37         1.6827   50.5416   19.5008 H         1 UNK         0.0000 
     38 H38         7.1049   54.3684   22.4398 H         1 UNK         0.0000 
     39 H39         7.9621   55.8807   22.4218 H         1 UNK         0.0000 
     40 H40         2.7050   50.9233   16.2341 H         1 UNK         0.0000 
     41 H41         3.1041   51.7599   22.7309 H         1 UNK         0.0000 
     42 H42         0.9328   50.7378   23.2161 H         1 UNK         0.0000 
     43 H43         0.5616   50.5509   21.4601 H         1 UNK         0.0000 
     44 H44         2.7036   49.1083   21.1773 H         1 UNK         0.0000 
     45 H45         3.0405   49.2987   22.9430 H         1 UNK         0.0000 
@<TRIPOS>BOND
     1    1    2 1    
     2    1   29 1    
     3    1   30 1    
     4    1   31 1    
     5    2    7 ar   
     6    2    3 ar   
     7    3    4 ar   
     8    3   32 1    
     9    4    5 ar   
    10    4   33 1    
    11    5    6 ar   
    12    5    8 1    
    13    6    7 ar   
    14    6   34 1    
    15    7   35 1    
    16    8    9 2    
    17    8   10 am   BACKBONE|DICT|INTERRES
    18   10   11 1    
    19   10   36 1    
    20   11   19 2    
    21   11   12 1    
    22   12   17 ar   
    23   12   13 ar   
    24   13   14 ar   
    25   13   26 1    
    26   14   15 ar   
    27   14   37 1    
    28   15   16 ar   
    29   15   23 1    
    30   16   17 ar   
    31   17   18 1    
    32   18   19 1    
    33   19   20 1    
    34   20   21 2    
    35   20   22 am   BACKBONE|DICT|INTERRES
    36   22   38 1    
    37   22   39 1    
    38   23   24 1    
    39   23   25 1    
    40   23   40 1    
    41   26   28 1    
    42   26   27 1    
    43   26   41 1    
    44   27   28 1    
    45   27   42 1    
    46   27   43 1    
    47   28   44 1    
    48   28   45 1    
@<TRIPOS>SUBSTRUCTURE
     1 UNK         1 GROUP             0       ****    0 ROOT    
