@<TRIPOS>MOLECULE
ZINC46815487_2424
56   59    1
SMALL
USER_CHARGES


@<TRIPOS>ATOM
      1 C1          6.8615   55.2823   22.4586 C.ar      1 UNK         0.0000 
      2 C2          7.1193   55.4763   21.1052 C.ar      1 UNK         0.0000 
      3 C3          6.3037   54.8968   20.1220 C.ar      1 UNK         0.0000 
      4 C4          5.2230   54.1080   20.5440 C.ar      1 UNK         0.0000 
      5 C5          4.9660   53.9065   21.8994 C.ar      1 UNK         0.0000 
      6 C6          5.7768   54.4972   22.8691 C.ar      1 UNK         0.0000 
      7 N7          5.3651   54.3575   24.2103 N.am      1 UNK         0.0000 
      8 C8          5.9673   54.7565   25.3581 C.2       1 UNK         0.0000 
      9 O9          7.1042   55.2285   25.4218 O.2       1 UNK         0.0000 
     10 C10         5.1171   54.6462   26.6473 C.3       1 UNK         0.0000 
     11 H11         4.3622   55.4173   26.5007 H         1 UNK         0.0000 
     12 C12         5.9031   54.8968   27.9496 C.3       1 UNK         0.0000 
     13 C13         4.9483   54.7782   29.1623 C.3       1 UNK         0.0000 
     14 C14         4.1963   53.4347   29.2071 C.3       1 UNK         0.0000 
     15 N15         3.4995   53.3045   27.9139 N.am      1 UNK         0.0000 
     16 C16         4.4081   53.2967   26.7507 C.3       1 UNK         0.0000 
     17 C17         2.1542   53.0773   27.8735 C.2       1 UNK         0.0000 
     18 O18         1.4744   52.9844   28.8988 O.2       1 UNK         0.0000 
     19 C19         1.4610   52.8691   26.5422 C.ar      1 UNK         0.0000 
     20 C20         0.4950   51.8597   26.4182 C.ar      1 UNK         0.0000 
     21 C21        -0.1429   51.6301   25.1987 C.ar      1 UNK         0.0000 
     22 C22         0.1611   52.4157   24.0859 C.ar      1 UNK         0.0000 
     23 C23         1.0987   53.4484   24.2065 C.ar      1 UNK         0.0000 
     24 C24         1.7283   53.6765   25.4273 C.ar      1 UNK         0.0000 
     25 Cl25        1.5044   54.4750   22.8818 Cl        1 UNK         0.0000 
     26 Cl26       -0.6452   52.0977   22.5902 Cl        1 UNK         0.0000 
     27 N27         6.5342   55.1178   18.7604 N.pl3     1 UNK         0.0000 
     28 C28         7.4446   56.1560   18.2595 C.3       1 UNK         0.0000 
     29 C29         8.8679   55.6115   17.9931 C.3       1 UNK         0.0000 
     30 N30         8.8516   54.2635   17.4077 N.am      1 UNK         0.0000 
     31 C31         7.7747   53.4640   17.2831 C.2       1 UNK         0.0000 
     32 O32         7.9042   52.3393   16.8088 O.2       1 UNK         0.0000 
     33 C33         6.4081   54.0502   17.7381 C.3       1 UNK         0.0000 
     34 H34         7.5053   55.7764   23.1666 H         1 UNK         0.0000 
     35 H35         7.9718   56.0807   20.8372 H         1 UNK         0.0000 
     36 H36         4.5538   53.6582   19.8252 H         1 UNK         0.0000 
     37 H37         4.1101   53.3108   22.1819 H         1 UNK         0.0000 
     38 H38         4.4654   53.9144   24.3124 H         1 UNK         0.0000 
     39 H39         6.6949   54.1568   28.0930 H         1 UNK         0.0000 
     40 H40         6.3049   55.9077   27.9727 H         1 UNK         0.0000 
     41 H41         5.5152   54.9084   30.0816 H         1 UNK         0.0000 
     42 H42         4.2111   55.5823   29.1664 H         1 UNK         0.0000 
     43 H43         4.9064   52.6109   29.2921 H         1 UNK         0.0000 
     44 H44         3.5334   53.3854   30.0715 H         1 UNK         0.0000 
     45 H45         3.9609   52.9080   25.8396 H         1 UNK         0.0000 
     46 H46         5.1605   52.5335   26.9579 H         1 UNK         0.0000 
     47 H47         0.2447   51.2283   27.2618 H         1 UNK         0.0000 
     48 H48        -0.8712   50.8360   25.1199 H         1 UNK         0.0000 
     49 H49         2.4239   54.4965   25.4976 H         1 UNK         0.0000 
     50 H50         7.4659   57.0243   18.9168 H         1 UNK         0.0000 
     51 H51         7.0116   56.4971   17.3178 H         1 UNK         0.0000 
     52 H52         9.3910   55.5264   18.9473 H         1 UNK         0.0000 
     53 H53         9.4267   56.3060   17.3650 H         1 UNK         0.0000 
     54 H54         9.7280   53.8576   17.1152 H         1 UNK         0.0000 
     55 H55         5.9180   54.4479   16.8479 H         1 UNK         0.0000 
     56 H56         5.7932   53.2147   18.0710 H         1 UNK         0.0000 
@<TRIPOS>BOND
     1    1    6 ar   
     2    1    2 ar   
     3    1   34 1    
     4    2    3 ar   
     5    2   35 1    
     6    3    4 ar   
     7    3   27 1    
     8    4    5 ar   
     9    4   36 1    
    10    5    6 ar   
    11    5   37 1    
    12    6    7 1    
    13    7    8 am   BACKBONE|DICT|INTERRES
    14    7   38 1    
    15    8    9 2    
    16    8   10 1    
    17   10   11 1    
    18   10   16 1    
    19   10   12 1    
    20   12   13 1    
    21   12   39 1    
    22   12   40 1    
    23   13   14 1    
    24   13   41 1    
    25   13   42 1    
    26   14   15 1    
    27   14   43 1    
    28   14   44 1    
    29   15   16 1    
    30   15   17 am   BACKBONE|DICT|INTERRES
    31   16   45 1    
    32   16   46 1    
    33   17   18 2    
    34   17   19 1    
    35   19   24 ar   
    36   19   20 ar   
    37   20   21 ar   
    38   20   47 1    
    39   21   22 ar   
    40   21   48 1    
    41   22   23 ar   
    42   22   26 1    
    43   23   24 ar   
    44   23   25 1    
    45   24   49 1    
    46   27   33 1    
    47   27   28 1    
    48   28   29 1    
    49   28   50 1    
    50   28   51 1    
    51   29   30 1    
    52   29   52 1    
    53   29   53 1    
    54   30   31 am   BACKBONE|DICT|INTERRES
    55   30   54 1    
    56   31   32 2    
    57   31   33 1    
    58   33   55 1    
    59   33   56 1    
@<TRIPOS>SUBSTRUCTURE
     1 UNK         1 GROUP             0       ****    0 ROOT    
