ZINC64672726_301
                    3D
 Schrodinger Suite 2024-2.
 55 58  0  0  1  0            999 V2000
    1.3805   55.8962   30.1718 C   0  0  0  0  0  0
    0.5673   54.7296   30.4805 C   0  0  0  0  0  0
    0.9083   53.4845   30.0615 C   0  0  0  0  0  0
    2.1003   53.2820   29.3554 C   0  0  0  0  0  0
    2.6078   52.1658   28.9083 N   0  3  0  0  0  0
    3.9245   52.4317   28.3177 C   0  0  0  0  0  0
    4.0760   53.9223   28.4660 C   0  0  0  0  0  0
    2.9459   54.3624   29.0624 C   0  0  0  0  0  0
    2.5222   55.7048   29.4847 C   0  0  0  0  0  0
    5.3905   54.6108   28.1001 C   0  0  0  0  0  0
    5.8883   54.4965   26.6461 C   0  0  0  0  0  0
    7.1043   54.4963   26.4860 O   0  0  0  0  0  0
    4.9987   54.4299   25.6277 N   0  0  0  0  0  0
    5.2490   54.4746   24.2311 C   0  0  0  0  0  0
    4.1762   54.1580   23.3911 C   0  0  0  0  0  0
    4.2956   54.2917   22.0062 C   0  0  0  0  0  0
    5.4934   54.7448   21.4394 C   0  0  0  0  0  0
    6.5880   55.0042   22.2668 C   0  0  0  0  0  0
    6.4664   54.8771   23.6504 C   0  0  0  0  0  0
    5.6308   55.0014   19.6523 S   0  0  0  0  0  0
    6.7171   54.0961   19.2806 O   0  0  0  0  0  0
    4.3049   54.6437   19.1430 O   0  0  0  0  0  0
    6.0082   56.7218   19.6801 N   0  0  0  0  0  0
    6.7949   57.1921   18.7981 C   0  0  0  0  0  0
    7.4825   56.5038   17.6096 C   0  0  0  0  0  0
    9.0101   56.3360   17.7477 C   0  0  0  0  0  0
    9.8213   57.5883   17.3761 C   0  0  0  0  0  0
    9.5147   58.8618   18.1874 C   0  0  0  0  0  0
    8.0517   59.3580   18.1410 C   0  0  0  0  0  0
    7.0954   58.5391   18.8814 N   0  0  0  0  0  0
    1.0812   56.8853   30.4920 H   0  0  0  0  0  0
   -0.3412   54.8616   31.0505 H   0  0  0  0  0  0
    0.2592   52.6559   30.3145 H   0  0  0  0  0  0
    4.6711   51.8607   28.8735 H   0  0  0  0  0  0
    3.8882   52.1025   27.2819 H   0  0  0  0  0  0
    3.1045   56.5877   29.2809 H   0  0  0  0  0  0
    5.3883   55.6579   28.3697 H   0  0  0  0  0  0
    6.1560   54.1676   28.7400 H   0  0  0  0  0  0
    4.0291   54.3226   25.8785 H   0  0  0  0  0  0
    3.2297   53.8402   23.8037 H   0  0  0  0  0  0
    3.4415   54.0735   21.3797 H   0  0  0  0  0  0
    7.5250   55.3363   21.8412 H   0  0  0  0  0  0
    7.3291   55.1413   24.2406 H   0  0  0  0  0  0
    7.0387   55.5331   17.4077 H   0  0  0  0  0  0
    7.2482   57.0427   16.6908 H   0  0  0  0  0  0
    9.2666   56.0156   18.7606 H   0  0  0  0  0  0
    9.3312   55.5138   17.1061 H   0  0  0  0  0  0
    9.6722   57.8019   16.3164 H   0  0  0  0  0  0
   10.8823   57.3555   17.4780 H   0  0  0  0  0  0
   10.1541   59.6591   17.8068 H   0  0  0  0  0  0
    9.8250   58.7177   19.2244 H   0  0  0  0  0  0
    7.7124   59.3640   17.1039 H   0  0  0  0  0  0
    7.9844   60.3960   18.4678 H   0  0  0  0  0  0
    6.3928   59.0875   19.3543 H   0  0  0  0  0  0
    2.1772   51.2465   28.9760 H   0  0  0  0  0  0
  1  9  2  0  0  0
  1  2  1  0  0  0
  1 31  1  0  0  0
  2  3  2  0  0  0
  2 32  1  0  0  0
  3  4  1  0  0  0
  3 33  1  0  0  0
  4  8  1  0  0  0
  4  5  2  0  0  0
  5  6  1  0  0  0
  5 55  1  0  0  0
  6  7  1  0  0  0
  6 34  1  0  0  0
  6 35  1  0  0  0
  7  8  2  0  0  0
  7 10  1  0  0  0
  8  9  1  0  0  0
  9 36  1  0  0  0
 10 11  1  0  0  0
 10 37  1  0  0  0
 10 38  1  0  0  0
 11 12  2  0  0  0
 11 13  1  0  0  0
 13 14  1  0  0  0
 13 39  1  0  0  0
 14 19  2  0  0  0
 14 15  1  0  0  0
 15 16  2  0  0  0
 15 40  1  0  0  0
 16 17  1  0  0  0
 16 41  1  0  0  0
 17 18  2  0  0  0
 17 20  1  0  0  0
 18 19  1  0  0  0
 18 42  1  0  0  0
 19 43  1  0  0  0
 20 21  2  0  0  0
 20 22  2  0  0  0
 20 23  1  0  0  0
 23 24  2  0  0  0
 24 30  1  0  0  0
 24 25  1  0  0  0
 25 26  1  0  0  0
 25 44  1  0  0  0
 25 45  1  0  0  0
 26 27  1  0  0  0
 26 46  1  0  0  0
 26 47  1  0  0  0
 27 28  1  0  0  0
 27 48  1  0  0  0
 27 49  1  0  0  0
 28 29  1  0  0  0
 28 50  1  0  0  0
 28 51  1  0  0  0
 29 30  1  0  0  0
 29 52  1  0  0  0
 29 53  1  0  0  0
 30 54  1  0  0  0
M  CHG  1   5   1
M  END
> <i_i_glide_confnum>
313

> <i_i_glide_lignum>
302

> <i_i_glide_posenum>
343

> <i_i_glide_rotatable_bonds>
6

> <i_m_Source_File_Index>
3618

> <b_m_subgroup_collapsed>
0

> <r_i_docking_score>
-6.2409

> <r_i_glide_ecoul>
-4.31593

> <r_i_glide_eff_state_penalty>
0

> <r_i_glide_einternal>
12.0653

> <r_i_glide_emodel>
-54.4388

> <r_i_glide_energy>
-44.5573

> <r_i_glide_erotb>
0.547795

> <r_i_glide_esite>
-0.0857266

> <r_i_glide_evdw>
-40.2414

> <r_i_glide_gscore>
-6.2409

> <r_i_glide_hbond>
-0.286758

> <r_i_glide_ligand_efficiency>
-0.20803

> <r_i_glide_ligand_efficiency_ln>
-1.418

> <r_i_glide_ligand_efficiency_sa>
-0.646398

> <r_i_glide_lipo>
-3.44472

> <r_i_glide_metal>
0

> <r_i_glide_rewards>
-0.312027

> <s_i_glide_gridfile>
wee1_glide-grid

> <s_m_Source_File>
wee1_decoys_glide_SP.sdf

> <s_m_Source_Path>
/Users/zhangxujun/Desktop

> <s_m_entry_id>
3893

> <s_m_entry_name>
wee1_decoys_glide_SP.3618

> <s_m_subgroup_title>
wee1_decoys_glide_SP

> <s_m_subgroupid>
wee1_decoys_glide_SP


$$$$
