@<TRIPOS>MOLECULE
ZINC49511387_1053
65   68    1
SMALL
USER_CHARGES


@<TRIPOS>ATOM
      1 C1          3.1546   40.1572   18.8842 C.3       1 UNK         0.0000 
      2 C2          2.6636   39.7604   17.4811 C.3       1 UNK         0.0000 
      3 C3          2.7494   40.8888   16.4251 C.3       1 UNK         0.0000 
      4 C4          1.8386   42.1023   16.6736 C.2       1 UNK         0.0000 
      5 O5          0.8291   41.9837   17.3714 O.2       1 UNK         0.0000 
      6 N6          2.2492   43.2455   16.0852 N.am      1 UNK         0.0000 
      7 C7          1.6926   44.5360   16.1413 C.ar      1 UNK         0.0000 
      8 C8          2.5113   45.5710   15.6835 C.ar      1 UNK         0.0000 
      9 C9          2.0721   46.8887   15.7356 C.ar      1 UNK         0.0000 
     10 C10         0.8102   47.1808   16.2417 C.ar      1 UNK         0.0000 
     11 C11        -0.0281   46.1568   16.6830 C.ar      1 UNK         0.0000 
     12 C12         0.4098   44.8335   16.6297 C.ar      1 UNK         0.0000 
     13 S13         0.3155   48.8955   16.3258 S.o2      1 UNK         0.0000 
     14 O14         0.7116   49.5151   15.0578 O.2       1 UNK         0.0000 
     15 O15        -1.0766   48.9623   16.7882 O.2       1 UNK         0.0000 
     16 N16         1.3537   49.6054   17.5783 N.pl3     1 UNK         0.0000 
     17 C17         1.0790   49.5906   18.9522 C.ar      1 UNK         0.0000 
     18 C18         0.1838   48.6908   19.5325 C.ar      1 UNK         0.0000 
     19 C19        -0.0698   48.7367   20.8984 C.ar      1 UNK         0.0000 
     20 C20         0.5660   49.6693   21.7231 C.ar      1 UNK         0.0000 
     21 C21         1.4912   50.5736   21.1461 C.ar      1 UNK         0.0000 
     22 C22         1.7384   50.5089   19.7705 C.ar      1 UNK         0.0000 
     23 C23         2.2425   51.5744   22.0247 C.3       1 UNK         0.0000 
     24 N24         1.7555   51.6300   23.4188 N.pl3     1 UNK         0.0000 
     25 C25         1.4071   50.3335   24.0315 C.3       1 UNK         0.0000 
     26 C26         0.2527   49.7119   23.2263 C.3       1 UNK         0.0000 
     27 S27         1.5038   53.1657   24.2685 S.o2      1 UNK         0.0000 
     28 O28         1.1044   54.1723   23.2817 O.2       1 UNK         0.0000 
     29 O29         0.7045   52.8970   25.4695 O.2       1 UNK         0.0000 
     30 C30         3.1202   53.6949   24.8223 C.ar      1 UNK         0.0000 
     31 C31         4.0576   54.0970   23.8695 C.ar      1 UNK         0.0000 
     32 C32         5.3269   54.4951   24.2767 C.ar      1 UNK         0.0000 
     33 C33         5.6524   54.4966   25.6337 C.ar      1 UNK         0.0000 
     34 C34         4.7144   54.0973   26.5865 C.ar      1 UNK         0.0000 
     35 C35         3.4438   53.6971   26.1815 C.ar      1 UNK         0.0000 
     36 C36         7.0389   54.9153   26.0745 C.3       1 UNK         0.0000 
     37 H37         3.1050   39.3110   19.5686 H         1 UNK         0.0000 
     38 H38         2.5524   40.9584   19.3123 H         1 UNK         0.0000 
     39 H39         4.1897   40.4989   18.8642 H         1 UNK         0.0000 
     40 H40         3.2640   38.9171   17.1350 H         1 UNK         0.0000 
     41 H41         1.6426   39.3817   17.5431 H         1 UNK         0.0000 
     42 H42         3.7872   41.2139   16.3319 H         1 UNK         0.0000 
     43 H43         2.4704   40.4802   15.4519 H         1 UNK         0.0000 
     44 H44         3.1332   43.1967   15.6064 H         1 UNK         0.0000 
     45 H45         3.5039   45.3713   15.3099 H         1 UNK         0.0000 
     46 H46         2.7066   47.6969   15.3982 H         1 UNK         0.0000 
     47 H47        -1.0137   46.3782   17.0658 H         1 UNK         0.0000 
     48 H48        -0.2609   44.0640   16.9736 H         1 UNK         0.0000 
     49 H49         2.2013   50.0637   17.2686 H         1 UNK         0.0000 
     50 H50        -0.3283   47.9518   18.9371 H         1 UNK         0.0000 
     51 H51        -0.7771   48.0394   21.3209 H         1 UNK         0.0000 
     52 H52         2.4552   51.1904   19.3325 H         1 UNK         0.0000 
     53 H53         3.2808   51.2431   22.0531 H         1 UNK         0.0000 
     54 H54         2.2395   52.5771   21.5950 H         1 UNK         0.0000 
     55 H55         2.3010   49.7074   24.0118 H         1 UNK         0.0000 
     56 H56         1.1044   50.4803   25.0692 H         1 UNK         0.0000 
     57 H57        -0.6304   50.3452   23.3329 H         1 UNK         0.0000 
     58 H58         0.0043   48.7200   23.6097 H         1 UNK         0.0000 
     59 H59         3.8056   54.1025   22.8183 H         1 UNK         0.0000 
     60 H60         6.0533   54.8041   23.5368 H         1 UNK         0.0000 
     61 H61         4.9708   54.0902   27.6365 H         1 UNK         0.0000 
     62 H62         2.7237   53.3778   26.9218 H         1 UNK         0.0000 
     63 H63         7.7359   54.8961   25.2373 H         1 UNK         0.0000 
     64 H64         7.0027   55.9228   26.4849 H         1 UNK         0.0000 
     65 H65         7.4215   54.2416   26.8437 H         1 UNK         0.0000 
@<TRIPOS>BOND
     1    1    2 1    
     2    1   37 1    
     3    1   38 1    
     4    1   39 1    
     5    2    3 1    
     6    2   40 1    
     7    2   41 1    
     8    3    4 1    
     9    3   42 1    
    10    3   43 1    
    11    4    5 2    
    12    4    6 am   BACKBONE|DICT|INTERRES
    13    6    7 1    
    14    6   44 1    
    15    7   12 ar   
    16    7    8 ar   
    17    8    9 ar   
    18    8   45 1    
    19    9   10 ar   
    20    9   46 1    
    21   10   11 ar   
    22   10   13 1    
    23   11   12 ar   
    24   11   47 1    
    25   12   48 1    
    26   13   14 2    
    27   13   15 2    
    28   13   16 1    
    29   16   17 1    
    30   16   49 1    
    31   17   22 ar   
    32   17   18 ar   
    33   18   19 ar   
    34   18   50 1    
    35   19   20 ar   
    36   19   51 1    
    37   20   26 1    
    38   20   21 ar   
    39   21   22 ar   
    40   21   23 1    
    41   22   52 1    
    42   23   24 1    
    43   23   53 1    
    44   23   54 1    
    45   24   25 1    
    46   24   27 1    
    47   25   26 1    
    48   25   55 1    
    49   25   56 1    
    50   26   57 1    
    51   26   58 1    
    52   27   28 2    
    53   27   29 2    
    54   27   30 1    
    55   30   35 ar   
    56   30   31 ar   
    57   31   32 ar   
    58   31   59 1    
    59   32   33 ar   
    60   32   60 1    
    61   33   34 ar   
    62   33   36 1    
    63   34   35 ar   
    64   34   61 1    
    65   35   62 1    
    66   36   63 1    
    67   36   64 1    
    68   36   65 1    
@<TRIPOS>SUBSTRUCTURE
     1 UNK         1 GROUP             0       ****    0 ROOT    
