@<TRIPOS>MOLECULE
ZINC13205930_5934
50   52    1
SMALL
USER_CHARGES


@<TRIPOS>ATOM
      1 C1          7.1044   55.5129   24.4965 C.3       1 UNK         0.0000 
      2 C2          5.7757   54.9108   24.8724 C.ar      1 UNK         0.0000 
      3 C3          4.8850   54.4959   23.8860 C.ar      1 UNK         0.0000 
      4 C4          3.6529   53.9664   24.2518 C.ar      1 UNK         0.0000 
      5 C5          3.2972   53.8239   25.6030 C.ar      1 UNK         0.0000 
      6 C6          4.2095   54.2670   26.5731 C.ar      1 UNK         0.0000 
      7 C7          5.4390   54.7994   26.2145 C.ar      1 UNK         0.0000 
      8 C8          1.9556   53.1978   25.9212 C.ar      1 UNK         0.0000 
      9 N9          1.0827   52.9092   24.9796 N.2       1 UNK         0.0000 
     10 N10        -0.0288   52.3375   25.5724 N.2       1 UNK         0.0000 
     11 C11         0.1951   52.2884   26.8590 C.ar      1 UNK         0.0000 
     12 N12         1.4406   52.8076   27.1556 N.pl3     1 UNK         0.0000 
     13 C13         2.0453   52.8638   28.4893 C.3       1 UNK         0.0000 
     14 C14         1.9244   54.2514   29.1351 C.2       1 UNK         0.0000 
     15 O15         1.1060   55.0772   28.6742 O.co2     1 UNK         0.0000 
     16 S16        -0.9462   51.6525   28.0475 S.3       1 UNK         0.0000 
     17 C17        -2.5317   52.0942   27.2513 C.3       1 UNK         0.0000 
     18 C18        -3.0472   51.1662   26.1458 C.2       1 UNK         0.0000 
     19 O19        -3.8785   51.6140   25.3555 O.2       1 UNK         0.0000 
     20 N20        -2.5525   49.9151   26.0634 N.am      1 UNK         0.0000 
     21 C21        -2.8293   48.8961   25.0345 C.3       1 UNK         0.0000 
     22 H22        -2.4114   47.9936   25.4857 H         1 UNK         0.0000 
     23 C23        -4.3468   48.6452   24.8557 C.3       1 UNK         0.0000 
     24 C24        -2.0996   49.0695   23.6802 C.ar      1 UNK         0.0000 
     25 C25        -1.5978   50.3174   23.2689 C.ar      1 UNK         0.0000 
     26 C26        -0.9404   50.4722   22.0503 C.ar      1 UNK         0.0000 
     27 C27        -0.7758   49.3798   21.2059 C.ar      1 UNK         0.0000 
     28 C28        -1.2682   48.1348   21.5874 C.ar      1 UNK         0.0000 
     29 C29        -1.9173   47.9721   22.8129 C.ar      1 UNK         0.0000 
     30 Br30       -2.5102   46.2139   23.2537 Br        1 UNK         0.0000 
     31 H31         7.2245   55.6289   23.4194 H         1 UNK         0.0000 
     32 H32         7.2099   56.4922   24.9603 H         1 UNK         0.0000 
     33 H33         7.9025   54.8785   24.8814 H         1 UNK         0.0000 
     34 H34         5.1379   54.5839   22.8392 H         1 UNK         0.0000 
     35 H35         2.9818   53.6511   23.4647 H         1 UNK         0.0000 
     36 H36         4.0178   54.2277   27.6255 H         1 UNK         0.0000 
     37 H37         6.1221   55.1293   26.9843 H         1 UNK         0.0000 
     38 H38         1.5478   52.1463   29.1404 H         1 UNK         0.0000 
     39 H39         3.0785   52.5280   28.4189 H         1 UNK         0.0000 
     40 H40        -2.4772   53.1145   26.8733 H         1 UNK         0.0000 
     41 H41        -3.2959   52.0748   28.0255 H         1 UNK         0.0000 
     42 H42        -1.8976   49.6260   26.7854 H         1 UNK         0.0000 
     43 H43        -4.5574   47.7236   24.3173 H         1 UNK         0.0000 
     44 H44        -4.8462   48.5672   25.8220 H         1 UNK         0.0000 
     45 H45        -4.8248   49.4537   24.3027 H         1 UNK         0.0000 
     46 H46        -1.7054   51.1948   23.8828 H         1 UNK         0.0000 
     47 H47        -0.5577   51.4410   21.7647 H         1 UNK         0.0000 
     48 H48        -0.2648   49.4982   20.2619 H         1 UNK         0.0000 
     49 H49        -1.1331   47.2872   20.9324 H         1 UNK         0.0000 
     50 O50         2.7080   54.4719   30.0816 O.co2     1 UNK         0.0000 
@<TRIPOS>BOND
     1    1    2 1    
     2    1   31 1    
     3    1   32 1    
     4    1   33 1    
     5    2    7 ar   
     6    2    3 ar   
     7    3    4 ar   
     8    3   34 1    
     9    4    5 ar   
    10    4   35 1    
    11    5    6 ar   
    12    5    8 1    
    13    6    7 ar   
    14    6   36 1    
    15    7   37 1    
    16    8   12 ar   
    17    8    9 ar   
    18    9   10 ar   
    19   10   11 ar   
    20   11   12 ar   
    21   11   16 1    
    22   12   13 1    
    23   13   14 1    
    24   13   38 1    
    25   13   39 1    
    26   14   15 2    
    27   14   50 1    
    28   16   17 1    
    29   17   18 1    
    30   17   40 1    
    31   17   41 1    
    32   18   19 2    
    33   18   20 am   BACKBONE|DICT|INTERRES
    34   20   21 1    
    35   20   42 1    
    36   21   22 1    
    37   21   23 1    
    38   21   24 1    
    39   23   43 1    
    40   23   44 1    
    41   23   45 1    
    42   24   29 ar   
    43   24   25 ar   
    44   25   26 ar   
    45   25   46 1    
    46   26   27 ar   
    47   26   47 1    
    48   27   28 ar   
    49   27   48 1    
    50   28   29 ar   
    51   28   49 1    
    52   29   30 1    
@<TRIPOS>SUBSTRUCTURE
     1 UNK         1 GROUP             0       ****    0 ROOT    
