@<TRIPOS>MOLECULE
ZINC14526522_4090
60   64    1
SMALL
USER_CHARGES


@<TRIPOS>ATOM
      1 C1          2.1845   49.2969   22.1176 C.3       1 UNK         0.0000 
      2 C2          1.9800   50.1387   20.8464 C.3       1 UNK         0.0000 
      3 C3          2.0418   49.2756   19.5718 C.3       1 UNK         0.0000 
      4 C4          1.7117   50.1095   18.3200 C.3       1 UNK         0.0000 
      5 N5          2.7044   51.2969   18.2270 N.4       1 UNK         0.0000 
      6 C6          2.7567   52.1519   19.5249 C.3       1 UNK         0.0000 
      7 C7          3.0529   51.2298   20.7180 C.3       1 UNK         0.0000 
      8 C8          2.4423   52.1351   16.9460 C.3       1 UNK         0.0000 
      9 C9          3.7110   52.8692   16.5538 C.2       1 UNK         0.0000 
     10 C10         4.6383   52.5090   15.5761 C.2       1 UNK         0.0000 
     11 S11         6.0293   53.5465   15.6795 S.3       1 UNK         0.0000 
     12 C12         5.2274   54.3783   16.9860 C.2       1 UNK         0.0000 
     13 N13         4.0287   53.9398   17.2555 N.2       1 UNK         0.0000 
     14 N14         5.7821   55.3595   17.7870 N.am      1 UNK         0.0000 
     15 C15         7.0607   55.7825   17.8312 C.2       1 UNK         0.0000 
     16 O16         7.9435   55.4495   17.0421 O.2       1 UNK         0.0000 
     17 C17         7.4228   56.7219   18.9906 C.3       1 UNK         0.0000 
     18 S18         6.3613   56.5980   20.4805 S.3       1 UNK         0.0000 
     19 C19         6.6674   54.8970   21.0332 C.3       1 UNK         0.0000 
     20 C20         5.9951   54.6456   22.3711 C.ar      1 UNK         0.0000 
     21 N21         6.7046   54.9705   23.5088 N.pl3     1 UNK         0.0000 
     22 H22         7.6586   55.2956   23.4102 H         1 UNK         0.0000 
     23 C23         6.3039   54.8949   24.8125 C.ar      1 UNK         0.0000 
     24 O24         7.0687   55.2333   25.7118 O.2       1 UNK         0.0000 
     25 C25         4.9316   54.3963   24.8932 C.ar      1 UNK         0.0000 
     26 C26         4.1367   54.1506   26.0198 C.2       1 UNK         0.0000 
     27 C27         2.8769   53.6967   25.6917 C.2       1 UNK         0.0000 
     28 S28         2.6026   53.6049   23.9796 S.3       1 UNK         0.0000 
     29 C29         4.2500   54.0963   23.6996 C.ar      1 UNK         0.0000 
     30 N30         4.7843   54.1999   22.4448 N.2       1 UNK         0.0000 
     31 C31         2.0509   53.3725   26.9063 C.3       1 UNK         0.0000 
     32 C32         3.1243   53.3845   28.0102 C.3       1 UNK         0.0000 
     33 C33         4.2822   54.2682   27.5153 C.3       1 UNK         0.0000 
     34 H34         3.1043   48.7130   22.0782 H         1 UNK         0.0000 
     35 H35         2.2295   49.9225   23.0106 H         1 UNK         0.0000 
     36 H36         1.3593   48.6008   22.2611 H         1 UNK         0.0000 
     37 H37         0.9993   50.6167   20.9047 H         1 UNK         0.0000 
     38 H38         1.3360   48.4482   19.6540 H         1 UNK         0.0000 
     39 H39         3.0167   48.7929   19.4713 H         1 UNK         0.0000 
     40 H40         0.6995   50.5186   18.3265 H         1 UNK         0.0000 
     41 H41         1.8731   49.5047   17.4248 H         1 UNK         0.0000 
     42 H42         3.5832   52.8532   19.4379 H         1 UNK         0.0000 
     43 H43         1.8146   52.6948   19.6168 H         1 UNK         0.0000 
     44 H44         4.0513   50.7956   20.6438 H         1 UNK         0.0000 
     45 H45         3.0843   51.8249   21.6309 H         1 UNK         0.0000 
     46 H46         1.5765   52.7704   17.1404 H         1 UNK         0.0000 
     47 H47         2.1674   51.4145   16.1736 H         1 UNK         0.0000 
     48 H48         4.6122   51.6717   14.8941 H         1 UNK         0.0000 
     49 H49         5.1682   55.7359   18.4946 H         1 UNK         0.0000 
     50 H50         7.3819   57.7460   18.6174 H         1 UNK         0.0000 
     51 H51         8.4578   56.5356   19.2813 H         1 UNK         0.0000 
     52 H52         7.7487   54.7800   21.1111 H         1 UNK         0.0000 
     53 H53         6.3044   54.1970   20.2790 H         1 UNK         0.0000 
     54 H54         1.5670   52.3965   26.8497 H         1 UNK         0.0000 
     55 H55         1.2766   54.1165   27.0915 H         1 UNK         0.0000 
     56 H56         3.4943   52.3685   28.1614 H         1 UNK         0.0000 
     57 H57         2.7278   53.7187   28.9694 H         1 UNK         0.0000 
     58 H58         4.1424   55.2950   27.8526 H         1 UNK         0.0000 
     59 H59         5.2476   53.9267   27.8919 H         1 UNK         0.0000 
     60 H60         3.6304   50.8729   18.1097 H         1 UNK         0.0000 
@<TRIPOS>BOND
     1    1    2 1    
     2    1   34 1    
     3    1   35 1    
     4    1   36 1    
     5    2    7 1    
     6    2    3 1    
     7    2   37 1    
     8    3    4 1    
     9    3   38 1    
    10    3   39 1    
    11    4    5 1    
    12    4   40 1    
    13    4   41 1    
    14    5    6 1    
    15    5    8 1    
    16    5   60 1    
    17    6    7 1    
    18    6   42 1    
    19    6   43 1    
    20    7   44 1    
    21    7   45 1    
    22    8    9 1    
    23    8   46 1    
    24    8   47 1    
    25    9   13 1    
    26    9   10 2    
    27   10   11 1    
    28   10   48 1    
    29   11   12 1    
    30   12   13 2    
    31   12   14 am   BACKBONE|DICT|INTERRES
    32   14   15 am   BACKBONE|DICT|INTERRES
    33   14   49 1    
    34   15   16 2    
    35   15   17 1    
    36   17   18 1    
    37   17   50 1    
    38   17   51 1    
    39   18   19 1    
    40   19   20 1    
    41   19   52 1    
    42   19   53 1    
    43   20   30 ar   
    44   20   21 ar   
    45   21   22 1    
    46   21   23 ar   
    47   23   24 2    
    48   23   25 ar   
    49   25   29 ar   
    50   25   26 1    
    51   26   33 1    
    52   26   27 2    
    53   27   28 1    
    54   27   31 1    
    55   28   29 1    
    56   29   30 ar   
    57   31   32 1    
    58   31   54 1    
    59   31   55 1    
    60   32   33 1    
    61   32   56 1    
    62   32   57 1    
    63   33   58 1    
    64   33   59 1    
@<TRIPOS>SUBSTRUCTURE
     1 UNK         1 GROUP             0       ****    0 ROOT    
