@<TRIPOS>MOLECULE
ZINC09105146_3104
56   58    1
SMALL
USER_CHARGES


@<TRIPOS>ATOM
      1 C1          1.9669   52.3701   31.2876 C.3       1 UNK         0.0000 
      2 C2          0.5716   52.9569   31.0232 C.3       1 UNK         0.0000 
      3 C3          0.4959   54.4749   31.2808 C.3       1 UNK         0.0000 
      4 C4          0.0638   52.5774   29.6367 C.ar      1 UNK         0.0000 
      5 C5         -0.9661   51.6471   29.4999 C.ar      1 UNK         0.0000 
      6 C6         -1.4529   51.3040   28.2405 C.ar      1 UNK         0.0000 
      7 C7         -0.9197   51.9133   27.1036 C.ar      1 UNK         0.0000 
      8 C8          0.1335   52.8162   27.2434 C.ar      1 UNK         0.0000 
      9 C9          0.6264   53.1502   28.4978 C.ar      1 UNK         0.0000 
     10 S10        -1.6339   51.5967   25.4787 S.o2      1 UNK         0.0000 
     11 O11        -1.8294   52.8964   24.8336 O.2       1 UNK         0.0000 
     12 O12        -2.7906   50.7164   25.6817 O.2       1 UNK         0.0000 
     13 C13        -0.3315   50.6457   24.4657 C.3       1 UNK         0.0000 
     14 H14        -0.9565   50.1764   23.7083 H         1 UNK         0.0000 
     15 C15         0.2874   49.4958   25.3060 C.3       1 UNK         0.0000 
     16 N16        -0.7250   48.4967   25.6814 N.am      1 UNK         0.0000 
     17 C17        -1.3229   47.6899   24.7686 C.2       1 UNK         0.0000 
     18 O18        -0.8966   47.5850   23.6163 O.2       1 UNK         0.0000 
     19 C19        -2.5894   46.9948   25.1634 C.2       1 UNK         0.0000 
     20 O20        -3.2832   46.4250   24.3104 O.2       1 UNK         0.0000 
     21 N21        -2.8956   47.0200   26.4817 N.am      1 UNK         0.0000 
     22 N22        -4.1850   46.7158   26.9530 N.am      1 UNK         0.0000 
     23 C23        -4.6703   45.4541   26.9683 C.2       1 UNK         0.0000 
     24 O24        -4.0955   44.4816   26.4814 O.2       1 UNK         0.0000 
     25 C25        -5.9635   45.3200   27.5941 C.2       1 UNK         0.0000 
     26 C26        -6.6367   46.2166   28.4320 C.2       1 UNK         0.0000 
     27 C27        -7.8534   45.7149   28.9071 C.2       1 UNK         0.0000 
     28 C28        -8.1165   44.4307   28.4564 C.2       1 UNK         0.0000 
     29 S29        -6.8523   43.8250   27.4367 S.3       1 UNK         0.0000 
     30 C30         0.6345   51.4896   23.6312 C.2       1 UNK         0.0000 
     31 C31         0.6494   51.6280   22.2381 C.2       1 UNK         0.0000 
     32 C32         1.6231   52.4957   21.7366 C.2       1 UNK         0.0000 
     33 C33         2.3871   53.0589   22.7379 C.2       1 UNK         0.0000 
     34 S34         1.8988   52.4961   24.2978 S.3       1 UNK         0.0000 
     35 H35         1.9684   51.2984   31.0912 H         1 UNK         0.0000 
     36 H36         2.7307   52.8317   30.6628 H         1 UNK         0.0000 
     37 H37         2.2529   52.4961   32.3306 H         1 UNK         0.0000 
     38 H38        -0.0949   52.4954   31.7504 H         1 UNK         0.0000 
     39 H39        -0.4900   54.8703   31.0382 H         1 UNK         0.0000 
     40 H40         0.6790   54.6997   32.3318 H         1 UNK         0.0000 
     41 H41         1.2255   55.0297   30.6895 H         1 UNK         0.0000 
     42 H42        -1.3949   51.1709   30.3734 H         1 UNK         0.0000 
     43 H43        -2.2555   50.5806   28.1603 H         1 UNK         0.0000 
     44 H44         0.5490   53.2965   26.3780 H         1 UNK         0.0000 
     45 H45         1.4285   53.8666   28.5814 H         1 UNK         0.0000 
     46 H46         0.7424   49.8838   26.2164 H         1 UNK         0.0000 
     47 H47         1.0953   49.0027   24.7549 H         1 UNK         0.0000 
     48 H48        -1.0566   48.5144   26.6472 H         1 UNK         0.0000 
     49 H49        -2.3155   47.4542   27.1981 H         1 UNK         0.0000 
     50 H50        -4.6983   47.5305   27.2573 H         1 UNK         0.0000 
     51 H51        -6.2669   47.1959   28.6966 H         1 UNK         0.0000 
     52 H52        -8.5161   46.2673   29.5600 H         1 UNK         0.0000 
     53 H53        -8.9791   43.8159   28.6749 H         1 UNK         0.0000 
     54 H54        -0.0386   51.1021   21.5910 H         1 UNK         0.0000 
     55 H55         1.7613   52.7099   20.6854 H         1 UNK         0.0000 
     56 H56         3.1999   53.7626   22.6322 H         1 UNK         0.0000 
@<TRIPOS>BOND
     1    1    2 1    
     2    1   35 1    
     3    1   36 1    
     4    1   37 1    
     5    2    3 1    
     6    2    4 1    
     7    2   38 1    
     8    3   39 1    
     9    3   40 1    
    10    3   41 1    
    11    4    9 ar   
    12    4    5 ar   
    13    5    6 ar   
    14    5   42 1    
    15    6    7 ar   
    16    6   43 1    
    17    7    8 ar   
    18    7   10 1    
    19    8    9 ar   
    20    8   44 1    
    21    9   45 1    
    22   10   11 2    
    23   10   12 2    
    24   10   13 1    
    25   13   14 1    
    26   13   15 1    
    27   13   30 1    
    28   15   16 1    
    29   15   46 1    
    30   15   47 1    
    31   16   17 am   BACKBONE|DICT|INTERRES
    32   16   48 1    
    33   17   18 2    
    34   17   19 1    
    35   19   20 2    
    36   19   21 am   BACKBONE|DICT|INTERRES
    37   21   22 1    
    38   21   49 1    
    39   22   23 am   BACKBONE|DICT|INTERRES
    40   22   50 1    
    41   23   24 2    
    42   23   25 1    
    43   25   29 1    
    44   25   26 2    
    45   26   27 1    
    46   26   51 1    
    47   27   28 2    
    48   27   52 1    
    49   28   29 1    
    50   28   53 1    
    51   30   34 1    
    52   30   31 2    
    53   31   32 1    
    54   31   54 1    
    55   32   33 2    
    56   32   55 1    
    57   33   34 1    
    58   33   56 1    
@<TRIPOS>SUBSTRUCTURE
     1 UNK         1 GROUP             0       ****    0 ROOT    
