@<TRIPOS>MOLECULE
ZINC35465703_3323
71   73    1
SMALL
USER_CHARGES


@<TRIPOS>ATOM
      1 C1         -0.3882   52.8796   23.5918 C.3       1 UNK         0.0000 
      2 C2          0.7151   51.9154   24.1196 C.3       1 UNK         0.0000 
      3 C3          0.3961   50.4211   23.8168 C.3       1 UNK         0.0000 
      4 C4         -0.9408   49.9316   24.3543 C.3       1 UNK         0.0000 
      5 C5         -1.2401   50.2657   25.8466 C.3       1 UNK         0.0000 
      6 H6         -0.7118   49.4133   26.2776 H         1 UNK         0.0000 
      7 C7         -0.4353   51.4941   26.5550 C.3       1 UNK         0.0000 
      8 C8          0.8201   51.9651   25.6823 C.3       1 UNK         0.0000 
      9 H9          1.5040   51.1666   25.8757 H         1 UNK         0.0000 
     10 C10         1.6048   53.1816   26.2244 C.3       1 UNK         0.0000 
     11 C11         2.9645   53.3836   25.5856 C.2       1 UNK         0.0000 
     12 C12         4.0333   53.4863   26.4114 C.2       1 UNK         0.0000 
     13 C13         2.9066   53.5046   24.0272 C.3       1 UNK         0.0000 
     14 C14         2.1293   52.2487   23.4548 C.3       1 UNK         0.0000 
     15 H15         2.7043   51.3744   23.7235 H         1 UNK         0.0000 
     16 C16         2.1406   52.1851   21.8904 C.2       1 UNK         0.0000 
     17 O17         1.2478   51.7799   21.1488 O.2       1 UNK         0.0000 
     18 O18         3.2279   52.6703   21.2338 O.3       1 UNK         0.0000 
     19 C19         4.4110   53.2204   21.8514 C.3       1 UNK         0.0000 
     20 C20         4.2995   53.6973   23.3339 C.2       1 UNK         0.0000 
     21 O21         5.2501   54.2535   23.8912 O.2       1 UNK         0.0000 
     22 C22         5.4819   52.0972   21.7988 C.3       1 UNK         0.0000 
     23 C23         4.9759   54.3693   20.9437 C.2       1 UNK         0.0000 
     24 O24         5.9362   55.0705   21.2818 O.2       1 UNK         0.0000 
     25 O25         4.3435   54.4919   19.7486 O.3       1 UNK         0.0000 
     26 C26         4.7862   55.4320   18.7801 C.3       1 UNK         0.0000 
     27 C27         2.1754   54.8145   23.6780 C.3       1 UNK         0.0000 
     28 C28        -1.4137   52.6850   26.7188 C.3       1 UNK         0.0000 
     29 C29         0.1257   50.9954   27.9586 C.3       1 UNK         0.0000 
     30 C30         0.0938   51.9001   29.2478 C.3       1 UNK         0.0000 
     31 C31         1.4549   52.4474   29.7254 C.2       1 UNK         0.0000 
     32 O32         2.4541   51.6969   29.6628 O.co2     1 UNK         0.0000 
     33 O33         1.4772   53.6162   30.1720 O.co2     1 UNK         0.0000 
     34 C34        -2.7684   49.9573   26.1710 C.3       1 UNK         0.0000 
     35 C35        -3.7991   50.8470   25.4298 C.3       1 UNK         0.0000 
     36 C36        -3.1445   48.4758   25.9114 C.3       1 UNK         0.0000 
     37 O37        -3.0278   50.0973   27.5456 O.3       1 UNK         0.0000 
     38 H38        -0.5324   53.7375   24.2386 H         1 UNK         0.0000 
     39 H39        -0.1151   53.2963   22.6323 H         1 UNK         0.0000 
     40 H40        -1.3701   52.4299   23.4749 H         1 UNK         0.0000 
     41 H41         0.3629   50.2276   22.7473 H         1 UNK         0.0000 
     42 H42         1.1937   49.7700   24.1809 H         1 UNK         0.0000 
     43 H43        -1.7025   50.3807   23.7226 H         1 UNK         0.0000 
     44 H44        -1.0343   48.8607   24.1665 H         1 UNK         0.0000 
     45 H45         1.1046   54.0979   26.0686 H         1 UNK         0.0000 
     46 H46         1.7131   53.1075   27.2940 H         1 UNK         0.0000 
     47 H47         3.9043   53.4047   27.4829 H         1 UNK         0.0000 
     48 H48         5.0481   53.6366   26.0913 H         1 UNK         0.0000 
     49 H49         5.8755   51.9468   20.7914 H         1 UNK         0.0000 
     50 H50         6.3121   52.2751   22.4807 H         1 UNK         0.0000 
     51 H51         5.0456   51.1435   22.0805 H         1 UNK         0.0000 
     52 H52         4.8272   56.4418   19.1898 H         1 UNK         0.0000 
     53 H53         5.7798   55.1700   18.4139 H         1 UNK         0.0000 
     54 H54         4.1014   55.4387   17.9325 H         1 UNK         0.0000 
     55 H55         2.7046   55.6763   24.0804 H         1 UNK         0.0000 
     56 H56         2.0596   54.8993   22.5971 H         1 UNK         0.0000 
     57 H57         1.1806   54.8962   24.0842 H         1 UNK         0.0000 
     58 H58        -2.2895   52.4190   27.2976 H         1 UNK         0.0000 
     59 H59        -0.9597   53.4978   27.2818 H         1 UNK         0.0000 
     60 H60        -1.7894   53.0804   25.7831 H         1 UNK         0.0000 
     61 H61        -0.4957   50.1686   28.2384 H         1 UNK         0.0000 
     62 H62         1.0899   50.4974   27.8487 H         1 UNK         0.0000 
     63 H63        -0.6373   52.7031   29.2021 H         1 UNK         0.0000 
     64 H64        -0.2629   51.2971   30.0814 H         1 UNK         0.0000 
     65 H65        -3.7886   50.6768   24.3536 H         1 UNK         0.0000 
     66 H66        -4.8162   50.6270   25.7603 H         1 UNK         0.0000 
     67 H67        -3.6569   51.9099   25.5923 H         1 UNK         0.0000 
     68 H68        -2.4930   47.7874   26.4515 H         1 UNK         0.0000 
     69 H69        -4.1637   48.2567   26.2359 H         1 UNK         0.0000 
     70 H70        -3.0986   48.2227   24.8528 H         1 UNK         0.0000 
     71 H71        -2.4455   49.4524   28.0069 H         1 UNK         0.0000 
@<TRIPOS>BOND
     1    1    2 1    
     2    1   38 1    
     3    1   39 1    
     4    1   40 1    
     5    2    8 1    
     6    2   14 1    
     7    2    3 1    
     8    3    4 1    
     9    3   41 1    
    10    3   42 1    
    11    4    5 1    
    12    4   43 1    
    13    4   44 1    
    14    5    6 1    
    15    5    7 1    
    16    5   34 1    
    17    7    8 1    
    18    7   28 1    
    19    7   29 1    
    20    8    9 1    
    21    8   10 1    
    22   10   11 1    
    23   10   45 1    
    24   10   46 1    
    25   11   12 2    
    26   11   13 1    
    27   12   47 1    
    28   12   48 1    
    29   13   20 1    
    30   13   14 1    
    31   13   27 1    
    32   14   15 1    
    33   14   16 1    
    34   16   17 2    
    35   16   18 1    
    36   18   19 1    
    37   19   20 1    
    38   19   22 1    
    39   19   23 1    
    40   20   21 2    
    41   22   49 1    
    42   22   50 1    
    43   22   51 1    
    44   23   24 2    
    45   23   25 1    
    46   25   26 1    
    47   26   52 1    
    48   26   53 1    
    49   26   54 1    
    50   27   55 1    
    51   27   56 1    
    52   27   57 1    
    53   28   58 1    
    54   28   59 1    
    55   28   60 1    
    56   29   30 1    
    57   29   61 1    
    58   29   62 1    
    59   30   31 1    
    60   30   63 1    
    61   30   64 1    
    62   31   32 2    
    63   31   33 1    
    64   34   35 1    
    65   34   36 1    
    66   34   37 1    
    67   35   65 1    
    68   35   66 1    
    69   35   67 1    
    70   36   68 1    
    71   36   69 1    
    72   36   70 1    
    73   37   71 1    
@<TRIPOS>SUBSTRUCTURE
     1 UNK         1 GROUP             0       ****    0 ROOT    
