@<TRIPOS>MOLECULE
ZINC08735181_3705
57   61    1
SMALL
USER_CHARGES


@<TRIPOS>ATOM
      1 C1          0.6528   46.8560   15.7214 C.3       1 UNK         0.0000 
      2 C2          1.1775   47.6238   16.9486 C.3       1 UNK         0.0000 
      3 H3          2.2200   47.3213   17.0781 H         1 UNK         0.0000 
      4 C4          0.3534   47.3003   18.2114 C.3       1 UNK         0.0000 
      5 C5          1.0289   47.8550   19.4826 C.3       1 UNK         0.0000 
      6 C6          1.4529   49.3156   19.2636 C.2       1 UNK         0.0000 
      7 C7          1.4861   49.8795   17.9740 C.2       1 UNK         0.0000 
      8 S8          1.9043   51.5606   17.9958 S.3       1 UNK         0.0000 
      9 C9          2.0766   51.5154   19.7122 C.2       1 UNK         0.0000 
     10 C10         1.7647   50.2675   20.2713 C.2       1 UNK         0.0000 
     11 C11         1.7218   50.0259   21.6947 C.2       1 UNK         0.0000 
     12 O12         1.2167   50.8147   22.4900 O.2       1 UNK         0.0000 
     13 N13         2.3043   48.8968   22.0817 N.am      1 UNK         0.0000 
     14 N14         2.5249   52.6746   20.3151 N.am      1 UNK         0.0000 
     15 C15         3.6427   52.7310   21.0678 C.2       1 UNK         0.0000 
     16 O16         4.3841   51.7657   21.2805 O.2       1 UNK         0.0000 
     17 C17         3.9638   54.1112   21.6454 C.3       1 UNK         0.0000 
     18 S18         5.2737   54.1007   22.9099 S.3       1 UNK         0.0000 
     19 C19         4.3427   54.0917   24.4199 C.ar      1 UNK         0.0000 
     20 N20         3.0443   53.9545   24.5370 N.2       1 UNK         0.0000 
     21 N21         2.7612   53.7974   25.8922 N.2       1 UNK         0.0000 
     22 C22         3.8947   53.8836   26.5489 C.ar      1 UNK         0.0000 
     23 N23         4.9314   54.0996   25.6639 N.pl3     1 UNK         0.0000 
     24 C24         6.3629   54.2175   25.9054 C.3       1 UNK         0.0000 
     25 C25         7.0028   55.5245   25.4849 C.3       1 UNK         0.0000 
     26 C26         6.9157   55.1629   26.9480 C.3       1 UNK         0.0000 
     27 C27         4.0777   53.6119   28.0392 C.3       1 UNK         0.0000 
     28 C28         2.8277   53.8366   28.8715 C.2       1 UNK         0.0000 
     29 C29         2.2576   55.0356   29.3039 C.2       1 UNK         0.0000 
     30 C30         1.1045   54.8795   30.0805 C.2       1 UNK         0.0000 
     31 C31         0.7442   53.5509   30.2301 C.2       1 UNK         0.0000 
     32 S32         1.8385   52.4981   29.3979 S.3       1 UNK         0.0000 
     33 C33         1.1415   49.1474   16.6829 C.3       1 UNK         0.0000 
     34 H34        -0.3828   47.1148   15.4984 H         1 UNK         0.0000 
     35 H35         1.2478   47.0762   14.8349 H         1 UNK         0.0000 
     36 H36         0.6983   45.7777   15.8808 H         1 UNK         0.0000 
     37 H37         0.2592   46.2190   18.3187 H         1 UNK         0.0000 
     38 H38        -0.6733   47.6506   18.0977 H         1 UNK         0.0000 
     39 H39         0.3500   47.7560   20.3305 H         1 UNK         0.0000 
     40 H40         1.9059   47.2568   19.7229 H         1 UNK         0.0000 
     41 H41         2.8990   48.4079   21.4306 H         1 UNK         0.0000 
     42 H42         2.3438   48.6641   23.0678 H         1 UNK         0.0000 
     43 H43         2.0594   53.5440   20.0812 H         1 UNK         0.0000 
     44 H44         4.3215   54.7224   20.8175 H         1 UNK         0.0000 
     45 H45         3.0610   54.5982   22.0145 H         1 UNK         0.0000 
     46 H46         6.9018   53.2922   25.7218 H         1 UNK         0.0000 
     47 H47         7.9039   55.4267   24.8822 H         1 UNK         0.0000 
     48 H48         6.3579   56.3162   25.0989 H         1 UNK         0.0000 
     49 H49         6.2247   55.6971   27.5951 H         1 UNK         0.0000 
     50 H50         7.7948   54.8333   27.5011 H         1 UNK         0.0000 
     51 H51         4.4368   52.5895   28.1685 H         1 UNK         0.0000 
     52 H52         4.8652   54.2346   28.4578 H         1 UNK         0.0000 
     53 H53         2.6819   56.0032   29.0756 H         1 UNK         0.0000 
     54 H54         0.5521   55.7020   30.5128 H         1 UNK         0.0000 
     55 H55        -0.0951   53.1390   30.7730 H         1 UNK         0.0000 
     56 H56         1.8545   49.4047   15.8989 H         1 UNK         0.0000 
     57 H57         0.1511   49.4496   16.3391 H         1 UNK         0.0000 
@<TRIPOS>BOND
     1    1    2 1    
     2    1   34 1    
     3    1   35 1    
     4    1   36 1    
     5    2    3 1    
     6    2   33 1    
     7    2    4 1    
     8    4    5 1    
     9    4   37 1    
    10    4   38 1    
    11    5    6 1    
    12    5   39 1    
    13    5   40 1    
    14    6   10 1    
    15    6    7 2    
    16    7    8 1    
    17    7   33 1    
    18    8    9 1    
    19    9   10 2    
    20    9   14 am   BACKBONE|DICT|INTERRES
    21   10   11 1    
    22   11   12 2    
    23   11   13 am   BACKBONE|DICT|INTERRES
    24   13   41 1    
    25   13   42 1    
    26   14   15 am   BACKBONE|DICT|INTERRES
    27   14   43 1    
    28   15   16 2    
    29   15   17 1    
    30   17   18 1    
    31   17   44 1    
    32   17   45 1    
    33   18   19 1    
    34   19   23 ar   
    35   19   20 ar   
    36   20   21 ar   
    37   21   22 ar   
    38   22   23 ar   
    39   22   27 1    
    40   23   24 1    
    41   24   26 1    
    42   24   25 1    
    43   24   46 1    
    44   25   26 1    
    45   25   47 1    
    46   25   48 1    
    47   26   49 1    
    48   26   50 1    
    49   27   28 1    
    50   27   51 1    
    51   27   52 1    
    52   28   32 1    
    53   28   29 2    
    54   29   30 1    
    55   29   53 1    
    56   30   31 2    
    57   30   54 1    
    58   31   32 1    
    59   31   55 1    
    60   33   56 1    
    61   33   57 1    
@<TRIPOS>SUBSTRUCTURE
     1 UNK         1 GROUP             0       ****    0 ROOT    
