@<TRIPOS>MOLECULE
ZINC28467098_4437
46   48    1
SMALL
USER_CHARGES


@<TRIPOS>ATOM
      1 C1          3.2976   52.9067   30.0871 C.3       1 UNK         0.0000 
      2 O2          2.1997   52.0928   29.6902 O.3       1 UNK         0.0000 
      3 C3          1.6950   52.2347   28.4117 C.ar      1 UNK         0.0000 
      4 C4          2.0421   53.2667   27.5349 C.ar      1 UNK         0.0000 
      5 C5          1.5060   53.2966   26.2524 C.ar      1 UNK         0.0000 
      6 C6          0.6831   52.2691   25.7779 C.ar      1 UNK         0.0000 
      7 C7          0.3015   51.2672   26.6744 C.ar      1 UNK         0.0000 
      8 C8          0.7787   51.2806   27.9827 C.ar      1 UNK         0.0000 
      9 C9          0.1032   52.3545   24.3970 C.2       1 UNK         0.0000 
     10 O10        -0.6165   53.2966   24.0674 O.2       1 UNK         0.0000 
     11 C11         0.6271   51.3792   23.2938 C.3       1 UNK         0.0000 
     12 H12         1.3892   50.7636   23.7745 H         1 UNK         0.0000 
     13 C13         1.3416   52.1477   22.0791 C.3       1 UNK         0.0000 
     14 H14         0.6718   52.9252   21.7077 H         1 UNK         0.0000 
     15 N15         1.5080   51.2090   20.9505 N.pl3     1 UNK         0.0000 
     16 C16         1.0362   49.9415   20.8437 C.2       1 UNK         0.0000 
     17 S17         1.5013   48.9311   19.6241 S.2       1 UNK         0.0000 
     18 N18         0.1365   49.5464   21.7767 N.pl3     1 UNK         0.0000 
     19 C19        -0.5124   50.3953   22.7826 C.3       1 UNK         0.0000 
     20 C20        -1.1871   49.5094   23.8804 C.3       1 UNK         0.0000 
     21 F21        -1.9741   48.5785   23.3334 F         1 UNK         0.0000 
     22 F22        -0.2742   48.8547   24.5996 F         1 UNK         0.0000 
     23 F23        -1.9600   50.2023   24.7188 F         1 UNK         0.0000 
     24 O24        -1.5525   51.1265   22.1465 O.3       1 UNK         0.0000 
     25 C25         2.6398   52.8924   22.4488 C.ar      1 UNK         0.0000 
     26 C26         2.5752   54.0035   23.2820 C.ar      1 UNK         0.0000 
     27 C27         3.7300   54.5005   23.8680 C.ar      1 UNK         0.0000 
     28 C28         4.9793   54.0224   23.4912 C.ar      1 UNK         0.0000 
     29 C29         5.0655   53.0658   22.4809 C.ar      1 UNK         0.0000 
     30 C30         3.8985   52.4964   21.9695 C.ar      1 UNK         0.0000 
     31 C31         6.1648   54.4959   24.1963 C.1       1 UNK         0.0000 
     32 N32         7.0975   54.8705   24.7716 N.1       1 UNK         0.0000 
     33 H33         3.6143   52.6203   31.0897 H         1 UNK         0.0000 
     34 H34         4.1536   52.7735   29.4228 H         1 UNK         0.0000 
     35 H35         3.0256   53.9626   30.1106 H         1 UNK         0.0000 
     36 H36         2.7093   54.0594   27.8343 H         1 UNK         0.0000 
     37 H37         1.7468   54.1460   25.6449 H         1 UNK         0.0000 
     38 H38        -0.3859   50.4829   26.4058 H         1 UNK         0.0000 
     39 H39         0.4507   50.5052   28.6591 H         1 UNK         0.0000 
     40 H40         2.0502   51.5040   20.1504 H         1 UNK         0.0000 
     41 H41        -0.2956   48.6616   21.5546 H         1 UNK         0.0000 
     42 H42        -1.1598   51.6162   21.4209 H         1 UNK         0.0000 
     43 H43         1.6231   54.4340   23.5485 H         1 UNK         0.0000 
     44 H44         3.6426   55.2932   24.6004 H         1 UNK         0.0000 
     45 H45         6.0175   52.6804   22.1575 H         1 UNK         0.0000 
     46 H46         3.9981   51.6830   21.2653 H         1 UNK         0.0000 
@<TRIPOS>BOND
     1    1    2 1    
     2    1   33 1    
     3    1   34 1    
     4    1   35 1    
     5    2    3 1    
     6    3    8 ar   
     7    3    4 ar   
     8    4    5 ar   
     9    4   36 1    
    10    5    6 ar   
    11    5   37 1    
    12    6    7 ar   
    13    6    9 1    
    14    7    8 ar   
    15    7   38 1    
    16    8   39 1    
    17    9   10 2    
    18    9   11 1    
    19   11   12 1    
    20   11   19 1    
    21   11   13 1    
    22   13   14 1    
    23   13   15 1    
    24   13   25 1    
    25   15   16 1    
    26   15   40 1    
    27   16   17 2    
    28   16   18 1    
    29   18   19 1    
    30   18   41 1    
    31   19   20 1    
    32   19   24 1    
    33   20   21 1    
    34   20   22 1    
    35   20   23 1    
    36   24   42 1    
    37   25   30 ar   
    38   25   26 ar   
    39   26   27 ar   
    40   26   43 1    
    41   27   28 ar   
    42   27   44 1    
    43   28   29 ar   
    44   28   31 1    
    45   29   30 ar   
    46   29   45 1    
    47   30   46 1    
    48   31   32 3    
@<TRIPOS>SUBSTRUCTURE
     1 UNK         1 GROUP             0       ****    0 ROOT    
