@<TRIPOS>MOLECULE
ZINC63581953_2173
51   54    1
SMALL
USER_CHARGES


@<TRIPOS>ATOM
      1 C1         -1.1787   52.3127   26.1070 C.2       1 UNK         0.0000 
      2 C2         -0.9464   51.0720   26.8371 C.2       1 UNK         0.0000 
      3 C3         -0.2281   50.0516   26.3010 C.2       1 UNK         0.0000 
      4 C4          0.3044   50.1615   25.0125 C.2       1 UNK         0.0000 
      5 N5          1.0117   49.2968   24.3353 N.pl3     1 UNK         0.0000 
      6 C6          1.3480   49.8345   23.0130 C.3       1 UNK         0.0000 
      7 C7          0.6970   51.2003   23.0598 C.2       1 UNK         0.0000 
      8 C8          0.1162   51.3289   24.2695 C.2       1 UNK         0.0000 
      9 C9         -0.6614   52.4273   24.8668 C.2       1 UNK         0.0000 
     10 C10         0.7460   52.1448   21.8692 C.3       1 UNK         0.0000 
     11 C11         2.0698   52.1936   21.0827 C.3       1 UNK         0.0000 
     12 N12         3.1766   52.8067   21.8299 N.am      1 UNK         0.0000 
     13 C13         4.0325   53.7092   21.2918 C.2       1 UNK         0.0000 
     14 O14         3.9071   54.0296   20.1103 O.2       1 UNK         0.0000 
     15 C15         5.0619   54.3085   22.1633 C.2       1 UNK         0.0000 
     16 C16         6.0769   55.0636   21.6299 C.2       1 UNK         0.0000 
     17 C17         6.3931   55.4359   20.2300 C.ar      1 UNK         0.0000 
     18 C18         6.4952   56.7953   19.9108 C.ar      1 UNK         0.0000 
     19 C19         6.8165   57.1942   18.6129 C.ar      1 UNK         0.0000 
     20 C20         7.0281   56.2044   17.6523 C.ar      1 UNK         0.0000 
     21 N21         6.9345   54.8797   17.9280 N.ar      1 UNK         0.0000 
     22 C22         6.6186   54.5140   19.1967 C.ar      1 UNK         0.0000 
     23 N23         4.8928   54.0971   23.5248 N.am      1 UNK         0.0000 
     24 C24         5.6270   54.4967   24.5939 C.2       1 UNK         0.0000 
     25 O25         6.7041   55.0890   24.5563 O.2       1 UNK         0.0000 
     26 C26         5.0277   54.1470   25.8606 C.2       1 UNK         0.0000 
     27 C27         3.6772   53.9502   26.1722 C.2       1 UNK         0.0000 
     28 C28         3.4588   53.6968   27.5320 C.2       1 UNK         0.0000 
     29 C29         4.6286   53.7362   28.2763 C.2       1 UNK         0.0000 
     30 S30         6.0150   54.0983   27.2996 S.3       1 UNK         0.0000 
     31 H31        -1.7530   53.1124   26.5503 H         1 UNK         0.0000 
     32 H32        -1.3620   50.9439   27.8291 H         1 UNK         0.0000 
     33 H33        -0.0939   49.1488   26.8809 H         1 UNK         0.0000 
     34 H34         0.9265   49.1709   22.2563 H         1 UNK         0.0000 
     35 H35         2.4353   49.8566   22.9248 H         1 UNK         0.0000 
     36 H36        -0.8383   53.3476   24.3291 H         1 UNK         0.0000 
     37 H37         0.4563   53.1483   22.1797 H         1 UNK         0.0000 
     38 H38        -0.0324   51.7965   21.1881 H         1 UNK         0.0000 
     39 H39         1.8673   52.7264   20.1488 H         1 UNK         0.0000 
     40 H40         2.3776   51.1917   20.7747 H         1 UNK         0.0000 
     41 H41         3.3705   52.4199   22.7405 H         1 UNK         0.0000 
     42 H42         6.8084   55.4910   22.2933 H         1 UNK         0.0000 
     43 H43         6.3050   57.5376   20.6676 H         1 UNK         0.0000 
     44 H44         6.8780   58.2412   18.3540 H         1 UNK         0.0000 
     45 H45         7.2718   56.4657   16.6335 H         1 UNK         0.0000 
     46 H46         6.5155   53.4526   19.3548 H         1 UNK         0.0000 
     47 H47         4.0247   53.6549   23.7687 H         1 UNK         0.0000 
     48 H48         2.8709   53.9861   25.4536 H         1 UNK         0.0000 
     49 H49         2.4854   53.5010   27.9559 H         1 UNK         0.0000 
     50 H50         4.7445   53.5831   29.3384 H         1 UNK         0.0000 
     51 H51         1.3209   48.3819   24.6690 H         1 UNK         0.0000 
@<TRIPOS>BOND
     1    1    9 2    
     2    1    2 1    
     3    1   31 1    
     4    2    3 2    
     5    2   32 1    
     6    3    4 1    
     7    3   33 1    
     8    4    8 1    
     9    4    5 2    
    10    5    6 1    
    11    5   51 1    
    12    6    7 1    
    13    6   34 1    
    14    6   35 1    
    15    7    8 2    
    16    7   10 1    
    17    8    9 1    
    18    9   36 1    
    19   10   11 1    
    20   10   37 1    
    21   10   38 1    
    22   11   12 1    
    23   11   39 1    
    24   11   40 1    
    25   12   13 am   BACKBONE|DICT|INTERRES
    26   12   41 1    
    27   13   14 2    
    28   13   15 1    
    29   15   16 2    
    30   15   23 1    
    31   16   17 1    
    32   16   42 1    
    33   17   22 ar   
    34   17   18 ar   
    35   18   19 ar   
    36   18   43 1    
    37   19   20 ar   
    38   19   44 1    
    39   20   21 ar   
    40   20   45 1    
    41   21   22 ar   
    42   22   46 1    
    43   23   24 am   BACKBONE|DICT|INTERRES
    44   23   47 1    
    45   24   25 2    
    46   24   26 1    
    47   26   30 1    
    48   26   27 2    
    49   27   28 1    
    50   27   48 1    
    51   28   29 2    
    52   28   49 1    
    53   29   30 1    
    54   29   50 1    
@<TRIPOS>SUBSTRUCTURE
     1 UNK         1 GROUP             0       ****    0 ROOT    
