@<TRIPOS>MOLECULE
ZINC08416964_4260
45   48    1
SMALL
USER_CHARGES


@<TRIPOS>ATOM
      1 C1          0.6634   54.0800   30.8629 C.ar      1 UNK         0.0000 
      2 C2          1.1044   55.1631   30.1065 C.ar      1 UNK         0.0000 
      3 C3          1.8163   54.9421   28.9323 C.ar      1 UNK         0.0000 
      4 C4          2.1052   53.6340   28.5140 C.ar      1 UNK         0.0000 
      5 C5          1.6639   52.5540   29.2890 C.ar      1 UNK         0.0000 
      6 C6          0.9372   52.7769   30.4578 C.ar      1 UNK         0.0000 
      7 C7          2.8927   53.3660   27.2191 C.3       1 UNK         0.0000 
      8 H8          3.2358   52.3340   27.2798 H         1 UNK         0.0000 
      9 C9          1.9525   53.4920   25.9957 C.3       1 UNK         0.0000 
     10 C10         2.6169   53.1790   24.6348 C.3       1 UNK         0.0000 
     11 C11         4.0247   53.7716   24.5386 C.2       1 UNK         0.0000 
     12 C12         4.7073   54.2457   25.6639 C.2       1 UNK         0.0000 
     13 S13         6.2759   54.8715   25.2617 S.3       1 UNK         0.0000 
     14 C14         6.0412   54.4955   23.5873 C.2       1 UNK         0.0000 
     15 C15         4.7955   53.8746   23.3572 C.2       1 UNK         0.0000 
     16 C16         4.3461   53.3198   22.0819 C.1       1 UNK         0.0000 
     17 N17         3.9932   52.8704   21.0775 N.1       1 UNK         0.0000 
     18 N18         7.1044   54.7884   22.7345 N.am      1 UNK         0.0000 
     19 C19         6.9726   55.2975   21.4906 C.2       1 UNK         0.0000 
     20 O20         5.9054   55.6858   21.0228 O.2       1 UNK         0.0000 
     21 C21         8.2516   55.4754   20.6541 C.3       1 UNK         0.0000 
     22 S22         8.0712   55.0045   18.8864 S.3       1 UNK         0.0000 
     23 C23         7.2851   56.4427   18.2299 C.2       1 UNK         0.0000 
     24 N24         7.0440   57.5435   18.8968 N.2       1 UNK         0.0000 
     25 N25         6.3779   58.5033   18.1588 N.2       1 UNK         0.0000 
     26 C26         6.1437   58.1214   16.9356 C.2       1 UNK         0.0000 
     27 S27         6.7077   56.5149   16.5858 S.3       1 UNK         0.0000 
     28 N28         5.5237   58.8966   16.0002 N.pl3     1 UNK         0.0000 
     29 C29         4.1525   54.2724   27.0794 C.3       1 UNK         0.0000 
     30 H30         0.0985   54.2477   31.7688 H         1 UNK         0.0000 
     31 H31         0.8833   56.1712   30.4267 H         1 UNK         0.0000 
     32 H32         2.1194   55.8001   28.3517 H         1 UNK         0.0000 
     33 H33         1.8654   51.5386   28.9803 H         1 UNK         0.0000 
     34 H34         0.5746   51.9481   31.0494 H         1 UNK         0.0000 
     35 H35         1.1202   52.7942   26.1093 H         1 UNK         0.0000 
     36 H36         1.5095   54.4831   25.9513 H         1 UNK         0.0000 
     37 H37         1.9820   53.5599   23.8340 H         1 UNK         0.0000 
     38 H38         2.6622   52.0998   24.4886 H         1 UNK         0.0000 
     39 H39         8.0315   54.8345   23.1492 H         1 UNK         0.0000 
     40 H40         9.0629   54.8967   21.0814 H         1 UNK         0.0000 
     41 H41         8.6004   56.4966   20.7253 H         1 UNK         0.0000 
     42 H42         5.2237   59.8434   16.2360 H         1 UNK         0.0000 
     43 H43         5.3127   58.5716   15.0710 H         1 UNK         0.0000 
     44 H44         4.9102   53.9704   27.8050 H         1 UNK         0.0000 
     45 H45         3.9057   55.2967   27.3109 H         1 UNK         0.0000 
@<TRIPOS>BOND
     1    1    6 ar   
     2    1    2 ar   
     3    1   30 1    
     4    2    3 ar   
     5    2   31 1    
     6    3    4 ar   
     7    3   32 1    
     8    4    5 ar   
     9    4    7 1    
    10    5    6 ar   
    11    5   33 1    
    12    6   34 1    
    13    7    8 1    
    14    7   29 1    
    15    7    9 1    
    16    9   10 1    
    17    9   35 1    
    18    9   36 1    
    19   10   11 1    
    20   10   37 1    
    21   10   38 1    
    22   11   15 1    
    23   11   12 2    
    24   12   13 1    
    25   12   29 1    
    26   13   14 1    
    27   14   15 2    
    28   14   18 am   BACKBONE|DICT|INTERRES
    29   15   16 1    
    30   16   17 3    
    31   18   19 am   BACKBONE|DICT|INTERRES
    32   18   39 1    
    33   19   20 2    
    34   19   21 1    
    35   21   22 1    
    36   21   40 1    
    37   21   41 1    
    38   22   23 1    
    39   23   27 1    
    40   23   24 2    
    41   24   25 1    
    42   25   26 2    
    43   26   27 1    
    44   26   28 1    
    45   28   42 1    
    46   28   43 1    
    47   29   44 1    
    48   29   45 1    
@<TRIPOS>SUBSTRUCTURE
     1 UNK         1 GROUP             0       ****    0 ROOT    
