@<TRIPOS>MOLECULE
ZINC32527475_4540
64   67    1
SMALL
USER_CHARGES


@<TRIPOS>ATOM
      1 C1          5.5045   55.6289   20.1926 C.3       1 UNK         0.0000 
      2 C2          4.5080   54.4871   20.4548 C.3       1 UNK         0.0000 
      3 C3          4.8104   53.5451   21.6726 C.3       1 UNK         0.0000 
      4 H4          5.8101   53.2151   21.3831 H         1 UNK         0.0000 
      5 C5          4.1245   52.1558   21.5198 C.2       1 UNK         0.0000 
      6 O6          4.7042   51.2844   20.8819 O.2       1 UNK         0.0000 
      7 N7          2.9191   51.9628   22.0681 N.am      1 UNK         0.0000 
      8 C8          2.0779   50.8738   21.9445 C.2       1 UNK         0.0000 
      9 C9          1.5570   50.2058   20.8166 C.2       1 UNK         0.0000 
     10 C10         0.6071   49.2139   21.1916 C.2       1 UNK         0.0000 
     11 C11         0.3905   49.2156   22.5682 C.2       1 UNK         0.0000 
     12 S12         1.3718   50.3392   23.4264 S.3       1 UNK         0.0000 
     13 C13        -0.1511   48.2862   20.2967 C.ar      1 UNK         0.0000 
     14 C14         0.5174   47.3360   19.5181 C.ar      1 UNK         0.0000 
     15 C15        -0.2025   46.4659   18.7059 C.ar      1 UNK         0.0000 
     16 C16        -1.5961   46.5386   18.6706 C.ar      1 UNK         0.0000 
     17 C17        -2.2696   47.4848   19.4464 C.ar      1 UNK         0.0000 
     18 C18        -1.5477   48.3528   20.2620 C.ar      1 UNK         0.0000 
     19 C19        -2.3753   45.5991   17.7679 C.3       1 UNK         0.0000 
     20 C20         1.9238   50.4930   19.4547 C.2       1 UNK         0.0000 
     21 O21         1.5270   51.4983   18.8723 O.2       1 UNK         0.0000 
     22 N22         2.7041   49.5725   18.8880 N.am      1 UNK         0.0000 
     23 N23         4.9909   54.0974   23.0951 N.pl3     1 UNK         0.0000 
     24 C24         6.2795   54.5318   23.3321 C.ar      1 UNK         0.0000 
     25 O25         7.1226   54.7908   22.4816 O.2       1 UNK         0.0000 
     26 C26         6.6774   54.6117   24.7174 C.ar      1 UNK         0.0000 
     27 C27         5.8897   54.3139   25.7621 C.ar      1 UNK         0.0000 
     28 C28         4.4631   53.9998   25.5064 C.ar      1 UNK         0.0000 
     29 C29         3.9921   54.0573   24.1642 C.ar      1 UNK         0.0000 
     30 C30         2.5836   54.0513   24.0012 C.ar      1 UNK         0.0000 
     31 C31         1.7441   53.6967   25.0575 C.ar      1 UNK         0.0000 
     32 C32         2.2464   53.4961   26.3363 C.ar      1 UNK         0.0000 
     33 C33         3.5998   53.6974   26.5659 C.ar      1 UNK         0.0000 
     34 C34         1.3262   53.1115   27.4784 C.3       1 UNK         0.0000 
     35 C35         1.8786   54.5663   22.7682 C.3       1 UNK         0.0000 
     36 C36         6.4248   54.3408   27.1896 C.3       1 UNK         0.0000 
     37 H37         5.2238   56.1859   19.2972 H         1 UNK         0.0000 
     38 H38         5.5334   56.3334   21.0214 H         1 UNK         0.0000 
     39 H39         6.5120   55.2472   20.0285 H         1 UNK         0.0000 
     40 H40         4.5276   53.8778   19.5484 H         1 UNK         0.0000 
     41 H41         3.5048   54.8926   20.4478 H         1 UNK         0.0000 
     42 H42         2.6315   52.6589   22.7413 H         1 UNK         0.0000 
     43 H43        -0.2872   48.5837   23.1225 H         1 UNK         0.0000 
     44 H44         1.5944   47.2606   19.5494 H         1 UNK         0.0000 
     45 H45         0.3250   45.7391   18.1049 H         1 UNK         0.0000 
     46 H46        -3.3496   47.5486   19.4186 H         1 UNK         0.0000 
     47 H47        -2.0737   49.0834   20.8602 H         1 UNK         0.0000 
     48 H48        -1.8758   45.5014   16.8026 H         1 UNK         0.0000 
     49 H49        -2.4441   44.6078   18.2164 H         1 UNK         0.0000 
     50 H50        -3.3801   45.9727   17.5662 H         1 UNK         0.0000 
     51 H51         3.0678   49.6984   17.9438 H         1 UNK         0.0000 
     52 H52         3.1191   48.8549   19.4585 H         1 UNK         0.0000 
     53 H53         7.7120   54.8633   24.8820 H         1 UNK         0.0000 
     54 H54         0.6771   53.6420   24.8949 H         1 UNK         0.0000 
     55 H55         3.9710   53.6066   27.5748 H         1 UNK         0.0000 
     56 H56         0.4245   52.6155   27.1140 H         1 UNK         0.0000 
     57 H57         1.0402   53.9929   28.0534 H         1 UNK         0.0000 
     58 H58         1.8201   52.4073   28.1498 H         1 UNK         0.0000 
     59 H59         1.3590   53.8263   22.1634 H         1 UNK         0.0000 
     60 H60         1.1044   55.2627   23.0859 H         1 UNK         0.0000 
     61 H61         2.5521   55.1758   22.1813 H         1 UNK         0.0000 
     62 H62         7.4877   54.5869   27.2222 H         1 UNK         0.0000 
     63 H63         5.9031   55.0880   27.7898 H         1 UNK         0.0000 
     64 H64         6.3160   53.3613   27.6562 H         1 UNK         0.0000 
@<TRIPOS>BOND
     1    1    2 1    
     2    1   37 1    
     3    1   38 1    
     4    1   39 1    
     5    2    3 1    
     6    2   40 1    
     7    2   41 1    
     8    3    4 1    
     9    3    5 1    
    10    3   23 1    
    11    5    6 2    
    12    5    7 am   BACKBONE|DICT|INTERRES
    13    7    8 am   BACKBONE|DICT|INTERRES
    14    7   42 1    
    15    8   12 1    
    16    8    9 2    
    17    9   10 1    
    18    9   20 1    
    19   10   11 2    
    20   10   13 1    
    21   11   12 1    
    22   11   43 1    
    23   13   18 ar   
    24   13   14 ar   
    25   14   15 ar   
    26   14   44 1    
    27   15   16 ar   
    28   15   45 1    
    29   16   17 ar   
    30   16   19 1    
    31   17   18 ar   
    32   17   46 1    
    33   18   47 1    
    34   19   48 1    
    35   19   49 1    
    36   19   50 1    
    37   20   21 2    
    38   20   22 am   BACKBONE|DICT|INTERRES
    39   22   51 1    
    40   22   52 1    
    41   23   29 ar   
    42   23   24 ar   
    43   24   25 2    
    44   24   26 ar   
    45   26   27 ar   
    46   26   53 1    
    47   27   28 ar   
    48   27   36 1    
    49   28   33 ar   
    50   28   29 ar   
    51   29   30 ar   
    52   30   31 ar   
    53   30   35 1    
    54   31   32 ar   
    55   31   54 1    
    56   32   33 ar   
    57   32   34 1    
    58   33   55 1    
    59   34   56 1    
    60   34   57 1    
    61   34   58 1    
    62   35   59 1    
    63   35   60 1    
    64   35   61 1    
    65   36   62 1    
    66   36   63 1    
    67   36   64 1    
@<TRIPOS>SUBSTRUCTURE
     1 UNK         1 GROUP             0       ****    0 ROOT    
