@<TRIPOS>MOLECULE
ZINC22346562_5743
75   78    1
SMALL
USER_CHARGES


@<TRIPOS>ATOM
      1 C1         -1.4885   56.9989   17.4120 C.3       1 UNK         0.0000 
      2 C2         -0.8686   55.6335   17.1009 C.3       1 UNK         0.0000 
      3 O3         -1.8208   54.6245   17.4320 O.3       1 UNK         0.0000 
      4 C4         -1.3836   53.3373   17.6828 C.ar      1 UNK         0.0000 
      5 C5         -2.3132   52.4755   18.2641 C.ar      1 UNK         0.0000 
      6 C6         -1.9371   51.2007   18.6767 C.ar      1 UNK         0.0000 
      7 C7         -0.6224   50.7742   18.4924 C.ar      1 UNK         0.0000 
      8 C8          0.2966   51.5998   17.8433 C.ar      1 UNK         0.0000 
      9 C9         -0.0810   52.8782   17.4405 C.ar      1 UNK         0.0000 
     10 S10        -0.0710   49.2202   19.1978 S.o2      1 UNK         0.0000 
     11 O11        -1.2584   48.4241   19.5318 O.2       1 UNK         0.0000 
     12 O12         0.9629   48.6950   18.3009 O.2       1 UNK         0.0000 
     13 N13         0.7466   49.7300   20.7177 N.pl3     1 UNK         0.0000 
     14 C14         2.0671   50.3341   20.5915 C.3       1 UNK         0.0000 
     15 C15         2.0915   51.8010   21.0660 C.2       1 UNK         0.0000 
     16 O16         1.0745   52.4966   20.9995 O.2       1 UNK         0.0000 
     17 N17         3.2617   52.2677   21.5353 N.am      1 UNK         0.0000 
     18 C18         3.4840   53.5978   22.1191 C.3       1 UNK         0.0000 
     19 H19         2.7946   54.3155   21.6727 H         1 UNK         0.0000 
     20 C20         4.8994   54.0674   21.7216 C.3       1 UNK         0.0000 
     21 C21         3.1680   53.6616   23.6276 C.ar      1 UNK         0.0000 
     22 C22         4.1072   54.0968   24.5730 C.ar      1 UNK         0.0000 
     23 C23         3.7863   54.1197   25.9287 C.ar      1 UNK         0.0000 
     24 C24         2.5269   53.6964   26.3680 C.ar      1 UNK         0.0000 
     25 C25         1.5949   53.2622   25.4248 C.ar      1 UNK         0.0000 
     26 C26         1.9057   53.2588   24.0744 C.ar      1 UNK         0.0000 
     27 N27         2.1453   53.7518   27.7003 N.pl3     1 UNK         0.0000 
     28 C28         1.6032   52.5465   28.3588 C.3       1 UNK         0.0000 
     29 C29         0.6006   52.9239   29.4658 C.3       1 UNK         0.0000 
     30 C30         1.2490   53.8340   30.5192 C.3       1 UNK         0.0000 
     31 C31         1.8217   55.0567   29.7853 C.3       1 UNK         0.0000 
     32 C32         2.8054   54.6410   28.6732 C.3       1 UNK         0.0000 
     33 C33         0.2518   54.2328   31.6167 C.3       1 UNK         0.0000 
     34 C34         0.1286   49.5763   21.9872 C.ar      1 UNK         0.0000 
     35 C35        -1.2517   49.7658   22.1468 C.ar      1 UNK         0.0000 
     36 C36        -1.8495   49.6418   23.3995 C.ar      1 UNK         0.0000 
     37 C37        -1.0705   49.3366   24.5111 C.ar      1 UNK         0.0000 
     38 C38         0.3040   49.1679   24.3781 C.ar      1 UNK         0.0000 
     39 C39         0.8983   49.2970   23.1259 C.ar      1 UNK         0.0000 
     40 H40        -0.8092   57.8054   17.1358 H         1 UNK         0.0000 
     41 H41        -1.6958   57.0949   18.4778 H         1 UNK         0.0000 
     42 H42        -2.4234   57.1424   16.8683 H         1 UNK         0.0000 
     43 H43        -0.6013   55.5583   16.0461 H         1 UNK         0.0000 
     44 H44         0.0486   55.5392   17.6827 H         1 UNK         0.0000 
     45 H45        -3.3249   52.8142   18.4278 H         1 UNK         0.0000 
     46 H46        -2.6601   50.5621   19.1634 H         1 UNK         0.0000 
     47 H47         1.3156   51.2746   17.6893 H         1 UNK         0.0000 
     48 H48         0.6618   53.5058   16.9716 H         1 UNK         0.0000 
     49 H49         2.8241   49.7500   21.1157 H         1 UNK         0.0000 
     50 H50         2.4421   50.3589   19.5690 H         1 UNK         0.0000 
     51 H51         4.0550   51.6430   21.5382 H         1 UNK         0.0000 
     52 H52         5.0799   55.0993   22.0193 H         1 UNK         0.0000 
     53 H53         5.6731   53.4451   22.1736 H         1 UNK         0.0000 
     54 H54         5.0377   54.0258   20.6392 H         1 UNK         0.0000 
     55 H55         5.0943   54.4175   24.2781 H         1 UNK         0.0000 
     56 H56         4.5310   54.4593   26.6324 H         1 UNK         0.0000 
     57 H57         0.6068   52.9504   25.7302 H         1 UNK         0.0000 
     58 H58         1.1393   52.9380   23.3883 H         1 UNK         0.0000 
     59 H59         1.0931   51.9018   27.6424 H         1 UNK         0.0000 
     60 H60         2.4321   51.9628   28.7644 H         1 UNK         0.0000 
     61 H61        -0.2760   53.3993   29.0208 H         1 UNK         0.0000 
     62 H62         0.2031   52.0260   29.9413 H         1 UNK         0.0000 
     63 H63         2.0797   53.2840   30.9610 H         1 UNK         0.0000 
     64 H64         2.3042   55.7311   30.4893 H         1 UNK         0.0000 
     65 H65         1.0270   55.6682   29.3549 H         1 UNK         0.0000 
     66 H66         3.6908   54.1495   29.0806 H         1 UNK         0.0000 
     67 H67         3.1338   55.5493   28.1691 H         1 UNK         0.0000 
     68 H68        -0.4956   54.8958   31.1942 H         1 UNK         0.0000 
     69 H69        -0.2479   53.3625   32.0450 H         1 UNK         0.0000 
     70 H70         0.7044   54.7818   32.4384 H         1 UNK         0.0000 
     71 H71        -1.8750   50.0282   21.3081 H         1 UNK         0.0000 
     72 H72        -2.9141   49.7866   23.5090 H         1 UNK         0.0000 
     73 H73        -1.5278   49.2340   25.4849 H         1 UNK         0.0000 
     74 H74         0.9083   48.9324   25.2428 H         1 UNK         0.0000 
     75 H75         1.9658   49.1570   23.0555 H         1 UNK         0.0000 
@<TRIPOS>BOND
     1    1    2 1    
     2    1   40 1    
     3    1   41 1    
     4    1   42 1    
     5    2    3 1    
     6    2   43 1    
     7    2   44 1    
     8    3    4 1    
     9    4    9 ar   
    10    4    5 ar   
    11    5    6 ar   
    12    5   45 1    
    13    6    7 ar   
    14    6   46 1    
    15    7    8 ar   
    16    7   10 1    
    17    8    9 ar   
    18    8   47 1    
    19    9   48 1    
    20   10   11 2    
    21   10   12 2    
    22   10   13 1    
    23   13   14 1    
    24   13   34 1    
    25   14   15 1    
    26   14   49 1    
    27   14   50 1    
    28   15   16 2    
    29   15   17 am   BACKBONE|DICT|INTERRES
    30   17   18 1    
    31   17   51 1    
    32   18   19 1    
    33   18   20 1    
    34   18   21 1    
    35   20   52 1    
    36   20   53 1    
    37   20   54 1    
    38   21   26 ar   
    39   21   22 ar   
    40   22   23 ar   
    41   22   55 1    
    42   23   24 ar   
    43   23   56 1    
    44   24   25 ar   
    45   24   27 1    
    46   25   26 ar   
    47   25   57 1    
    48   26   58 1    
    49   27   32 1    
    50   27   28 1    
    51   28   29 1    
    52   28   59 1    
    53   28   60 1    
    54   29   30 1    
    55   29   61 1    
    56   29   62 1    
    57   30   31 1    
    58   30   33 1    
    59   30   63 1    
    60   31   32 1    
    61   31   64 1    
    62   31   65 1    
    63   32   66 1    
    64   32   67 1    
    65   33   68 1    
    66   33   69 1    
    67   33   70 1    
    68   34   39 ar   
    69   34   35 ar   
    70   35   36 ar   
    71   35   71 1    
    72   36   37 ar   
    73   36   72 1    
    74   37   38 ar   
    75   37   73 1    
    76   38   39 ar   
    77   38   74 1    
    78   39   75 1    
@<TRIPOS>SUBSTRUCTURE
     1 UNK         1 GROUP             0       ****    0 ROOT    
