@<TRIPOS>MOLECULE
ZINC05130866_4676
37   39    1
SMALL
USER_CHARGES


@<TRIPOS>ATOM
      1 C1          2.5697   51.7876   21.8473 C.3       1 UNK         0.0000 
      2 C2          1.5711   50.6228   21.9373 C.3       1 UNK         0.0000 
      3 C3          0.2519   50.9631   22.6618 C.3       1 UNK         0.0000 
      4 C4          0.4244   51.2034   24.1479 C.2       1 UNK         0.0000 
      5 C5          0.3053   50.3088   25.2017 C.2       1 UNK         0.0000 
      6 C6          0.5762   50.8613   26.4537 C.2       1 UNK         0.0000 
      7 C7          0.8960   52.2160   26.4394 C.2       1 UNK         0.0000 
      8 S8          0.8474   52.7661   24.7837 S.3       1 UNK         0.0000 
      9 C9          1.2348   53.1669   27.5852 C.3       1 UNK         0.0000 
     10 H10         0.7045   54.0949   27.3928 H         1 UNK         0.0000 
     11 C11         0.8065   52.7197   28.9875 C.ar      1 UNK         0.0000 
     12 C12        -0.3203   52.0976   29.5258 C.ar      1 UNK         0.0000 
     13 N13        -0.0956   52.0968   30.8814 N.pl3     1 UNK         0.0000 
     14 H14        -0.7557   51.7461   31.5792 H         1 UNK         0.0000 
     15 N15         1.1037   52.5658   31.2401 N.2       1 UNK         0.0000 
     16 C16         1.6424   52.9141   30.0998 C.ar      1 UNK         0.0000 
     17 O17         2.9211   53.4171   30.0641 O.3       1 UNK         0.0000 
     18 C18         3.4032   53.6765   28.8163 C.2       1 UNK         0.0000 
     19 C19         2.7161   53.5980   27.6492 C.2       1 UNK         0.0000 
     20 C20         3.3636   54.0238   26.4471 C.1       1 UNK         0.0000 
     21 N21         3.9092   54.4143   25.5040 N.1       1 UNK         0.0000 
     22 N22         4.6927   54.1143   28.9606 N.pl3     1 UNK         0.0000 
     23 C23        -1.5685   51.4915   28.9185 C.3       1 UNK         0.0000 
     24 H24         3.4530   51.4977   21.2768 H         1 UNK         0.0000 
     25 H25         2.1273   52.6526   21.3521 H         1 UNK         0.0000 
     26 H26         2.9085   52.1060   22.8320 H         1 UNK         0.0000 
     27 H27         2.0482   49.7684   22.4203 H         1 UNK         0.0000 
     28 H28         1.3380   50.2954   20.9234 H         1 UNK         0.0000 
     29 H29        -0.4467   50.1395   22.5086 H         1 UNK         0.0000 
     30 H30        -0.2161   51.8260   22.1860 H         1 UNK         0.0000 
     31 H31         0.0502   49.2676   25.0667 H         1 UNK         0.0000 
     32 H32         0.5462   50.2707   27.3551 H         1 UNK         0.0000 
     33 H33         5.2751   54.2681   28.1502 H         1 UNK         0.0000 
     34 H34         5.0175   54.4838   29.8405 H         1 UNK         0.0000 
     35 H35        -1.9833   52.0965   28.1158 H         1 UNK         0.0000 
     36 H36        -2.3550   51.2962   29.6476 H         1 UNK         0.0000 
     37 H37        -1.3597   50.5224   28.4718 H         1 UNK         0.0000 
@<TRIPOS>BOND
     1    1    2 1    
     2    1   24 1    
     3    1   25 1    
     4    1   26 1    
     5    2    3 1    
     6    2   27 1    
     7    2   28 1    
     8    3    4 1    
     9    3   29 1    
    10    3   30 1    
    11    4    8 1    
    12    4    5 2    
    13    5    6 1    
    14    5   31 1    
    15    6    7 2    
    16    6   32 1    
    17    7    8 1    
    18    7    9 1    
    19    9   10 1    
    20    9   19 1    
    21    9   11 1    
    22   11   16 ar   
    23   11   12 ar   
    24   12   13 ar   
    25   12   23 1    
    26   13   14 1    
    27   13   15 ar   
    28   15   16 ar   
    29   16   17 1    
    30   17   18 1    
    31   18   19 2    
    32   18   22 1    
    33   19   20 1    
    34   20   21 3    
    35   22   33 1    
    36   22   34 1    
    37   23   35 1    
    38   23   36 1    
    39   23   37 1    
@<TRIPOS>SUBSTRUCTURE
     1 UNK         1 GROUP             0       ****    0 ROOT    
