ZINC13349160_3410
                    3D
 Schrodinger Suite 2024-2.
 57 60  0  0  1  0            999 V2000
   10.7103   55.7309   17.0603 C   0  0  0  0  0  0
    9.3355   55.8937   16.3962 C   0  0  0  0  0  0
    8.2413   55.1254   17.1217 C   0  0  0  0  0  0
    7.5361   55.7305   18.1636 C   0  0  0  0  0  0
    6.5412   55.0242   18.8347 C   0  0  0  0  0  0
    6.2543   53.6981   18.4730 C   0  0  0  0  0  0
    6.9459   53.1098   17.4123 C   0  0  0  0  0  0
    7.9415   53.8157   16.7437 C   0  0  0  0  0  0
    5.2828   52.8967   19.1061 N   0  0  0  0  0  0
    4.7579   53.0391   20.3388 C   0  0  0  0  0  0
    5.1417   53.8852   21.1485 O   0  0  0  0  0  0
    3.7747   52.1392   20.5822 N   0  0  0  0  0  0
    2.9251   52.0916   21.7144 C   0  0  0  0  0  0
    2.6810   53.2283   22.5005 C   0  0  0  0  0  0
    1.8924   53.1952   23.6457 C   0  0  0  0  0  0
    1.2634   51.9851   23.9719 C   0  0  0  0  0  0
    1.4645   50.8313   23.1702 C   0  0  0  0  0  0
    2.3038   50.8745   22.0375 C   0  0  0  0  0  0
    0.5228   49.5077   23.8743 S   0  0  0  0  0  0
   -0.0428   50.6177   25.1087 C   0  0  0  0  0  0
    0.4354   51.8236   25.0365 N   0  0  0  0  0  0
   -0.9275   50.2044   26.0756 N   0  0  0  0  0  0
   -2.0951   51.2763   26.8807 S   0  0  0  0  0  0
   -1.7542   51.2967   28.3066 O   0  0  0  0  0  0
   -2.1879   52.5174   26.1022 O   0  0  0  0  0  0
   -3.6730   50.4514   26.7005 C   0  0  0  0  0  0
   -4.1987   49.6991   27.7534 C   0  0  0  0  0  0
   -5.4252   49.0598   27.5994 C   0  0  0  0  0  0
   -6.1237   49.1702   26.3956 C   0  0  0  0  0  0
   -5.5910   49.9129   25.3399 C   0  0  0  0  0  0
   -4.3645   50.5539   25.4918 C   0  0  0  0  0  0
   -7.4553   48.4616   26.2317 C   0  0  0  0  0  0
    1.7529   54.4549   24.4691 C   0  0  0  0  0  0
   11.4770   56.2769   16.5104 H   0  0  0  0  0  0
   11.0123   54.6837   17.0987 H   0  0  0  0  0  0
   10.7033   56.1117   18.0817 H   0  0  0  0  0  0
    9.0652   56.9498   16.3485 H   0  0  0  0  0  0
    9.3815   55.5626   15.3574 H   0  0  0  0  0  0
    7.7571   56.7472   18.4535 H   0  0  0  0  0  0
    6.0036   55.5245   19.6251 H   0  0  0  0  0  0
    6.7249   52.0957   17.1123 H   0  0  0  0  0  0
    8.4799   53.3411   15.9362 H   0  0  0  0  0  0
    5.1044   52.0091   18.6362 H   0  0  0  0  0  0
    3.6621   51.3977   19.9059 H   0  0  0  0  0  0
    3.1060   54.1826   22.2313 H   0  0  0  0  0  0
    2.4682   49.9896   21.4387 H   0  0  0  0  0  0
   -0.8040   49.3346   26.5818 H   0  0  0  0  0  0
   -3.6633   49.6001   28.6881 H   0  0  0  0  0  0
   -5.8277   48.4798   28.4172 H   0  0  0  0  0  0
   -6.1244   49.9967   24.4040 H   0  0  0  0  0  0
   -3.9545   51.1288   24.6739 H   0  0  0  0  0  0
   -7.4171   47.4699   26.6848 H   0  0  0  0  0  0
   -8.2499   49.0254   26.7202 H   0  0  0  0  0  0
   -7.7102   48.3192   25.1808 H   0  0  0  0  0  0
    0.7044   54.7327   24.4816 H   0  0  0  0  0  0
    2.0650   54.2571   25.4952 H   0  0  0  0  0  0
    2.3367   55.2911   24.0818 H   0  0  0  0  0  0
  1  2  1  0  0  0
  1 34  1  0  0  0
  1 35  1  0  0  0
  1 36  1  0  0  0
  2  3  1  0  0  0
  2 37  1  0  0  0
  2 38  1  0  0  0
  3  8  2  0  0  0
  3  4  1  0  0  0
  4  5  2  0  0  0
  4 39  1  0  0  0
  5  6  1  0  0  0
  5 40  1  0  0  0
  6  7  2  0  0  0
  6  9  1  0  0  0
  7  8  1  0  0  0
  7 41  1  0  0  0
  8 42  1  0  0  0
  9 10  1  0  0  0
  9 43  1  0  0  0
 10 11  2  0  0  0
 10 12  1  0  0  0
 12 13  1  0  0  0
 12 44  1  0  0  0
 13 18  2  0  0  0
 13 14  1  0  0  0
 14 15  2  0  0  0
 14 45  1  0  0  0
 15 16  1  0  0  0
 15 33  1  0  0  0
 16 21  1  0  0  0
 16 17  2  0  0  0
 17 18  1  0  0  0
 17 19  1  0  0  0
 18 46  1  0  0  0
 19 20  1  0  0  0
 20 21  2  0  0  0
 20 22  1  0  0  0
 22 23  1  0  0  0
 22 47  1  0  0  0
 23 24  2  0  0  0
 23 25  2  0  0  0
 23 26  1  0  0  0
 26 31  2  0  0  0
 26 27  1  0  0  0
 27 28  2  0  0  0
 27 48  1  0  0  0
 28 29  1  0  0  0
 28 49  1  0  0  0
 29 30  2  0  0  0
 29 32  1  0  0  0
 30 31  1  0  0  0
 30 50  1  0  0  0
 31 51  1  0  0  0
 32 52  1  0  0  0
 32 53  1  0  0  0
 32 54  1  0  0  0
 33 55  1  0  0  0
 33 56  1  0  0  0
 33 57  1  0  0  0
M  END
> <i_i_glide_confnum>
60

> <i_i_glide_lignum>
3411

> <i_i_glide_posenum>
311

> <i_i_glide_rotatable_bonds>
8

> <i_m_Source_File_Index>
820

> <b_m_subgroup_collapsed>
0

> <r_i_docking_score>
-3.47377

> <r_i_glide_ecoul>
-7.71435

> <r_i_glide_eff_state_penalty>
0

> <r_i_glide_einternal>
11.2349

> <r_i_glide_emodel>
-44.8936

> <r_i_glide_energy>
-40.3968

> <r_i_glide_erotb>
0.614605

> <r_i_glide_esite>
-0.38771

> <r_i_glide_evdw>
-32.6824

> <r_i_glide_gscore>
-3.47377

> <r_i_glide_hbond>
-0.245063

> <r_i_glide_ligand_efficiency>
-0.105266

> <r_i_glide_ligand_efficiency_ln>
-0.772549

> <r_i_glide_ligand_efficiency_sa>
-0.337644

> <r_i_glide_lipo>
-0.97564

> <r_i_glide_metal>
0

> <r_i_glide_rewards>
0.311311

> <s_i_glide_gridfile>
wee1_glide-grid

> <s_m_Source_File>
wee1_decoys_glide_SP.sdf

> <s_m_Source_Path>
/Users/zhangxujun/Desktop

> <s_m_entry_id>
1095

> <s_m_entry_name>
wee1_decoys_glide_SP.820

> <s_m_subgroup_title>
wee1_decoys_glide_SP

> <s_m_subgroupid>
wee1_decoys_glide_SP


$$$$
