@<TRIPOS>MOLECULE
ZINC22989472_4151
53   55    1
SMALL
USER_CHARGES


@<TRIPOS>ATOM
      1 C1          0.3041   48.4877   24.7164 C.3       1 UNK         0.0000 
      2 C2          0.7250   49.7618   23.9549 C.3       1 UNK         0.0000 
      3 H3          1.8131   49.8498   23.9451 H         1 UNK         0.0000 
      4 C4          0.2122   49.6965   22.5031 C.3       1 UNK         0.0000 
      5 C5          0.4630   50.9716   21.6415 C.3       1 UNK         0.0000 
      6 C6          0.7744   52.2734   22.4666 C.3       1 UNK         0.0000 
      7 C7          0.3658   52.3677   23.9787 C.3       1 UNK         0.0000 
      8 C8          0.1192   50.9897   24.6631 C.3       1 UNK         0.0000 
      9 C9          1.4824   53.0985   24.7681 C.3       1 UNK         0.0000 
     10 C10        -0.9513   53.1726   24.0328 C.3       1 UNK         0.0000 
     11 C11         1.5966   50.6753   20.6473 C.2       1 UNK         0.0000 
     12 O12         2.7824   50.4921   20.9349 O.2       1 UNK         0.0000 
     13 N13         1.0383   50.6985   19.4131 N.am      1 UNK         0.0000 
     14 C14        -0.2989   50.9208   19.4218 C.2       1 UNK         0.0000 
     15 O15        -1.1070   50.6823   18.5277 O.2       1 UNK         0.0000 
     16 N16        -0.5943   51.1932   20.6933 N.am      1 UNK         0.0000 
     17 C17         1.8278   50.7428   18.1613 C.3       1 UNK         0.0000 
     18 C18         2.2899   52.1834   17.8950 C.2       1 UNK         0.0000 
     19 O19         1.5364   52.9637   17.3099 O.2       1 UNK         0.0000 
     20 N20         3.5044   52.4967   18.3790 N.am      1 UNK         0.0000 
     21 C21         4.1277   53.7512   18.4030 C.ar      1 UNK         0.0000 
     22 C22         3.9552   54.7277   17.4143 C.ar      1 UNK         0.0000 
     23 C23         4.6485   55.9335   17.5005 C.ar      1 UNK         0.0000 
     24 C24         5.5129   56.1810   18.5676 C.ar      1 UNK         0.0000 
     25 C25         5.6784   55.2157   19.5799 C.ar      1 UNK         0.0000 
     26 C26         4.9883   54.0003   19.4719 C.ar      1 UNK         0.0000 
     27 C27         6.5725   55.4641   20.7980 C.3       1 UNK         0.0000 
     28 F28         6.3045   54.6189   21.7964 F         1 UNK         0.0000 
     29 F29         6.3930   56.6899   21.2793 F         1 UNK         0.0000 
     30 F30         7.8516   55.3258   20.4513 F         1 UNK         0.0000 
     31 Br31        6.4502   57.8447   18.5819 Br        1 UNK         0.0000 
     32 H32        -0.7802   48.3767   24.7718 H         1 UNK         0.0000 
     33 H33         0.6991   47.5937   24.2375 H         1 UNK         0.0000 
     34 H34         0.6840   48.4969   25.7397 H         1 UNK         0.0000 
     35 H35        -0.8708   49.5975   22.6089 H         1 UNK         0.0000 
     36 H36         0.4351   48.7626   21.9820 H         1 UNK         0.0000 
     37 H37         1.8601   52.2072   22.5653 H         1 UNK         0.0000 
     38 H38         0.7025   53.2074   21.9058 H         1 UNK         0.0000 
     39 H39         0.2936   51.0142   25.7409 H         1 UNK         0.0000 
     40 H40        -0.9513   50.7753   24.6095 H         1 UNK         0.0000 
     41 H41         1.1868   53.2842   25.8012 H         1 UNK         0.0000 
     42 H42         2.4047   52.5169   24.7963 H         1 UNK         0.0000 
     43 H43         1.7178   54.0675   24.3242 H         1 UNK         0.0000 
     44 H44        -1.3428   53.2313   25.0492 H         1 UNK         0.0000 
     45 H45        -0.8060   54.1929   23.6827 H         1 UNK         0.0000 
     46 H46        -1.7274   52.7219   23.4114 H         1 UNK         0.0000 
     47 H47        -1.4337   51.6829   20.9599 H         1 UNK         0.0000 
     48 H48         1.2774   50.3626   17.2997 H         1 UNK         0.0000 
     49 H49         2.7050   50.0960   18.2442 H         1 UNK         0.0000 
     50 H50         4.0412   51.7359   18.7811 H         1 UNK         0.0000 
     51 H51         3.3063   54.5543   16.5685 H         1 UNK         0.0000 
     52 H52         4.5215   56.6791   16.7288 H         1 UNK         0.0000 
     53 H53         5.1082   53.2393   20.2307 H         1 UNK         0.0000 
@<TRIPOS>BOND
     1    1    2 1    
     2    1   32 1    
     3    1   33 1    
     4    1   34 1    
     5    2    3 1    
     6    2    8 1    
     7    2    4 1    
     8    4    5 1    
     9    4   35 1    
    10    4   36 1    
    11    5   16 1    
    12    5    6 1    
    13    5   11 1    
    14    6    7 1    
    15    6   37 1    
    16    6   38 1    
    17    7    8 1    
    18    7    9 1    
    19    7   10 1    
    20    8   39 1    
    21    8   40 1    
    22    9   41 1    
    23    9   42 1    
    24    9   43 1    
    25   10   44 1    
    26   10   45 1    
    27   10   46 1    
    28   11   12 2    
    29   11   13 am   BACKBONE|DICT|INTERRES
    30   13   14 am   BACKBONE|DICT|INTERRES
    31   13   17 1    
    32   14   15 2    
    33   14   16 am   BACKBONE|DICT|INTERRES
    34   16   47 1    
    35   17   18 1    
    36   17   48 1    
    37   17   49 1    
    38   18   19 2    
    39   18   20 am   BACKBONE|DICT|INTERRES
    40   20   21 1    
    41   20   50 1    
    42   21   26 ar   
    43   21   22 ar   
    44   22   23 ar   
    45   22   51 1    
    46   23   24 ar   
    47   23   52 1    
    48   24   25 ar   
    49   24   31 1    
    50   25   26 ar   
    51   25   27 1    
    52   26   53 1    
    53   27   28 1    
    54   27   29 1    
    55   27   30 1    
@<TRIPOS>SUBSTRUCTURE
     1 UNK         1 GROUP             0       ****    0 ROOT    
