ZINC39673271_3075
                    3D
 Schrodinger Suite 2024-2.
 66 70  0  0  1  0            999 V2000
    3.0664   53.0582   29.8649 C   0  0  0  0  0  0
    2.0238   52.1469   29.9949 C   0  0  0  0  0  0
    1.2363   51.8060   28.8967 C   0  0  0  0  0  0
    1.4706   52.4073   27.6368 C   0  0  0  0  0  0
    0.7094   52.0625   26.4919 C   0  0  0  0  0  0
    0.9565   52.6676   25.2528 C   0  0  0  0  0  0
    1.9072   53.6922   25.1807 C   0  0  0  0  0  0
    2.7055   54.0188   26.2736 C   0  0  0  0  0  0
    2.5090   53.3795   27.5173 C   0  0  0  0  0  0
    3.3089   53.6835   28.6466 C   0  0  0  0  0  0
    0.1589   52.2232   24.0440 C   0  0  0  0  0  0
   -1.0644   52.1140   24.1536 O   0  0  0  0  0  0
    0.8055   51.8977   22.8902 N   0  0  0  0  0  0
    2.2308   52.0416   22.5996 C   0  0  0  0  0  0
    2.2187   52.2694   21.0867 C   0  0  2  0  0  0
    1.8443   53.2736   20.8805 H   0  0  0  0  0  0
    1.1644   51.2426   20.5824 C   0  0  0  0  0  0
    0.0874   51.4382   21.6893 C   0  0  0  0  0  0
    1.5842   49.7322   20.5978 C   0  0  0  0  0  0
    2.5154   49.2985   19.4388 C   0  0  0  0  0  0
    1.9043   49.6932   18.0820 N   0  3  0  0  0  0
    1.4700   51.1726   18.0023 C   0  0  0  0  0  0
    0.5344   51.5027   19.1876 C   0  0  0  0  0  0
    3.6508   52.1807   20.5364 C   0  0  0  0  0  0
    4.4944   51.4314   21.0325 O   0  0  0  0  0  0
    3.9267   53.0771   19.5804 N   0  0  0  0  0  0
    5.1968   53.2419   18.8879 C   0  0  0  0  0  0
    5.6327   54.6880   18.9127 C   0  0  0  0  0  0
    5.4019   55.5027   17.8026 C   0  0  0  0  0  0
    5.8143   56.8300   17.8255 C   0  0  0  0  0  0
    6.4874   57.3286   18.9419 C   0  0  0  0  0  0
    6.7062   56.5143   20.0544 C   0  0  0  0  0  0
    6.2884   55.1916   20.0370 C   0  0  0  0  0  0
    6.9083   58.6328   18.9842 O   0  0  0  0  0  0
    7.9547   58.9798   18.0799 C   0  0  0  0  0  0
    7.6115   58.8864   16.7934 F   0  0  0  0  0  0
    9.0770   58.3013   18.3230 F   0  0  0  0  0  0
    3.6859   53.2894   30.7176 H   0  0  0  0  0  0
    1.8257   51.6981   30.9573 H   0  0  0  0  0  0
    0.4395   51.0825   29.0010 H   0  0  0  0  0  0
   -0.0501   51.2980   26.5899 H   0  0  0  0  0  0
    2.0456   54.2568   24.2710 H   0  0  0  0  0  0
    3.4635   54.7834   26.1810 H   0  0  0  0  0  0
    4.1075   54.4058   28.5580 H   0  0  0  0  0  0
    2.7054   51.0903   22.8336 H   0  0  0  0  0  0
    2.7867   52.8392   23.0811 H   0  0  0  0  0  0
   -0.5522   52.2690   21.3844 H   0  0  0  0  0  0
   -0.5614   50.5709   21.8235 H   0  0  0  0  0  0
    2.0324   49.4567   21.5527 H   0  0  0  0  0  0
    0.6880   49.1114   20.5427 H   0  0  0  0  0  0
    3.5011   49.7612   19.4479 H   0  0  0  0  0  0
    2.6884   48.2207   19.4070 H   0  0  0  0  0  0
    2.6126   49.5101   17.3671 H   0  0  0  0  0  0
    2.3872   51.7565   17.9832 H   0  0  0  0  0  0
    0.9769   51.2879   17.0356 H   0  0  0  0  0  0
   -0.3738   50.9060   19.0828 H   0  0  0  0  0  0
    0.1954   52.5380   19.1178 H   0  0  0  0  0  0
    3.1849   53.6929   19.2791 H   0  0  0  0  0  0
    5.0819   52.8940   17.8592 H   0  0  0  0  0  0
    5.9836   52.6115   19.3081 H   0  0  0  0  0  0
    4.8914   55.1156   16.9325 H   0  0  0  0  0  0
    5.6167   57.4670   16.9758 H   0  0  0  0  0  0
    7.2002   56.8956   20.9323 H   0  0  0  0  0  0
    6.4600   54.5646   20.9001 H   0  0  0  0  0  0
    8.1959   60.0310   18.2329 H   0  0  0  0  0  0
    1.1219   49.0919   17.8722 H   0  0  0  0  0  0
  1 10  2  0  0  0
  1  2  1  0  0  0
  1 38  1  0  0  0
  2  3  2  0  0  0
  2 39  1  0  0  0
  3  4  1  0  0  0
  3 40  1  0  0  0
  4  9  2  0  0  0
  4  5  1  0  0  0
  5  6  2  0  0  0
  5 41  1  0  0  0
  6  7  1  0  0  0
  6 11  1  0  0  0
  7  8  2  0  0  0
  7 42  1  0  0  0
  8  9  1  0  0  0
  8 43  1  0  0  0
  9 10  1  0  0  0
 10 44  1  0  0  0
 11 12  2  0  0  0
 11 13  1  0  0  0
 13 18  1  0  0  0
 13 14  1  0  0  0
 14 15  1  0  0  0
 14 45  1  0  0  0
 14 46  1  0  0  0
 15 16  1  0  0  0
 15 17  1  0  0  0
 15 24  1  0  0  0
 17 23  1  0  0  0
 17 18  1  0  0  0
 17 19  1  0  0  0
 18 47  1  0  0  0
 18 48  1  0  0  0
 19 20  1  0  0  0
 19 49  1  0  0  0
 19 50  1  0  0  0
 20 21  1  0  0  0
 20 51  1  0  0  0
 20 52  1  0  0  0
 21 22  1  0  0  0
 21 53  1  0  0  0
 21 66  1  0  0  0
 22 23  1  0  0  0
 22 54  1  0  0  0
 22 55  1  0  0  0
 23 56  1  0  0  0
 23 57  1  0  0  0
 24 25  2  0  0  0
 24 26  1  0  0  0
 26 27  1  0  0  0
 26 58  1  0  0  0
 27 28  1  0  0  0
 27 59  1  0  0  0
 27 60  1  0  0  0
 28 33  2  0  0  0
 28 29  1  0  0  0
 29 30  2  0  0  0
 29 61  1  0  0  0
 30 31  1  0  0  0
 30 62  1  0  0  0
 31 32  2  0  0  0
 31 34  1  0  0  0
 32 33  1  0  0  0
 32 63  1  0  0  0
 33 64  1  0  0  0
 34 35  1  0  0  0
 35 36  1  0  0  0
 35 37  1  0  0  0
 35 65  1  0  0  0
M  CHG  1  21   1
M  END
> <i_i_glide_confnum>
171

> <i_i_glide_lignum>
3076

> <i_i_glide_posenum>
335

> <i_i_glide_rotatable_bonds>
8

> <i_m_Source_File_Index>
6085

> <b_m_subgroup_collapsed>
0

> <r_i_docking_score>
-3.13932

> <r_i_glide_ecoul>
-4.64481

> <r_i_glide_eff_state_penalty>
0

> <r_i_glide_einternal>
3.19316

> <r_i_glide_emodel>
-52.5033

> <r_i_glide_energy>
-46.4111

> <r_i_glide_erotb>
0.583258

> <r_i_glide_esite>
-0.19891

> <r_i_glide_evdw>
-41.7663

> <r_i_glide_gscore>
-3.13932

> <r_i_glide_hbond>
-0.24027

> <r_i_glide_ligand_efficiency>
-0.0872034

> <r_i_glide_ligand_efficiency_ln>
-0.684915

> <r_i_glide_ligand_efficiency_sa>
-0.287939

> <r_i_glide_lipo>
-1.72998

> <r_i_glide_metal>
0

> <r_i_glide_rewards>
1.23162

> <s_i_glide_gridfile>
wee1_glide-grid

> <s_m_Source_File>
wee1_decoys_glide_SP.sdf

> <s_m_Source_Path>
/Users/zhangxujun/Desktop

> <s_m_entry_id>
6360

> <s_m_entry_name>
wee1_decoys_glide_SP.6085

> <s_m_subgroup_title>
wee1_decoys_glide_SP

> <s_m_subgroupid>
wee1_decoys_glide_SP


$$$$
