@<TRIPOS>MOLECULE
ZINC37181655_1577
36   37    1
SMALL
USER_CHARGES


@<TRIPOS>ATOM
      1 C1          0.7114   54.3898   30.4678 C.2       1 UNK         0.0000 
      2 C2          1.8311   54.6442   29.6724 C.2       1 UNK         0.0000 
      3 C3          2.6050   53.4896   29.6696 C.2       1 UNK         0.0000 
      4 O4          1.9899   52.5434   30.4311 O.3       1 UNK         0.0000 
      5 C5          0.8365   53.0835   30.9072 C.2       1 UNK         0.0000 
      6 C6          3.9048   53.0656   29.0027 C.3       1 UNK         0.0000 
      7 N7          4.3902   53.9903   27.9726 N.am      1 UNK         0.0000 
      8 C8          3.8635   54.0874   26.7330 C.2       1 UNK         0.0000 
      9 O9          2.6815   53.8422   26.5098 O.2       1 UNK         0.0000 
     10 N10         4.6717   54.3931   25.6918 N.am      1 UNK         0.0000 
     11 C11         5.9971   54.6691   25.6455 C.2       1 UNK         0.0000 
     12 O12         6.7052   54.8953   26.6293 O.2       1 UNK         0.0000 
     13 C13         6.6597   54.7113   24.2583 C.3       1 UNK         0.0000 
     14 S14         5.6495   54.0966   22.8621 S.3       1 UNK         0.0000 
     15 C15         6.1728   54.8975   21.3680 C.ar      1 UNK         0.0000 
     16 C16         7.4383   55.4806   21.2607 C.ar      1 UNK         0.0000 
     17 C17         7.8337   56.0678   20.0620 C.ar      1 UNK         0.0000 
     18 C18         6.9578   56.0870   18.9785 C.ar      1 UNK         0.0000 
     19 C19         5.6972   55.5024   19.0782 C.ar      1 UNK         0.0000 
     20 C20         5.3094   54.8966   20.2722 C.ar      1 UNK         0.0000 
     21 N21         7.3455   56.6940   17.7870 N.pl3     1 UNK         0.0000 
     22 H22        -0.0948   55.0725   30.6906 H         1 UNK         0.0000 
     23 H23         2.0541   55.5621   29.1460 H         1 UNK         0.0000 
     24 H24         0.2279   52.4464   31.5361 H         1 UNK         0.0000 
     25 H25         3.7489   52.0921   28.5332 H         1 UNK         0.0000 
     26 H26         4.7003   52.9239   29.7330 H         1 UNK         0.0000 
     27 H27         5.3385   54.3272   28.0841 H         1 UNK         0.0000 
     28 H28         4.2220   54.3196   24.7920 H         1 UNK         0.0000 
     29 H29         7.5618   54.1031   24.2937 H         1 UNK         0.0000 
     30 H30         6.9664   55.7386   24.0666 H         1 UNK         0.0000 
     31 H31         8.1348   55.4622   22.0819 H         1 UNK         0.0000 
     32 H32         8.8220   56.4971   19.9787 H         1 UNK         0.0000 
     33 H33         5.0197   55.5093   18.2351 H         1 UNK         0.0000 
     34 H34         4.3347   54.4357   20.3409 H         1 UNK         0.0000 
     35 H35         6.6990   56.7259   17.0109 H         1 UNK         0.0000 
     36 H36         8.2705   57.0879   17.6997 H         1 UNK         0.0000 
@<TRIPOS>BOND
     1    1    5 2    
     2    1    2 1    
     3    1   22 1    
     4    2    3 2    
     5    2   23 1    
     6    3    4 1    
     7    3    6 1    
     8    4    5 1    
     9    5   24 1    
    10    6    7 1    
    11    6   25 1    
    12    6   26 1    
    13    7    8 am   BACKBONE|DICT|INTERRES
    14    7   27 1    
    15    8    9 2    
    16    8   10 am   BACKBONE|DICT|INTERRES
    17   10   11 am   BACKBONE|DICT|INTERRES
    18   10   28 1    
    19   11   12 2    
    20   11   13 1    
    21   13   14 1    
    22   13   29 1    
    23   13   30 1    
    24   14   15 1    
    25   15   20 ar   
    26   15   16 ar   
    27   16   17 ar   
    28   16   31 1    
    29   17   18 ar   
    30   17   32 1    
    31   18   19 ar   
    32   18   21 1    
    33   19   20 ar   
    34   19   33 1    
    35   20   34 1    
    36   21   35 1    
    37   21   36 1    
@<TRIPOS>SUBSTRUCTURE
     1 UNK         1 GROUP             0       ****    0 ROOT    
