@<TRIPOS>MOLECULE
ZINC36217383_5402
62   66    1
SMALL
USER_CHARGES


@<TRIPOS>ATOM
      1 C1          0.9751   53.3089   17.3816 C.3       1 UNK         0.0000 
      2 C2          1.6604   54.5560   16.8568 C.ar      1 UNK         0.0000 
      3 C3          1.0018   55.7868   16.8812 C.ar      1 UNK         0.0000 
      4 C4          1.6492   56.9364   16.4335 C.ar      1 UNK         0.0000 
      5 C5          2.9588   56.8621   15.9549 C.ar      1 UNK         0.0000 
      6 C6          3.6276   55.6343   15.9265 C.ar      1 UNK         0.0000 
      7 C7          2.9710   54.4831   16.3749 C.ar      1 UNK         0.0000 
      8 C8          5.0569   55.5533   15.4074 C.3       1 UNK         0.0000 
      9 N9          6.0258   55.1443   16.4257 N.am      1 UNK         0.0000 
     10 C10         6.3403   55.9441   17.5985 C.3       1 UNK         0.0000 
     11 H11         5.4284   56.2755   18.0999 H         1 UNK         0.0000 
     12 C12         7.1334   54.9721   18.4637 C.3       1 UNK         0.0000 
     13 H13         8.1982   55.2159   18.4723 H         1 UNK         0.0000 
     14 O14         7.0384   53.7363   17.7810 O.3       1 UNK         0.0000 
     15 C15         6.4563   53.8274   16.5696 C.2       1 UNK         0.0000 
     16 O16         6.3518   52.8701   15.8052 O.2       1 UNK         0.0000 
     17 C17         6.6691   54.8965   19.9130 C.ar      1 UNK         0.0000 
     18 C18         7.4381   55.4739   20.9237 C.ar      1 UNK         0.0000 
     19 C19         7.0607   55.3210   22.2548 C.ar      1 UNK         0.0000 
     20 C20         5.9098   54.5930   22.5932 C.ar      1 UNK         0.0000 
     21 C21         5.1176   54.0575   21.5727 C.ar      1 UNK         0.0000 
     22 C22         5.4998   54.2041   20.2410 C.ar      1 UNK         0.0000 
     23 N23         5.4629   54.3756   23.9119 N.am      1 UNK         0.0000 
     24 C24         6.0307   54.7087   25.0938 C.2       1 UNK         0.0000 
     25 O25         7.1043   55.2947   25.2459 O.2       1 UNK         0.0000 
     26 C26         5.2572   54.2899   26.2340 C.2       1 UNK         0.0000 
     27 C27         3.8762   54.0998   26.3419 C.2       1 UNK         0.0000 
     28 C28         3.4701   53.7504   27.6340 C.2       1 UNK         0.0000 
     29 C29         4.5265   53.6980   28.5305 C.2       1 UNK         0.0000 
     30 S30         6.0369   54.0965   27.7812 S.3       1 UNK         0.0000 
     31 C31         7.2084   57.1765   17.2775 C.2       1 UNK         0.0000 
     32 O32         7.9121   57.2195   16.2672 O.2       1 UNK         0.0000 
     33 N33         7.1654   58.1683   18.1800 N.am      1 UNK         0.0000 
     34 C34         7.9045   59.4312   18.0786 C.3       1 UNK         0.0000 
     35 C35         9.4125   59.2932   18.2247 C.2       1 UNK         0.0000 
     36 C36        10.2854   58.2413   18.4805 C.2       1 UNK         0.0000 
     37 C37        11.5771   58.7658   18.4866 C.2       1 UNK         0.0000 
     38 C38        11.4434   60.1187   18.2306 C.2       1 UNK         0.0000 
     39 O39        10.1315   60.4391   18.0798 O.3       1 UNK         0.0000 
     40 H40         0.1883   53.5592   18.0947 H         1 UNK         0.0000 
     41 H41         0.5497   52.7279   16.5635 H         1 UNK         0.0000 
     42 H42         1.6896   52.6785   17.9151 H         1 UNK         0.0000 
     43 H43        -0.0050   55.8593   17.2626 H         1 UNK         0.0000 
     44 H44         1.1443   57.8926   16.4671 H         1 UNK         0.0000 
     45 H45         3.4514   57.7639   15.6181 H         1 UNK         0.0000 
     46 H46         3.4815   53.5309   16.3536 H         1 UNK         0.0000 
     47 H47         5.3602   56.5213   15.0075 H         1 UNK         0.0000 
     48 H48         5.0791   54.8635   14.5631 H         1 UNK         0.0000 
     49 H49         8.3435   56.0137   20.6841 H         1 UNK         0.0000 
     50 H50         7.6778   55.7887   23.0032 H         1 UNK         0.0000 
     51 H51         4.2171   53.5068   21.8018 H         1 UNK         0.0000 
     52 H52         4.8967   53.7554   19.4642 H         1 UNK         0.0000 
     53 H53         4.5946   53.8710   23.9794 H         1 UNK         0.0000 
     54 H54         3.1835   54.2074   25.5188 H         1 UNK         0.0000 
     55 H55         2.4421   53.5508   27.9023 H         1 UNK         0.0000 
     56 H56         4.4911   53.4563   29.5819 H         1 UNK         0.0000 
     57 H57         6.4425   58.1313   18.8810 H         1 UNK         0.0000 
     58 H58         7.6671   59.8902   17.1158 H         1 UNK         0.0000 
     59 H59         7.5040   60.0961   18.8426 H         1 UNK         0.0000 
     60 H60        10.0138   57.2071   18.6392 H         1 UNK         0.0000 
     61 H61        12.4960   58.2205   18.6499 H         1 UNK         0.0000 
     62 H62        12.1515   60.9274   18.1286 H         1 UNK         0.0000 
@<TRIPOS>BOND
     1    1    2 1    
     2    1   40 1    
     3    1   41 1    
     4    1   42 1    
     5    2    7 ar   
     6    2    3 ar   
     7    3    4 ar   
     8    3   43 1    
     9    4    5 ar   
    10    4   44 1    
    11    5    6 ar   
    12    5   45 1    
    13    6    7 ar   
    14    6    8 1    
    15    7   46 1    
    16    8    9 1    
    17    8   47 1    
    18    8   48 1    
    19    9   15 am   BACKBONE|DICT|INTERRES
    20    9   10 1    
    21   10   11 1    
    22   10   12 1    
    23   10   31 1    
    24   12   13 1    
    25   12   14 1    
    26   12   17 1    
    27   14   15 1    
    28   15   16 2    
    29   17   22 ar   
    30   17   18 ar   
    31   18   19 ar   
    32   18   49 1    
    33   19   20 ar   
    34   19   50 1    
    35   20   21 ar   
    36   20   23 1    
    37   21   22 ar   
    38   21   51 1    
    39   22   52 1    
    40   23   24 am   BACKBONE|DICT|INTERRES
    41   23   53 1    
    42   24   25 2    
    43   24   26 1    
    44   26   30 1    
    45   26   27 2    
    46   27   28 1    
    47   27   54 1    
    48   28   29 2    
    49   28   55 1    
    50   29   30 1    
    51   29   56 1    
    52   31   32 2    
    53   31   33 am   BACKBONE|DICT|INTERRES
    54   33   34 1    
    55   33   57 1    
    56   34   35 1    
    57   34   58 1    
    58   34   59 1    
    59   35   39 1    
    60   35   36 2    
    61   36   37 1    
    62   36   60 1    
    63   37   38 2    
    64   37   61 1    
    65   38   39 1    
    66   38   62 1    
@<TRIPOS>SUBSTRUCTURE
     1 UNK         1 GROUP             0       ****    0 ROOT    
