ZINC13247930_5628
                    3D
 Schrodinger Suite 2024-2.
 46 47  0  0  1  0            999 V2000
    7.0485   53.0504   28.0811 C   0  0  0  0  0  0
    7.0214   53.8484   26.7796 C   0  0  0  0  0  0
    5.8713   54.7183   26.5158 N   0  0  0  0  0  0
    5.9969   55.6403   25.3863 C   0  0  0  0  0  0
    6.5512   55.0140   24.0978 C   0  0  0  0  0  0
    4.5854   54.3980   27.0269 C   0  0  0  0  0  0
    4.4132   54.4971   28.4130 C   0  0  0  0  0  0
    3.2048   54.1803   29.0166 C   0  0  0  0  0  0
    2.1216   53.7601   28.2495 C   0  0  0  0  0  0
    2.2622   53.6963   26.8593 C   0  0  0  0  0  0
    3.4773   54.0134   26.2300 C   0  0  0  0  0  0
    3.6118   53.8802   24.8340 N   0  0  0  0  0  0
    2.3271   53.3701   23.7174 S   0  0  0  0  0  0
    1.3957   54.4968   23.6227 O   0  0  0  0  0  0
    1.8729   52.0696   24.2132 O   0  0  0  0  0  0
    3.1107   53.1596   22.1102 C   0  0  0  0  0  0
    4.0828   54.0947   21.7380 C   0  0  0  0  0  0
    4.8123   53.9710   20.5456 C   0  0  0  0  0  0
    4.5095   52.8973   19.6983 C   0  0  0  0  0  0
    3.5047   51.9921   20.0291 C   0  0  0  0  0  0
    2.7976   52.1133   21.2239 C   0  0  0  0  0  0
    1.4181   50.8356   21.5488 Br  0  0  0  0  0  0
    5.8966   54.9489   20.1934 C   0  0  0  0  0  0
    6.6552   54.6632   19.2400 O   0  0  0  0  0  0
    0.8193   53.3711   28.9448 C   0  0  0  0  0  0
   -0.1840   53.2122   28.0834 F   0  0  0  0  0  0
    1.0022   52.2216   29.5954 F   0  0  0  0  0  0
    0.4695   54.3079   29.8267 F   0  0  0  0  0  0
    7.9041   52.3787   28.0818 H   0  0  0  0  0  0
    7.1505   53.6980   28.9504 H   0  0  0  0  0  0
    6.1532   52.4412   28.1923 H   0  0  0  0  0  0
    7.1048   53.1475   25.9500 H   0  0  0  0  0  0
    7.9043   54.4825   26.7673 H   0  0  0  0  0  0
    5.0348   56.0969   25.1862 H   0  0  0  0  0  0
    6.6603   56.4527   25.6836 H   0  0  0  0  0  0
    6.6448   55.7648   23.3164 H   0  0  0  0  0  0
    7.5374   54.5980   24.2537 H   0  0  0  0  0  0
    5.9450   54.1962   23.7213 H   0  0  0  0  0  0
    5.2272   54.8362   29.0366 H   0  0  0  0  0  0
    3.1150   54.2551   30.0866 H   0  0  0  0  0  0
    1.4148   53.3793   26.2725 H   0  0  0  0  0  0
    4.5478   53.9423   24.4649 H   0  0  0  0  0  0
    4.2839   54.9200   22.4006 H   0  0  0  0  0  0
    5.0467   52.7520   18.7700 H   0  0  0  0  0  0
    3.2849   51.1843   19.3459 H   0  0  0  0  0  0
    5.9967   55.9913   20.8811 O   0  5  0  0  0  0
  1  2  1  0  0  0
  1 29  1  0  0  0
  1 30  1  0  0  0
  1 31  1  0  0  0
  2  3  1  0  0  0
  2 32  1  0  0  0
  2 33  1  0  0  0
  3  4  1  0  0  0
  3  6  1  0  0  0
  4  5  1  0  0  0
  4 34  1  0  0  0
  4 35  1  0  0  0
  5 36  1  0  0  0
  5 37  1  0  0  0
  5 38  1  0  0  0
  6 11  2  0  0  0
  6  7  1  0  0  0
  7  8  2  0  0  0
  7 39  1  0  0  0
  8  9  1  0  0  0
  8 40  1  0  0  0
  9 10  2  0  0  0
  9 25  1  0  0  0
 10 11  1  0  0  0
 10 41  1  0  0  0
 11 12  1  0  0  0
 12 13  1  0  0  0
 12 42  1  0  0  0
 13 14  2  0  0  0
 13 15  2  0  0  0
 13 16  1  0  0  0
 16 21  2  0  0  0
 16 17  1  0  0  0
 17 18  2  0  0  0
 17 43  1  0  0  0
 18 19  1  0  0  0
 18 23  1  0  0  0
 19 20  2  0  0  0
 19 44  1  0  0  0
 20 21  1  0  0  0
 20 45  1  0  0  0
 21 22  1  0  0  0
 23 24  2  0  0  0
 23 46  1  0  0  0
 25 26  1  0  0  0
 25 27  1  0  0  0
 25 28  1  0  0  0
M  CHG  1  46  -1
M  END
> <i_i_glide_confnum>
58

> <i_i_glide_lignum>
5629

> <i_i_glide_posenum>
40

> <i_i_glide_rotatable_bonds>
8

> <i_m_Source_File_Index>
3743

> <b_m_subgroup_collapsed>
0

> <r_i_docking_score>
-2.89061

> <r_i_glide_ecoul>
-0.692864

> <r_i_glide_eff_state_penalty>
0

> <r_i_glide_einternal>
9.02803

> <r_i_glide_emodel>
-37.1763

> <r_i_glide_energy>
-42.7558

> <r_i_glide_erotb>
0.333598

> <r_i_glide_esite>
0

> <r_i_glide_evdw>
-42.0629

> <r_i_glide_gscore>
-2.89061

> <r_i_glide_hbond>
0

> <r_i_glide_ligand_efficiency>
-0.0996763

> <r_i_glide_ligand_efficiency_ln>
-0.661877

> <r_i_glide_ligand_efficiency_sa>
-0.306237

> <r_i_glide_lipo>
-2.71455

> <r_i_glide_metal>
0

> <r_i_glide_rewards>
1.69742

> <s_i_glide_gridfile>
wee1_glide-grid

> <s_m_Source_File>
wee1_decoys_glide_SP.sdf

> <s_m_Source_Path>
/Users/zhangxujun/Desktop

> <s_m_entry_id>
4018

> <s_m_entry_name>
wee1_decoys_glide_SP.3743

> <s_m_subgroup_title>
wee1_decoys_glide_SP

> <s_m_subgroupid>
wee1_decoys_glide_SP


$$$$
