@<TRIPOS>MOLECULE
ZINC30981008_5437
72   76    1
SMALL
USER_CHARGES


@<TRIPOS>ATOM
      1 C1          0.1421   48.0895   16.4844 C.3       1 UNK         0.0000 
      2 C2         -0.3177   49.5385   16.7724 C.3       1 UNK         0.0000 
      3 C3          0.8535   50.4699   17.1804 C.3       1 UNK         0.0000 
      4 C4          1.5780   49.9597   18.4385 C.3       1 UNK         0.0000 
      5 H5          2.0841   49.0266   18.1835 H         1 UNK         0.0000 
      6 C6          0.5423   49.5594   19.5033 C.ar      1 UNK         0.0000 
      7 C7          0.8768   49.3771   20.8536 C.ar      1 UNK         0.0000 
      8 C8         -0.0698   49.0158   21.8137 C.ar      1 UNK         0.0000 
      9 C9         -1.3941   48.7988   21.4067 C.ar      1 UNK         0.0000 
     10 C10        -1.7521   48.9560   20.0688 C.ar      1 UNK         0.0000 
     11 C11        -0.7954   49.3290   19.1261 C.ar      1 UNK         0.0000 
     12 O12        -1.2753   49.5392   17.8427 O.3       1 UNK         0.0000 
     13 O13         0.3843   48.8967   23.1127 O.3       1 UNK         0.0000 
     14 C14        -0.5137   48.4786   24.1352 C.3       1 UNK         0.0000 
     15 N15         2.7044   50.7850   18.8788 N.am      1 UNK         0.0000 
     16 C16         2.6421   51.9401   19.5584 C.2       1 UNK         0.0000 
     17 O17         1.5734   52.4967   19.8018 O.2       1 UNK         0.0000 
     18 C18         3.9679   52.4813   20.1499 C.3       1 UNK         0.0000 
     19 C19         3.8056   52.4111   21.6817 C.3       1 UNK         0.0000 
     20 C20         5.0799   52.9145   22.3512 C.3       1 UNK         0.0000 
     21 N21         5.2874   54.3956   21.9615 N.4       1 UNK         0.0000 
     22 C22         5.5033   54.5428   20.4304 C.3       1 UNK         0.0000 
     23 C23         4.3004   53.9254   19.6730 C.3       1 UNK         0.0000 
     24 C24         6.4453   55.0265   22.7915 C.3       1 UNK         0.0000 
     25 C25         6.1182   55.0816   24.2873 C.2       1 UNK         0.0000 
     26 N26         4.9990   54.8037   24.9044 N.2       1 UNK         0.0000 
     27 C27         5.3377   54.8681   26.1778 C.2       1 UNK         0.0000 
     28 N28         6.5654   55.2876   26.4103 N.2       1 UNK         0.0000 
     29 O29         7.1044   55.4409   25.1360 O.3       1 UNK         0.0000 
     30 C30         4.3998   54.4490   27.2797 C.ar      1 UNK         0.0000 
     31 C31         4.8108   54.4965   28.6175 C.ar      1 UNK         0.0000 
     32 C32         3.9619   54.0652   29.6318 C.ar      1 UNK         0.0000 
     33 C33         2.6904   53.5786   29.3421 C.ar      1 UNK         0.0000 
     34 C34         2.2649   53.5407   28.0072 C.ar      1 UNK         0.0000 
     35 C35         3.1134   53.9722   26.9888 C.ar      1 UNK         0.0000 
     36 O36         1.9378   53.1589   30.4223 O.3       1 UNK         0.0000 
     37 C37         0.6351   52.6234   30.2028 C.3       1 UNK         0.0000 
     38 C38        -1.0619   50.1695   15.5832 C.3       1 UNK         0.0000 
     39 H39         0.9368   48.0688   15.7379 H         1 UNK         0.0000 
     40 H40         0.5105   47.5793   17.3736 H         1 UNK         0.0000 
     41 H41        -0.6855   47.4896   16.1057 H         1 UNK         0.0000 
     42 H42         1.5603   50.6048   16.3600 H         1 UNK         0.0000 
     43 H43         0.4505   51.4589   17.4056 H         1 UNK         0.0000 
     44 H44         1.8975   49.5304   21.1723 H         1 UNK         0.0000 
     45 H45        -2.1573   48.5189   22.1160 H         1 UNK         0.0000 
     46 H46        -2.7764   48.8046   19.7622 H         1 UNK         0.0000 
     47 H47         0.0239   48.4131   25.0818 H         1 UNK         0.0000 
     48 H48        -0.9281   47.4915   23.9252 H         1 UNK         0.0000 
     49 H49        -1.3297   49.1903   24.2675 H         1 UNK         0.0000 
     50 H50         3.6241   50.4966   18.5414 H         1 UNK         0.0000 
     51 H51         4.7548   51.7975   19.8251 H         1 UNK         0.0000 
     52 H52         2.9987   53.0585   22.0352 H         1 UNK         0.0000 
     53 H53         3.6598   51.3836   22.0226 H         1 UNK         0.0000 
     54 H54         5.9571   52.3320   22.0819 H         1 UNK         0.0000 
     55 H55         4.9408   52.8967   23.4236 H         1 UNK         0.0000 
     56 H56         6.4556   54.0967   20.1525 H         1 UNK         0.0000 
     57 H57         5.5500   55.6146   20.2271 H         1 UNK         0.0000 
     58 H58         4.5480   53.9362   18.6098 H         1 UNK         0.0000 
     59 H59         3.5044   54.6241   19.8903 H         1 UNK         0.0000 
     60 H60         7.3309   54.4240   22.5815 H         1 UNK         0.0000 
     61 H61         6.6087   56.0215   22.3762 H         1 UNK         0.0000 
     62 H62         5.7955   54.8565   28.8830 H         1 UNK         0.0000 
     63 H63         4.3044   54.0935   30.6538 H         1 UNK         0.0000 
     64 H64         1.2865   53.1707   27.7419 H         1 UNK         0.0000 
     65 H65         2.7645   53.9180   25.9678 H         1 UNK         0.0000 
     66 H66         0.1949   52.3391   31.1596 H         1 UNK         0.0000 
     67 H67        -0.0280   53.3573   29.7424 H         1 UNK         0.0000 
     68 H68         0.6679   51.7289   29.5786 H         1 UNK         0.0000 
     69 H69        -0.4216   50.2379   14.7034 H         1 UNK         0.0000 
     70 H70        -1.9374   49.5794   15.3110 H         1 UNK         0.0000 
     71 H71        -1.4143   51.1745   15.8188 H         1 UNK         0.0000 
     72 H72         4.4395   54.8920   22.2064 H         1 UNK         0.0000 
@<TRIPOS>BOND
     1    1    2 1    
     2    1   39 1    
     3    1   40 1    
     4    1   41 1    
     5    2   12 1    
     6    2    3 1    
     7    2   38 1    
     8    3    4 1    
     9    3   42 1    
    10    3   43 1    
    11    4    5 1    
    12    4    6 1    
    13    4   15 1    
    14    6   11 ar   
    15    6    7 ar   
    16    7    8 ar   
    17    7   44 1    
    18    8    9 ar   
    19    8   13 1    
    20    9   10 ar   
    21    9   45 1    
    22   10   11 ar   
    23   10   46 1    
    24   11   12 1    
    25   13   14 1    
    26   14   47 1    
    27   14   48 1    
    28   14   49 1    
    29   15   16 am   BACKBONE|DICT|INTERRES
    30   15   50 1    
    31   16   17 2    
    32   16   18 1    
    33   18   23 1    
    34   18   19 1    
    35   18   51 1    
    36   19   20 1    
    37   19   52 1    
    38   19   53 1    
    39   20   21 1    
    40   20   54 1    
    41   20   55 1    
    42   21   22 1    
    43   21   24 1    
    44   21   72 1    
    45   22   23 1    
    46   22   56 1    
    47   22   57 1    
    48   23   58 1    
    49   23   59 1    
    50   24   25 1    
    51   24   60 1    
    52   24   61 1    
    53   25   29 1    
    54   25   26 2    
    55   26   27 1    
    56   27   28 2    
    57   27   30 1    
    58   28   29 1    
    59   30   35 ar   
    60   30   31 ar   
    61   31   32 ar   
    62   31   62 1    
    63   32   33 ar   
    64   32   63 1    
    65   33   34 ar   
    66   33   36 1    
    67   34   35 ar   
    68   34   64 1    
    69   35   65 1    
    70   36   37 1    
    71   37   66 1    
    72   37   67 1    
    73   37   68 1    
    74   38   69 1    
    75   38   70 1    
    76   38   71 1    
@<TRIPOS>SUBSTRUCTURE
     1 UNK         1 GROUP             0       ****    0 ROOT    
