@<TRIPOS>MOLECULE
ZINC33810219_4654
58   63    1
SMALL
USER_CHARGES


@<TRIPOS>ATOM
      1 C1          4.3514   54.4980   29.5339 C.3       1 UNK         0.0000 
      2 C2          4.6830   54.3821   28.0597 C.ar      1 UNK         0.0000 
      3 C3          6.0056   54.2001   27.6517 C.ar      1 UNK         0.0000 
      4 C4          6.3026   54.0961   26.2953 C.ar      1 UNK         0.0000 
      5 C5          5.2804   54.1737   25.3460 C.ar      1 UNK         0.0000 
      6 C6          3.9615   54.3811   25.7586 C.ar      1 UNK         0.0000 
      7 C7          3.6630   54.4837   27.1134 C.ar      1 UNK         0.0000 
      8 C8          5.5865   53.9962   23.8648 C.3       1 UNK         0.0000 
      9 S9          6.7044   55.2966   23.2319 S.3       1 UNK         0.0000 
     10 C10         6.3047   55.3883   21.4672 C.ar      1 UNK         0.0000 
     11 N11         5.5208   54.4813   20.9993 N.2       1 UNK         0.0000 
     12 C12         5.2142   54.4524   19.7025 C.ar      1 UNK         0.0000 
     13 O13         4.4618   53.6414   19.1724 O.2       1 UNK         0.0000 
     14 C14         5.8194   55.4820   18.8396 C.ar      1 UNK         0.0000 
     15 C15         6.5883   56.4133   19.4744 C.ar      1 UNK         0.0000 
     16 N16         6.8476   56.3767   20.8214 N.ar      1 UNK         0.0000 
     17 N17         7.1839   57.4233   18.7737 N.pl3     1 UNK         0.0000 
     18 C18         7.0299   57.6106   17.4171 C.2       1 UNK         0.0000 
     19 C19         6.2690   56.7482   16.6806 C.2       1 UNK         0.0000 
     20 C20         5.6931   55.4398   17.2997 C.3       1 UNK         0.0000 
     21 H21         4.6398   55.4464   17.0409 H         1 UNK         0.0000 
     22 C22         6.3640   54.1790   16.7057 C.ar      1 UNK         0.0000 
     23 C23         7.7177   53.9859   17.0546 C.ar      1 UNK         0.0000 
     24 C24         8.4006   52.9031   16.5306 C.ar      1 UNK         0.0000 
     25 C25         7.8066   52.0406   15.6653 C.ar      1 UNK         0.0000 
     26 C26         6.4829   52.1918   15.2795 C.ar      1 UNK         0.0000 
     27 C27         5.7291   53.2560   15.8180 C.ar      1 UNK         0.0000 
     28 N28         4.3056   53.3521   15.4124 N.pl3     1 UNK         0.0000 
     29 O29         3.4549   53.6514   16.2421 O.co2     1 UNK         0.0000 
     30 O30         4.0251   53.0668   14.2507 O.co2     1 UNK         0.0000 
     31 O31         8.7077   51.0971   15.2840 O.3       1 UNK         0.0000 
     32 C32         9.8027   51.2642   16.1447 C.3       1 UNK         0.0000 
     33 O33         9.6954   52.5384   16.7189 O.3       1 UNK         0.0000 
     34 C34         6.0077   57.0006   15.2415 C.2       1 UNK         0.0000 
     35 O35         5.4374   56.1817   14.5226 O.2       1 UNK         0.0000 
     36 C36         6.5817   58.2894   14.6308 C.3       1 UNK         0.0000 
     37 C37         6.7534   59.3975   15.6823 C.3       1 UNK         0.0000 
     38 C38         7.6097   58.9093   16.8635 C.3       1 UNK         0.0000 
     39 H39         5.1842   54.9392   30.0817 H         1 UNK         0.0000 
     40 H40         3.4921   55.1529   29.6819 H         1 UNK         0.0000 
     41 H41         4.1303   53.5179   29.9563 H         1 UNK         0.0000 
     42 H42         6.7995   54.1337   28.3823 H         1 UNK         0.0000 
     43 H43         7.3216   53.9382   25.9799 H         1 UNK         0.0000 
     44 H44         3.1626   54.4463   25.0341 H         1 UNK         0.0000 
     45 H45         2.6393   54.6335   27.4242 H         1 UNK         0.0000 
     46 H46         6.0559   53.0301   23.6867 H         1 UNK         0.0000 
     47 H47         4.6435   53.9841   23.3174 H         1 UNK         0.0000 
     48 H48         7.8114   58.0243   19.2808 H         1 UNK         0.0000 
     49 H49         8.2201   54.6726   17.7195 H         1 UNK         0.0000 
     50 H50         6.0309   51.4827   14.6014 H         1 UNK         0.0000 
     51 H51         9.7618   50.5117   16.9359 H         1 UNK         0.0000 
     52 H52        10.7432   51.1573   15.6036 H         1 UNK         0.0000 
     53 H53         7.5649   58.0296   14.2383 H         1 UNK         0.0000 
     54 H54         5.9664   58.6014   13.7868 H         1 UNK         0.0000 
     55 H55         7.1951   60.2889   15.2354 H         1 UNK         0.0000 
     56 H56         5.7674   59.6972   16.0451 H         1 UNK         0.0000 
     57 H57         7.5054   59.6974   17.6109 H         1 UNK         0.0000 
     58 H58         8.6740   58.8262   16.6417 H         1 UNK         0.0000 
@<TRIPOS>BOND
     1    1    2 1    
     2    1   39 1    
     3    1   40 1    
     4    1   41 1    
     5    2    7 ar   
     6    2    3 ar   
     7    3    4 ar   
     8    3   42 1    
     9    4    5 ar   
    10    4   43 1    
    11    5    6 ar   
    12    5    8 1    
    13    6    7 ar   
    14    6   44 1    
    15    7   45 1    
    16    8    9 1    
    17    8   46 1    
    18    8   47 1    
    19    9   10 1    
    20   10   16 ar   
    21   10   11 ar   
    22   11   12 ar   
    23   12   13 2    
    24   12   14 ar   
    25   14   20 1    
    26   14   15 ar   
    27   15   16 ar   
    28   15   17 1    
    29   17   18 1    
    30   17   48 1    
    31   18   38 1    
    32   18   19 2    
    33   19   20 1    
    34   19   34 1    
    35   20   21 1    
    36   20   22 1    
    37   22   27 ar   
    38   22   23 ar   
    39   23   24 ar   
    40   23   49 1    
    41   24   33 1    
    42   24   25 ar   
    43   25   26 ar   
    44   25   31 1    
    45   26   27 ar   
    46   26   50 1    
    47   27   28 1    
    48   28   29 2    
    49   28   30 1    
    50   31   32 1    
    51   32   33 1    
    52   32   51 1    
    53   32   52 1    
    54   34   35 2    
    55   34   36 1    
    56   36   37 1    
    57   36   53 1    
    58   36   54 1    
    59   37   38 1    
    60   37   55 1    
    61   37   56 1    
    62   38   57 1    
    63   38   58 1    
@<TRIPOS>SUBSTRUCTURE
     1 UNK         1 GROUP             0       ****    0 ROOT    
