@<TRIPOS>MOLECULE
ZINC39188347_172
47   51    1
SMALL
USER_CHARGES


@<TRIPOS>ATOM
      1 C1         -7.7614   52.5460   29.3991 C.2       1 UNK         0.0000 
      2 C2         -7.9806   52.3890   30.8299 C.2       1 UNK         0.0000 
      3 C3         -7.0995   51.7269   31.6252 C.2       1 UNK         0.0000 
      4 C4         -5.9374   51.1643   31.0810 C.2       1 UNK         0.0000 
      5 N5         -4.9787   50.4983   31.6821 N.pl3     1 UNK         0.0000 
      6 C6         -3.9523   50.0967   30.7141 C.3       1 UNK         0.0000 
      7 C7         -4.4902   50.6965   29.4334 C.2       1 UNK         0.0000 
      8 C8         -5.6727   51.2926   29.7119 C.2       1 UNK         0.0000 
      9 C9         -6.6431   52.0122   28.8675 C.2       1 UNK         0.0000 
     10 C10        -3.8269   50.6143   28.1671 C.2       1 UNK         0.0000 
     11 N11        -3.8655   51.5235   27.2766 N.2       1 UNK         0.0000 
     12 N12        -3.0888   51.4230   26.0829 N.pl3     1 UNK         0.0000 
     13 C13        -2.8832   52.4758   25.1684 C.2       1 UNK         0.0000 
     14 N14        -1.9416   52.2182   24.3590 N.2       1 UNK         0.0000 
     15 N15        -1.3799   50.9581   24.6799 N.pl3     1 UNK         0.0000 
     16 C16        -1.9931   50.4783   25.9013 C.3       1 UNK         0.0000 
     17 H17        -2.3673   49.4610   25.7615 H         1 UNK         0.0000 
     18 N18        -0.9164   50.4967   26.8799 N.3       1 UNK         0.0000 
     19 N19         0.3034   50.2136   26.1467 N.3       1 UNK         0.0000 
     20 C20         0.0226   50.5658   24.7636 C.3       1 UNK         0.0000 
     21 H21         0.1332   49.6560   24.1700 H         1 UNK         0.0000 
     22 S22         1.2301   51.7240   24.0364 S.3       1 UNK         0.0000 
     23 C23         1.0695   53.1628   25.1382 C.3       1 UNK         0.0000 
     24 C24         2.3105   53.4137   25.9798 C.ar      1 UNK         0.0000 
     25 C25         3.4051   54.0974   25.4367 C.ar      1 UNK         0.0000 
     26 C26         4.5226   54.3770   26.2262 C.ar      1 UNK         0.0000 
     27 C27         4.5522   53.9765   27.5625 C.ar      1 UNK         0.0000 
     28 C28         3.4635   53.2954   28.1109 C.ar      1 UNK         0.0000 
     29 C29         2.3441   53.0164   27.3220 C.ar      1 UNK         0.0000 
     30 Br30        3.5124   52.7329   29.9321 Br        1 UNK         0.0000 
     31 H31        -8.4817   53.0638   28.7789 H         1 UNK         0.0000 
     32 H32        -8.8728   52.8080   31.2709 H         1 UNK         0.0000 
     33 H33        -7.3159   51.6386   32.6800 H         1 UNK         0.0000 
     34 H34        -2.9905   50.4974   31.0433 H         1 UNK         0.0000 
     35 H35        -3.8966   49.0083   30.6990 H         1 UNK         0.0000 
     36 H36        -6.4894   52.1225   27.8031 H         1 UNK         0.0000 
     37 H37        -3.2686   49.6943   28.0695 H         1 UNK         0.0000 
     38 H38        -3.4962   53.3708   25.1367 H         1 UNK         0.0000 
     39 H39        -1.0521   49.7498   27.5744 H         1 UNK         0.0000 
     40 H40         0.3747   49.2040   26.1548 H         1 UNK         0.0000 
     41 H41         0.8618   54.0394   24.5247 H         1 UNK         0.0000 
     42 H42         0.2063   53.0337   25.7904 H         1 UNK         0.0000 
     43 H43         3.3900   54.4147   24.4031 H         1 UNK         0.0000 
     44 H44         5.3663   54.9005   25.8003 H         1 UNK         0.0000 
     45 H45         5.4194   54.1893   28.1712 H         1 UNK         0.0000 
     46 H46         1.5059   52.4862   27.7540 H         1 UNK         0.0000 
     47 H47        -4.9123   50.3258   32.6840 H         1 UNK         0.0000 
@<TRIPOS>BOND
     1    1    9 2    
     2    1    2 1    
     3    1   31 1    
     4    2    3 2    
     5    2   32 1    
     6    3    4 1    
     7    3   33 1    
     8    4    8 1    
     9    4    5 2    
    10    5    6 1    
    11    5   47 1    
    12    6    7 1    
    13    6   34 1    
    14    6   35 1    
    15    7    8 2    
    16    7   10 1    
    17    8    9 1    
    18    9   36 1    
    19   10   11 2    
    20   10   37 1    
    21   11   12 1    
    22   12   16 1    
    23   12   13 1    
    24   13   14 2    
    25   13   38 1    
    26   14   15 1    
    27   15   20 1    
    28   15   16 1    
    29   16   17 1    
    30   16   18 1    
    31   18   19 1    
    32   18   39 1    
    33   19   20 1    
    34   19   40 1    
    35   20   21 1    
    36   20   22 1    
    37   22   23 1    
    38   23   24 1    
    39   23   41 1    
    40   23   42 1    
    41   24   29 ar   
    42   24   25 ar   
    43   25   26 ar   
    44   25   43 1    
    45   26   27 ar   
    46   26   44 1    
    47   27   28 ar   
    48   27   45 1    
    49   28   29 ar   
    50   28   30 1    
    51   29   46 1    
@<TRIPOS>SUBSTRUCTURE
     1 UNK         1 GROUP             0       ****    0 ROOT    
