@<TRIPOS>MOLECULE
ZINC03832692_3198
43   45    1
SMALL
USER_CHARGES


@<TRIPOS>ATOM
      1 C1          6.6482   54.8942   26.7826 C.ar      1 UNK         0.0000 
      2 C2          6.7043   55.0479   25.4012 C.ar      1 UNK         0.0000 
      3 C3          5.5819   54.7813   24.6289 C.ar      1 UNK         0.0000 
      4 C4          4.3732   54.3670   25.2106 C.ar      1 UNK         0.0000 
      5 C5          4.3213   54.2297   26.6231 C.ar      1 UNK         0.0000 
      6 C6          5.4672   54.4905   27.3902 C.ar      1 UNK         0.0000 
      7 N7          3.1315   53.7878   27.2198 N.am      1 UNK         0.0000 
      8 C8          2.6813   53.8709   28.4911 C.2       1 UNK         0.0000 
      9 O9          3.2660   54.4439   29.4140 O.2       1 UNK         0.0000 
     10 C10         1.3712   53.1557   28.7374 C.ar      1 UNK         0.0000 
     11 C11         0.9643   52.8490   30.0447 C.ar      1 UNK         0.0000 
     12 C12        -0.2044   52.1233   30.2712 C.ar      1 UNK         0.0000 
     13 C13        -0.9877   51.6967   29.2015 C.ar      1 UNK         0.0000 
     14 C14        -0.6165   52.0221   27.8979 C.ar      1 UNK         0.0000 
     15 C15         0.5480   52.7490   27.6734 C.ar      1 UNK         0.0000 
     16 S16        -1.5465   51.4280   26.4940 S.o2      1 UNK         0.0000 
     17 O17        -2.8919   51.0701   26.9558 O.2       1 UNK         0.0000 
     18 O18        -1.3447   52.3755   25.3901 O.2       1 UNK         0.0000 
     19 N19        -0.7153   49.9231   26.0818 N.pl3     1 UNK         0.0000 
     20 C20        -0.9447   49.3034   24.8554 C.ar      1 UNK         0.0000 
     21 C21        -0.5409   49.9054   23.6620 C.ar      1 UNK         0.0000 
     22 C22        -0.7356   49.2409   22.4540 C.ar      1 UNK         0.0000 
     23 C23        -1.3289   47.9800   22.4484 C.ar      1 UNK         0.0000 
     24 C24        -1.7294   47.3778   23.6401 C.ar      1 UNK         0.0000 
     25 C25        -1.5309   48.0387   24.8488 C.ar      1 UNK         0.0000 
     26 Br26       -1.5736   47.0565   20.8030 Br        1 UNK         0.0000 
     27 N27         3.2212   54.0764   24.3054 N.pl3     1 UNK         0.0000 
     28 O28         3.2676   54.4939   23.1516 O.co2     1 UNK         0.0000 
     29 O29         2.2738   53.4128   24.7147 O.co2     1 UNK         0.0000 
     30 H30         7.5069   55.0897   27.4037 H         1 UNK         0.0000 
     31 H31         7.6114   55.3616   24.9074 H         1 UNK         0.0000 
     32 H32         5.6639   54.8937   23.5567 H         1 UNK         0.0000 
     33 H33         5.4723   54.3703   28.4625 H         1 UNK         0.0000 
     34 H34         2.5006   53.3622   26.5546 H         1 UNK         0.0000 
     35 H35         1.5600   53.1448   30.8965 H         1 UNK         0.0000 
     36 H36        -0.4958   51.8681   31.2796 H         1 UNK         0.0000 
     37 H37        -1.8678   51.0955   29.3896 H         1 UNK         0.0000 
     38 H38         0.8030   52.9639   26.6480 H         1 UNK         0.0000 
     39 H39        -0.8968   49.2638   26.8350 H         1 UNK         0.0000 
     40 H40        -0.0658   50.8760   23.6718 H         1 UNK         0.0000 
     41 H41        -0.4185   49.6970   21.5277 H         1 UNK         0.0000 
     42 H42        -2.1872   46.4012   23.6256 H         1 UNK         0.0000 
     43 H43        -1.8235   47.5709   25.7801 H         1 UNK         0.0000 
@<TRIPOS>BOND
     1    1    6 ar   
     2    1    2 ar   
     3    1   30 1    
     4    2    3 ar   
     5    2   31 1    
     6    3    4 ar   
     7    3   32 1    
     8    4    5 ar   
     9    4   27 1    
    10    5    6 ar   
    11    5    7 1    
    12    6   33 1    
    13    7    8 am   BACKBONE|DICT|INTERRES
    14    7   34 1    
    15    8    9 2    
    16    8   10 1    
    17   10   15 ar   
    18   10   11 ar   
    19   11   12 ar   
    20   11   35 1    
    21   12   13 ar   
    22   12   36 1    
    23   13   14 ar   
    24   13   37 1    
    25   14   15 ar   
    26   14   16 1    
    27   15   38 1    
    28   16   17 2    
    29   16   18 2    
    30   16   19 1    
    31   19   20 1    
    32   19   39 1    
    33   20   25 ar   
    34   20   21 ar   
    35   21   22 ar   
    36   21   40 1    
    37   22   23 ar   
    38   22   41 1    
    39   23   24 ar   
    40   23   26 1    
    41   24   25 ar   
    42   24   42 1    
    43   25   43 1    
    44   27   28 2    
    45   27   29 1    
@<TRIPOS>SUBSTRUCTURE
     1 UNK         1 GROUP             0       ****    0 ROOT    
