ZINC36065056_5810
                    3D
 Schrodinger Suite 2024-2.
 60 63  0  0  1  0            999 V2000
   -0.1341   53.2116   30.4388 C   0  0  0  0  0  0
   -0.1416   52.0474   29.4404 C   0  0  0  0  0  0
   -1.5248   51.3873   29.2794 C   0  0  0  0  0  0
    0.3391   52.5748   28.2107 O   0  0  0  0  0  0
    0.8589   51.7724   27.2632 C   0  0  0  0  0  0
    0.8154   50.5461   27.2817 O   0  0  0  0  0  0
    1.4795   52.4969   26.1621 C   0  0  0  0  0  0
    2.4120   53.4875   26.3501 C   0  0  0  0  0  0
    2.9847   54.1425   25.2921 N   0  0  0  0  0  0
    2.7487   53.7477   24.1047 C   0  0  0  0  0  0
    1.9036   52.7141   23.7133 N   0  0  0  0  0  0
    1.1213   51.9710   24.7379 C   0  0  2  0  0  0
    1.5041   50.9535   24.6638 H   0  0  0  0  0  0
   -0.3826   51.8826   24.4186 C   0  0  0  0  0  0
   -1.0874   53.0415   24.0814 C   0  0  0  0  0  0
   -2.4426   52.9838   23.7598 C   0  0  0  0  0  0
   -3.1138   51.7680   23.7965 C   0  0  0  0  0  0
   -2.4270   50.6059   24.1409 C   0  0  0  0  0  0
   -1.0549   50.6464   24.4480 C   0  0  0  0  0  0
   -0.3171   49.5203   24.7631 O   0  0  0  0  0  0
   -0.9834   48.2859   24.9904 C   0  0  0  0  0  0
    1.9972   52.3673   22.3756 C   0  0  0  0  0  0
    2.7860   53.2132   21.6920 C   0  0  0  0  0  0
    3.5048   54.4667   22.6784 S   0  0  0  0  0  0
    1.4317   51.1682   21.7763 C   0  0  0  0  0  0
    2.1006   50.3654   20.9296 C   0  0  0  0  0  0
    3.2988   50.4967   20.4819 O   0  5  0  0  0  0
    1.5164   49.2217   20.4398 N   0  0  0  0  0  0
    1.5991   48.6984   19.0808 C   0  0  0  0  0  0
    0.9975   47.2914   18.9798 C   0  0  0  0  0  0
   -0.4852   47.1176   18.7628 C   0  0  0  0  0  0
    0.4985   46.7849   17.6500 C   0  0  0  0  0  0
    2.9716   54.0028   27.7032 C   0  0  0  0  0  0
    4.2077   54.4999   27.5812 F   0  0  0  0  0  0
    2.1791   54.9633   28.1812 F   0  0  0  0  0  0
    3.0551   53.0264   28.6099 F   0  0  0  0  0  0
   -0.4974   52.9009   31.4184 H   0  0  0  0  0  0
    0.8766   53.5961   30.5782 H   0  0  0  0  0  0
   -0.7525   54.0362   30.0816 H   0  0  0  0  0  0
    0.5622   51.2966   29.8024 H   0  0  0  0  0  0
   -1.8862   50.9795   30.2248 H   0  0  0  0  0  0
   -2.2617   52.0831   28.8938 H   0  0  0  0  0  0
   -1.4900   50.5613   28.5710 H   0  0  0  0  0  0
   -0.5783   53.9947   24.0705 H   0  0  0  0  0  0
   -2.9747   53.8879   23.5032 H   0  0  0  0  0  0
   -4.1674   51.7214   23.5631 H   0  0  0  0  0  0
   -2.9759   49.6774   24.1566 H   0  0  0  0  0  0
   -0.2477   47.5389   25.2796 H   0  0  0  0  0  0
   -1.7106   48.3640   25.8001 H   0  0  0  0  0  0
   -1.4805   47.9232   24.0892 H   0  0  0  0  0  0
    3.0340   53.1392   20.6420 H   0  0  0  0  0  0
    0.4203   50.8992   22.0384 H   0  0  0  0  0  0
    0.5975   49.0581   20.8129 H   0  0  0  0  0  0
    2.6415   48.6739   18.7540 H   0  0  0  0  0  0
    1.0861   49.3863   18.4074 H   0  0  0  0  0  0
    1.5042   46.5788   19.6316 H   0  0  0  0  0  0
   -1.1094   48.0089   18.6766 H   0  0  0  0  0  0
   -0.9909   46.3080   19.2906 H   0  0  0  0  0  0
    0.6833   45.7416   17.3922 H   0  0  0  0  0  0
    0.5691   47.4437   16.7825 H   0  0  0  0  0  0
  1  2  1  0  0  0
  1 37  1  0  0  0
  1 38  1  0  0  0
  1 39  1  0  0  0
  2  3  1  0  0  0
  2  4  1  0  0  0
  2 40  1  0  0  0
  3 41  1  0  0  0
  3 42  1  0  0  0
  3 43  1  0  0  0
  4  5  1  0  0  0
  5  6  2  0  0  0
  5  7  1  0  0  0
  7 12  1  0  0  0
  7  8  2  0  0  0
  8  9  1  0  0  0
  8 33  1  0  0  0
  9 10  2  0  0  0
 10 24  1  0  0  0
 10 11  1  0  0  0
 11 12  1  0  0  0
 11 22  1  0  0  0
 12 13  1  0  0  0
 12 14  1  0  0  0
 14 19  2  0  0  0
 14 15  1  0  0  0
 15 16  2  0  0  0
 15 44  1  0  0  0
 16 17  1  0  0  0
 16 45  1  0  0  0
 17 18  2  0  0  0
 17 46  1  0  0  0
 18 19  1  0  0  0
 18 47  1  0  0  0
 19 20  1  0  0  0
 20 21  1  0  0  0
 21 48  1  0  0  0
 21 49  1  0  0  0
 21 50  1  0  0  0
 22 23  2  0  0  0
 22 25  1  0  0  0
 23 24  1  0  0  0
 23 51  1  0  0  0
 25 26  2  0  0  0
 25 52  1  0  0  0
 26 27  1  0  0  0
 26 28  1  0  0  0
 28 29  1  0  0  0
 28 53  1  0  0  0
 29 30  1  0  0  0
 29 54  1  0  0  0
 29 55  1  0  0  0
 30 32  1  0  0  0
 30 31  1  0  0  0
 30 56  1  0  0  0
 31 32  1  0  0  0
 31 57  1  0  0  0
 31 58  1  0  0  0
 32 59  1  0  0  0
 32 60  1  0  0  0
 33 34  1  0  0  0
 33 35  1  0  0  0
 33 36  1  0  0  0
M  CHG  1  27  -1
M  END
> <i_i_glide_confnum>
3

> <i_i_glide_lignum>
5811

> <i_i_glide_posenum>
200

> <i_i_glide_rotatable_bonds>
10

> <i_m_Source_File_Index>
1335

> <b_m_subgroup_collapsed>
0

> <r_i_docking_score>
-4.1965

> <r_i_glide_ecoul>
-0.773559

> <r_i_glide_eff_state_penalty>
0

> <r_i_glide_einternal>
3.83689

> <r_i_glide_emodel>
-43.3616

> <r_i_glide_energy>
-36.1392

> <r_i_glide_erotb>
0.47502

> <r_i_glide_esite>
-0.00448036

> <r_i_glide_evdw>
-35.3656

> <r_i_glide_gscore>
-4.1965

> <r_i_glide_hbond>
-0.00857538

> <r_i_glide_ligand_efficiency>
-0.1199

> <r_i_glide_ligand_efficiency_ln>
-0.921225

> <r_i_glide_ligand_efficiency_sa>
-0.392201

> <r_i_glide_lipo>
-1.11922

> <r_i_glide_metal>
0

> <r_i_glide_rewards>
-1.65493

> <s_i_glide_gridfile>
wee1_glide-grid

> <s_m_Source_File>
wee1_decoys_glide_SP.sdf

> <s_m_Source_Path>
/Users/zhangxujun/Desktop

> <s_m_entry_id>
1610

> <s_m_entry_name>
wee1_decoys_glide_SP.1335

> <s_m_subgroup_title>
wee1_decoys_glide_SP

> <s_m_subgroupid>
wee1_decoys_glide_SP


$$$$
