@<TRIPOS>MOLECULE
ZINC35220034_3273
53   56    1
SMALL
USER_CHARGES


@<TRIPOS>ATOM
      1 C1         -5.8276   49.9463   26.3315 C.3       1 UNK         0.0000 
      2 C2         -5.4212   51.1550   27.2052 C.3       1 UNK         0.0000 
      3 H3         -6.2744   51.4426   27.8207 H         1 UNK         0.0000 
      4 C4         -4.2852   50.7108   28.1795 C.2       1 UNK         0.0000 
      5 O5         -4.4891   50.2175   29.2843 O.2       1 UNK         0.0000 
      6 N6         -3.0568   50.8967   27.6475 N.am      1 UNK         0.0000 
      7 C7         -2.7738   51.5241   26.4295 C.ar      1 UNK         0.0000 
      8 C8         -1.4928   51.5297   25.8669 C.ar      1 UNK         0.0000 
      9 C9         -1.2693   52.2035   24.6550 C.ar      1 UNK         0.0000 
     10 C10        -2.3359   52.8196   23.9927 C.ar      1 UNK         0.0000 
     11 C11        -3.6088   52.8319   24.5600 C.ar      1 UNK         0.0000 
     12 C12        -3.8138   52.1903   25.7758 C.ar      1 UNK         0.0000 
     13 O13        -5.0509   52.2848   26.3799 O.3       1 UNK         0.0000 
     14 S14         0.3809   52.3776   23.9724 S.o2      1 UNK         0.0000 
     15 O15         1.3018   51.6967   24.8821 O.2       1 UNK         0.0000 
     16 O16         0.5569   53.8032   23.6817 O.2       1 UNK         0.0000 
     17 N17         0.3803   51.5020   22.4325 N.pl3     1 UNK         0.0000 
     18 C18         0.4992   50.0216   22.4348 C.3       1 UNK         0.0000 
     19 C19         1.8741   49.5652   21.8980 C.3       1 UNK         0.0000 
     20 C20         2.2046   50.2290   20.5424 C.3       1 UNK         0.0000 
     21 C21         2.1366   51.7770   20.6262 C.3       1 UNK         0.0000 
     22 H22         2.2927   52.1994   19.6319 H         1 UNK         0.0000 
     23 C23         0.7306   52.1921   21.1569 C.3       1 UNK         0.0000 
     24 C24         3.3456   52.3387   21.4234 C.2       1 UNK         0.0000 
     25 O25         4.4510   51.8072   21.2821 O.2       1 UNK         0.0000 
     26 N26         3.1439   53.3923   22.2435 N.am      1 UNK         0.0000 
     27 C27         4.1173   53.9434   23.0883 C.ar      1 UNK         0.0000 
     28 C28         3.7920   54.0922   24.4402 C.ar      1 UNK         0.0000 
     29 C29         4.7242   54.6072   25.3351 C.ar      1 UNK         0.0000 
     30 C30         5.9770   55.0059   24.8781 C.ar      1 UNK         0.0000 
     31 C31         6.3008   54.8967   23.5256 C.ar      1 UNK         0.0000 
     32 C32         5.3688   54.3867   22.6225 C.ar      1 UNK         0.0000 
     33 F33         5.6757   54.3711   21.3052 F         1 UNK         0.0000 
     34 Cl34        7.1040   55.6762   25.9862 Cl        1 UNK         0.0000 
     35 H35        -6.1504   49.0993   26.9405 H         1 UNK         0.0000 
     36 H36        -6.6588   50.2091   25.6787 H         1 UNK         0.0000 
     37 H37        -5.0105   49.6054   25.6941 H         1 UNK         0.0000 
     38 H38        -2.3076   50.5073   28.2059 H         1 UNK         0.0000 
     39 H39        -0.6755   51.0445   26.3839 H         1 UNK         0.0000 
     40 H40        -2.1677   53.3070   23.0476 H         1 UNK         0.0000 
     41 H41        -4.4253   53.3500   24.0813 H         1 UNK         0.0000 
     42 H42        -0.3209   49.6119   21.8463 H         1 UNK         0.0000 
     43 H43         0.3622   49.6591   23.4546 H         1 UNK         0.0000 
     44 H44         1.8965   48.4898   21.7891 H         1 UNK         0.0000 
     45 H45         2.6484   49.8002   22.6309 H         1 UNK         0.0000 
     46 H46         1.5118   49.8951   19.7685 H         1 UNK         0.0000 
     47 H47         3.1502   49.8933   20.1133 H         1 UNK         0.0000 
     48 H48         0.6340   53.2733   21.2547 H         1 UNK         0.0000 
     49 H49        -0.0287   51.8799   20.4385 H         1 UNK         0.0000 
     50 H50         2.1870   53.6562   22.4352 H         1 UNK         0.0000 
     51 H51         2.8298   53.7811   24.8150 H         1 UNK         0.0000 
     52 H52         4.4710   54.7012   26.3810 H         1 UNK         0.0000 
     53 H53         7.2571   55.2396   23.1618 H         1 UNK         0.0000 
@<TRIPOS>BOND
     1    1    2 1    
     2    1   35 1    
     3    1   36 1    
     4    1   37 1    
     5    2    3 1    
     6    2   13 1    
     7    2    4 1    
     8    4    5 2    
     9    4    6 am   BACKBONE|DICT|INTERRES
    10    6    7 1    
    11    6   38 1    
    12    7   12 ar   
    13    7    8 ar   
    14    8    9 ar   
    15    8   39 1    
    16    9   10 ar   
    17    9   14 1    
    18   10   11 ar   
    19   10   40 1    
    20   11   12 ar   
    21   11   41 1    
    22   12   13 1    
    23   14   15 2    
    24   14   16 2    
    25   14   17 1    
    26   17   23 1    
    27   17   18 1    
    28   18   19 1    
    29   18   42 1    
    30   18   43 1    
    31   19   20 1    
    32   19   44 1    
    33   19   45 1    
    34   20   21 1    
    35   20   46 1    
    36   20   47 1    
    37   21   22 1    
    38   21   23 1    
    39   21   24 1    
    40   23   48 1    
    41   23   49 1    
    42   24   25 2    
    43   24   26 am   BACKBONE|DICT|INTERRES
    44   26   27 1    
    45   26   50 1    
    46   27   32 ar   
    47   27   28 ar   
    48   28   29 ar   
    49   28   51 1    
    50   29   30 ar   
    51   29   52 1    
    52   30   31 ar   
    53   30   34 1    
    54   31   32 ar   
    55   31   53 1    
    56   32   33 1    
@<TRIPOS>SUBSTRUCTURE
     1 UNK         1 GROUP             0       ****    0 ROOT    
