@<TRIPOS>MOLECULE
ZINC39606947_88
59   62    1
SMALL
USER_CHARGES


@<TRIPOS>ATOM
      1 C1         -3.6959   53.6329   25.8145 C.3       1 UNK         0.0000 
      2 C2         -3.2507   52.2695   25.2528 C.3       1 UNK         0.0000 
      3 H3         -4.0539   51.8593   24.6386 H         1 UNK         0.0000 
      4 C4         -2.0146   52.4268   24.3219 C.2       1 UNK         0.0000 
      5 O5         -2.0990   52.7241   23.1338 O.2       1 UNK         0.0000 
      6 N6         -0.8090   52.3463   24.9266 N.am      1 UNK         0.0000 
      7 C7         -0.4812   52.1487   26.2744 C.ar      1 UNK         0.0000 
      8 C8          0.8088   52.4752   26.7169 C.ar      1 UNK         0.0000 
      9 C9          1.1714   52.3055   28.0658 C.ar      1 UNK         0.0000 
     10 C10         0.2003   51.8394   28.9630 C.ar      1 UNK         0.0000 
     11 C11        -1.0790   51.5070   28.5244 C.ar      1 UNK         0.0000 
     12 C12        -1.4192   51.6462   27.1819 C.ar      1 UNK         0.0000 
     13 S13        -2.9747   51.0537   26.5907 S.3       1 UNK         0.0000 
     14 C14         2.5692   52.5315   28.5646 C.2       1 UNK         0.0000 
     15 O15         2.9726   52.0989   29.6492 O.2       1 UNK         0.0000 
     16 O16         3.3366   53.2963   27.7257 O.3       1 UNK         0.0000 
     17 C17         4.7215   53.5952   28.0065 C.3       1 UNK         0.0000 
     18 H18         5.2392   52.6621   28.2422 H         1 UNK         0.0000 
     19 C19         4.8677   54.5671   29.2021 C.3       1 UNK         0.0000 
     20 C20         5.4479   54.1136   26.7353 C.2       1 UNK         0.0000 
     21 O21         6.6052   54.5259   26.8390 O.2       1 UNK         0.0000 
     22 N22         4.7759   54.0309   25.5633 N.am      1 UNK         0.0000 
     23 C23         5.1874   54.3283   24.2513 C.ar      1 UNK         0.0000 
     24 C24         4.2828   54.0147   23.2357 C.ar      1 UNK         0.0000 
     25 C25         4.5896   54.2877   21.9041 C.ar      1 UNK         0.0000 
     26 C26         5.8058   54.8956   21.5507 C.ar      1 UNK         0.0000 
     27 C27         6.7046   55.1985   22.5825 C.ar      1 UNK         0.0000 
     28 C28         6.4148   54.9084   23.9125 C.ar      1 UNK         0.0000 
     29 N29         6.0944   55.2815   20.2364 N.pl3     1 UNK         0.0000 
     30 C30         5.1181   55.1253   19.1362 C.3       1 UNK         0.0000 
     31 C31         5.3474   56.1392   17.9936 C.3       1 UNK         0.0000 
     32 C32         6.7735   56.0740   17.4351 C.3       1 UNK         0.0000 
     33 C33         7.7815   56.1422   18.5891 C.3       1 UNK         0.0000 
     34 C34         7.4570   55.1083   19.6868 C.3       1 UNK         0.0000 
     35 H35        -3.8954   54.3515   25.0189 H         1 UNK         0.0000 
     36 H36        -4.6161   53.5294   26.3895 H         1 UNK         0.0000 
     37 H37        -2.9483   54.0587   26.4819 H         1 UNK         0.0000 
     38 H38        -0.0561   52.5469   24.2871 H         1 UNK         0.0000 
     39 H39         1.5331   52.8375   25.9998 H         1 UNK         0.0000 
     40 H40         0.4330   51.6960   30.0088 H         1 UNK         0.0000 
     41 H41        -1.7895   51.0831   29.2204 H         1 UNK         0.0000 
     42 H42         5.9024   54.8958   29.3451 H         1 UNK         0.0000 
     43 H43         4.2381   55.4437   29.0692 H         1 UNK         0.0000 
     44 H44         4.5522   54.0989   30.1322 H         1 UNK         0.0000 
     45 H45         3.8500   53.6382   25.6376 H         1 UNK         0.0000 
     46 H46         3.3291   53.5587   23.4663 H         1 UNK         0.0000 
     47 H47         3.8536   54.0280   21.1570 H         1 UNK         0.0000 
     48 H48         7.6404   55.6953   22.3761 H         1 UNK         0.0000 
     49 H49         7.1529   55.1764   24.6503 H         1 UNK         0.0000 
     50 H50         4.1068   55.2951   19.5012 H         1 UNK         0.0000 
     51 H51         5.1501   54.0994   18.7657 H         1 UNK         0.0000 
     52 H52         5.1047   57.1448   18.3414 H         1 UNK         0.0000 
     53 H53         4.6383   55.9382   17.1895 H         1 UNK         0.0000 
     54 H54         6.9097   55.1420   16.8831 H         1 UNK         0.0000 
     55 H55         6.9453   56.8855   16.7266 H         1 UNK         0.0000 
     56 H56         8.7868   55.9597   18.2057 H         1 UNK         0.0000 
     57 H57         7.8117   57.1439   19.0235 H         1 UNK         0.0000 
     58 H58         8.2274   55.1911   20.4521 H         1 UNK         0.0000 
     59 H59         7.5427   54.0978   19.2810 H         1 UNK         0.0000 
@<TRIPOS>BOND
     1    1    2 1    
     2    1   35 1    
     3    1   36 1    
     4    1   37 1    
     5    2    3 1    
     6    2   13 1    
     7    2    4 1    
     8    4    5 2    
     9    4    6 am   BACKBONE|DICT|INTERRES
    10    6    7 1    
    11    6   38 1    
    12    7   12 ar   
    13    7    8 ar   
    14    8    9 ar   
    15    8   39 1    
    16    9   10 ar   
    17    9   14 1    
    18   10   11 ar   
    19   10   40 1    
    20   11   12 ar   
    21   11   41 1    
    22   12   13 1    
    23   14   15 2    
    24   14   16 1    
    25   16   17 1    
    26   17   18 1    
    27   17   19 1    
    28   17   20 1    
    29   19   42 1    
    30   19   43 1    
    31   19   44 1    
    32   20   21 2    
    33   20   22 am   BACKBONE|DICT|INTERRES
    34   22   23 1    
    35   22   45 1    
    36   23   28 ar   
    37   23   24 ar   
    38   24   25 ar   
    39   24   46 1    
    40   25   26 ar   
    41   25   47 1    
    42   26   27 ar   
    43   26   29 1    
    44   27   28 ar   
    45   27   48 1    
    46   28   49 1    
    47   29   34 1    
    48   29   30 1    
    49   30   31 1    
    50   30   50 1    
    51   30   51 1    
    52   31   32 1    
    53   31   52 1    
    54   31   53 1    
    55   32   33 1    
    56   32   54 1    
    57   32   55 1    
    58   33   34 1    
    59   33   56 1    
    60   33   57 1    
    61   34   58 1    
    62   34   59 1    
@<TRIPOS>SUBSTRUCTURE
     1 UNK         1 GROUP             0       ****    0 ROOT    
