@<TRIPOS>MOLECULE
ZINC65421334_1354
52   56    1
SMALL
USER_CHARGES


@<TRIPOS>ATOM
      1 C1          4.9972   52.1415   21.0862 C.3       1 UNK         0.0000 
      2 C2          3.7079   51.4629   20.6926 C.ar      1 UNK         0.0000 
      3 N3          3.1038   50.4976   21.3397 N.2       1 UNK         0.0000 
      4 C4          2.0481   50.2480   20.5742 C.ar      1 UNK         0.0000 
      5 H5          3.2464   52.4547   18.8696 H         1 UNK         0.0000 
      6 N6          1.9135   51.0030   19.4974 N.2       1 UNK         0.0000 
      7 N7          2.9948   51.7741   19.5739 N.pl3     1 UNK         0.0000 
      8 C8          1.0383   49.1749   20.9429 C.3       1 UNK         0.0000 
      9 H9          1.3637   48.5981   21.8103 H         1 UNK         0.0000 
     10 C10         0.7934   48.1955   19.7707 C.3       1 UNK         0.0000 
     11 N11        -0.2571   49.9207   21.3782 N.4       1 UNK         0.0000 
     12 C12        -1.6232   49.3460   20.9716 C.3       1 UNK         0.0000 
     13 N13        -2.5534   50.0242   21.8563 N.3       1 UNK         0.0000 
     14 C14        -1.9162   50.0802   23.1589 C.3       1 UNK         0.0000 
     15 H15        -2.0898   49.1038   23.6135 H         1 UNK         0.0000 
     16 C16        -0.4048   50.2017   22.8951 C.3       1 UNK         0.0000 
     17 H17         0.0655   49.3477   23.3837 H         1 UNK         0.0000 
     18 C18         0.3462   51.4566   23.3657 C.ar      1 UNK         0.0000 
     19 C19         0.6991   52.4961   22.4883 C.ar      1 UNK         0.0000 
     20 C20         1.5049   53.5583   22.8950 C.ar      1 UNK         0.0000 
     21 C21         1.9136   53.5655   24.2301 C.ar      1 UNK         0.0000 
     22 C22         1.5168   52.5798   25.1608 C.ar      1 UNK         0.0000 
     23 C23         0.7177   51.5182   24.7175 C.ar      1 UNK         0.0000 
     24 C24         2.1199   52.9701   26.3965 C.2       1 UNK         0.0000 
     25 C25         2.8772   54.0950   26.1116 C.2       1 UNK         0.0000 
     26 O26         2.7451   54.4794   24.8087 O.3       1 UNK         0.0000 
     27 C27        -2.5524   51.1091   24.0981 C.ar      1 UNK         0.0000 
     28 C28        -2.7268   50.7928   25.4498 C.ar      1 UNK         0.0000 
     29 C29        -3.2949   51.7238   26.3159 C.ar      1 UNK         0.0000 
     30 C30        -3.6937   52.9669   25.8296 C.ar      1 UNK         0.0000 
     31 C31        -3.5172   53.2957   24.4876 C.ar      1 UNK         0.0000 
     32 C32        -2.9312   52.3719   23.6290 C.ar      1 UNK         0.0000 
     33 H33         5.4750   51.6742   21.9479 H         1 UNK         0.0000 
     34 H34         5.7116   52.1075   20.2649 H         1 UNK         0.0000 
     35 H35         4.8385   53.1903   21.3348 H         1 UNK         0.0000 
     36 H36         1.7346   47.7525   19.4394 H         1 UNK         0.0000 
     37 H37         0.1370   47.3719   20.0520 H         1 UNK         0.0000 
     38 H38         0.3570   48.6974   18.9051 H         1 UNK         0.0000 
     39 H39        -1.7831   49.5512   19.9105 H         1 UNK         0.0000 
     40 H40        -1.5984   48.2715   21.1650 H         1 UNK         0.0000 
     41 H41        -3.4329   49.5310   21.9270 H         1 UNK         0.0000 
     42 H42         0.3907   52.4740   21.4542 H         1 UNK         0.0000 
     43 H43         1.8212   54.3290   22.2059 H         1 UNK         0.0000 
     44 H44         0.4286   50.7387   25.4100 H         1 UNK         0.0000 
     45 H45         2.0552   52.4761   27.3559 H         1 UNK         0.0000 
     46 H46         3.5192   54.7228   26.7137 H         1 UNK         0.0000 
     47 H47        -2.4207   49.8308   25.8369 H         1 UNK         0.0000 
     48 H48        -3.4256   51.4756   27.3593 H         1 UNK         0.0000 
     49 H49        -4.1398   53.6872   26.4976 H         1 UNK         0.0000 
     50 H50        -3.8219   54.2634   24.1166 H         1 UNK         0.0000 
     51 H51        -2.7843   52.6317   22.5920 H         1 UNK         0.0000 
     52 H52        -0.2354   50.8212   20.9269 H         1 UNK         0.0000 
@<TRIPOS>BOND
     1    1   33 1    
     2    1   34 1    
     3    1   35 1    
     4    1    2 1    
     5    2    3 ar   
     6    2    7 ar   
     7    3    4 ar   
     8    4    8 1    
     9    4    6 ar   
    10    5    7 1    
    11    6    7 ar   
    12    8    9 1    
    13    8   10 1    
    14    8   11 1    
    15   10   36 1    
    16   10   37 1    
    17   10   38 1    
    18   11   16 1    
    19   11   12 1    
    20   11   52 1    
    21   12   13 1    
    22   12   39 1    
    23   12   40 1    
    24   13   14 1    
    25   13   41 1    
    26   14   15 1    
    27   14   16 1    
    28   14   27 1    
    29   16   17 1    
    30   16   18 1    
    31   18   23 ar   
    32   18   19 ar   
    33   19   20 ar   
    34   19   42 1    
    35   20   21 ar   
    36   20   43 1    
    37   21   26 1    
    38   21   22 ar   
    39   22   23 ar   
    40   22   24 1    
    41   23   44 1    
    42   24   25 2    
    43   24   45 1    
    44   25   26 1    
    45   25   46 1    
    46   27   32 ar   
    47   27   28 ar   
    48   28   29 ar   
    49   28   47 1    
    50   29   30 ar   
    51   29   48 1    
    52   30   31 ar   
    53   30   49 1    
    54   31   32 ar   
    55   31   50 1    
    56   32   51 1    
@<TRIPOS>SUBSTRUCTURE
     1 UNK         1 GROUP             0       ****    0 ROOT    
