@<TRIPOS>MOLECULE
ZINC63503289_1207
59   64    1
SMALL
USER_CHARGES


@<TRIPOS>ATOM
      1 C1          5.0648   54.1116   25.0639 C.ar      1 UNK         0.0000 
      2 C2          6.2842   54.1133   24.3893 C.ar      1 UNK         0.0000 
      3 C3          6.3045   54.0972   22.9983 C.ar      1 UNK         0.0000 
      4 C4          5.1003   54.0894   22.2800 C.ar      1 UNK         0.0000 
      5 C5          3.8800   54.0974   22.9659 C.ar      1 UNK         0.0000 
      6 C6          3.8624   54.0975   24.3587 C.ar      1 UNK         0.0000 
      7 N7          5.1009   54.0978   20.8595 N.am      1 UNK         0.0000 
      8 C8          4.9383   52.7794   20.1605 C.3       1 UNK         0.0000 
      9 H9          5.9044   52.2892   20.2089 H         1 UNK         0.0000 
     10 N10         4.6176   52.8969   18.7430 N.3       1 UNK         0.0000 
     11 C11         5.4204   53.8552   18.0070 C.3       1 UNK         0.0000 
     12 H12         4.9789   53.9768   17.0163 H         1 UNK         0.0000 
     13 C13         5.5195   55.2279   18.6707 C.3       1 UNK         0.0000 
     14 H14         4.6407   55.8222   18.4174 H         1 UNK         0.0000 
     15 C15         5.5642   55.2257   20.2247 C.2       1 UNK         0.0000 
     16 O16         5.9076   56.2437   20.8373 O.2       1 UNK         0.0000 
     17 C17         6.7903   55.8664   18.1148 C.2       1 UNK         0.0000 
     18 C18         7.6678   54.9791   17.5897 C.2       1 UNK         0.0000 
     19 S19         7.1039   53.2975   17.6816 S.3       1 UNK         0.0000 
     20 C20         9.0397   55.3486   17.0370 C.3       1 UNK         0.0000 
     21 C21         9.1575   56.8673   16.7750 C.3       1 UNK         0.0000 
     22 C22         8.5188   57.7079   17.8960 C.3       1 UNK         0.0000 
     23 C23         7.0209   57.3774   18.0661 C.3       1 UNK         0.0000 
     24 S24         3.9036   51.5593   21.0406 S.3       1 UNK         0.0000 
     25 C25         2.2190   51.9572   20.5003 C.3       1 UNK         0.0000 
     26 C26         1.6357   50.8399   19.6640 C.2       1 UNK         0.0000 
     27 C27         0.7688   49.8635   19.9855 C.2       1 UNK         0.0000 
     28 C28         0.0660   49.5836   21.2433 C.2       1 UNK         0.0000 
     29 C29        -0.7198   48.4960   21.3645 C.2       1 UNK         0.0000 
     30 C30        -0.8379   47.5790   20.2245 C.2       1 UNK         0.0000 
     31 C31        -0.1840   47.8437   19.0506 C.2       1 UNK         0.0000 
     32 C32         0.6229   48.9809   18.9130 C.2       1 UNK         0.0000 
     33 N33         1.3419   49.3796   17.8894 N.pl3     1 UNK         0.0000 
     34 C34         2.0362   50.6331   18.2212 C.3       1 UNK         0.0000 
     35 N35        -1.6336   46.3317   20.3763 N.pl3     1 UNK         0.0000 
     36 O36        -1.7709   45.6128   19.3886 O.co2     1 UNK         0.0000 
     37 O37        -2.0952   46.0845   21.4867 O.co2     1 UNK         0.0000 
     38 H38         5.0521   54.1160   26.1436 H         1 UNK         0.0000 
     39 H39         7.2110   54.1222   24.9421 H         1 UNK         0.0000 
     40 H40         7.2540   54.1091   22.4829 H         1 UNK         0.0000 
     41 H41         2.9489   54.1096   22.4181 H         1 UNK         0.0000 
     42 H42         2.9223   54.0976   24.8904 H         1 UNK         0.0000 
     43 H43         4.8353   51.9688   18.3474 H         1 UNK         0.0000 
     44 H44         9.8079   55.0438   17.7497 H         1 UNK         0.0000 
     45 H45         9.2657   54.8002   16.1215 H         1 UNK         0.0000 
     46 H46        10.2063   57.1403   16.6530 H         1 UNK         0.0000 
     47 H47         8.6711   57.1092   15.8283 H         1 UNK         0.0000 
     48 H48         9.0438   57.5196   18.8346 H         1 UNK         0.0000 
     49 H49         8.6402   58.7712   17.6843 H         1 UNK         0.0000 
     50 H50         6.4635   57.8059   17.2320 H         1 UNK         0.0000 
     51 H51         6.6152   57.8867   18.9401 H         1 UNK         0.0000 
     52 H52         1.6110   52.1068   21.3910 H         1 UNK         0.0000 
     53 H53         2.1923   52.8970   19.9484 H         1 UNK         0.0000 
     54 H54         0.1540   50.2402   22.0982 H         1 UNK         0.0000 
     55 H55        -1.2348   48.3037   22.2965 H         1 UNK         0.0000 
     56 H56        -0.2724   47.1514   18.2249 H         1 UNK         0.0000 
     57 H57         1.6909   51.4137   17.5426 H         1 UNK         0.0000 
     58 H58         3.1044   50.4751   18.0819 H         1 UNK         0.0000 
     59 H59         1.4402   48.9008   16.9970 H         1 UNK         0.0000 
@<TRIPOS>BOND
     1    1    6 ar   
     2    1    2 ar   
     3    1   38 1    
     4    2    3 ar   
     5    2   39 1    
     6    3    4 ar   
     7    3   40 1    
     8    4    5 ar   
     9    4    7 1    
    10    5    6 ar   
    11    5   41 1    
    12    6   42 1    
    13    7   15 am   BACKBONE|DICT|INTERRES
    14    7    8 1    
    15    8    9 1    
    16    8   10 1    
    17    8   24 1    
    18   10   11 1    
    19   10   43 1    
    20   11   12 1    
    21   11   19 1    
    22   11   13 1    
    23   13   14 1    
    24   13   15 1    
    25   13   17 1    
    26   15   16 2    
    27   17   23 1    
    28   17   18 2    
    29   18   19 1    
    30   18   20 1    
    31   20   21 1    
    32   20   44 1    
    33   20   45 1    
    34   21   22 1    
    35   21   46 1    
    36   21   47 1    
    37   22   23 1    
    38   22   48 1    
    39   22   49 1    
    40   23   50 1    
    41   23   51 1    
    42   24   25 1    
    43   25   26 1    
    44   25   52 1    
    45   25   53 1    
    46   26   34 1    
    47   26   27 2    
    48   27   32 1    
    49   27   28 1    
    50   28   29 2    
    51   28   54 1    
    52   29   30 1    
    53   29   55 1    
    54   30   31 2    
    55   30   35 1    
    56   31   32 1    
    57   31   56 1    
    58   32   33 2    
    59   33   34 1    
    60   33   59 1    
    61   34   57 1    
    62   34   58 1    
    63   35   36 2    
    64   35   37 1    
@<TRIPOS>SUBSTRUCTURE
     1 UNK         1 GROUP             0       ****    0 ROOT    
