@<TRIPOS>MOLECULE
ZINC48836200_1696
39   40    1
SMALL
USER_CHARGES


@<TRIPOS>ATOM
      1 C1          1.8598   56.1842   29.8616 C.3       1 UNK         0.0000 
      2 N2          1.7742   54.8021   29.3581 N.am      1 UNK         0.0000 
      3 C3          2.9410   54.2724   28.7630 C.ar      1 UNK         0.0000 
      4 C4          3.3185   54.8967   27.5740 C.ar      1 UNK         0.0000 
      5 C5          4.4524   54.5191   26.8671 C.ar      1 UNK         0.0000 
      6 C6          5.2526   53.5088   27.3690 C.ar      1 UNK         0.0000 
      7 C7          4.8895   52.8752   28.5512 C.ar      1 UNK         0.0000 
      8 C8          3.7367   53.2145   29.2802 C.ar      1 UNK         0.0000 
      9 C9          3.4465   52.4387   30.5436 C.2       1 UNK         0.0000 
     10 O10         4.3362   51.6967   30.9956 O.co2     1 UNK         0.0000 
     11 O11         2.3345   52.4967   31.0966 O.co2     1 UNK         0.0000 
     12 C12         0.6230   54.0967   29.5582 C.2       1 UNK         0.0000 
     13 O13        -0.0956   54.4004   30.5082 O.2       1 UNK         0.0000 
     14 N14         0.3383   53.0064   28.7808 N.am      1 UNK         0.0000 
     15 C15        -0.2917   51.8258   29.4125 C.3       1 UNK         0.0000 
     16 C16        -1.5430   51.4090   28.6078 C.3       1 UNK         0.0000 
     17 C17        -1.3114   51.2699   27.0916 C.3       1 UNK         0.0000 
     18 C18        -0.5822   52.4963   26.5467 C.3       1 UNK         0.0000 
     19 C19         0.6880   52.8998   27.3461 C.3       1 UNK         0.0000 
     20 N20        -0.3567   50.0967   26.8817 N.4       1 UNK         0.0000 
     21 H21         1.6752   56.2205   30.9363 H         1 UNK         0.0000 
     22 H22         2.8401   56.6262   29.6817 H         1 UNK         0.0000 
     23 H23         1.1171   56.8149   29.3715 H         1 UNK         0.0000 
     24 H24         2.7044   55.6967   27.2142 H         1 UNK         0.0000 
     25 H25         4.7156   55.0195   25.9468 H         1 UNK         0.0000 
     26 H26         6.1394   53.1974   26.8365 H         1 UNK         0.0000 
     27 H27         5.5044   52.0570   28.8817 H         1 UNK         0.0000 
     28 H28         0.4442   51.0228   29.3812 H         1 UNK         0.0000 
     29 H29        -0.5559   51.9924   30.4603 H         1 UNK         0.0000 
     30 H30        -1.9156   50.4967   29.0462 H         1 UNK         0.0000 
     31 H31        -2.3523   52.0967   28.7932 H         1 UNK         0.0000 
     32 H32        -2.2322   51.0401   26.5508 H         1 UNK         0.0000 
     33 H33        -1.3105   53.2967   26.5734 H         1 UNK         0.0000 
     34 H34        -0.2903   52.3484   25.5055 H         1 UNK         0.0000 
     35 H35         1.0650   53.8393   26.9440 H         1 UNK         0.0000 
     36 H36         1.4639   52.1406   27.2422 H         1 UNK         0.0000 
     37 H37         0.5468   50.2934   27.2818 H         1 UNK         0.0000 
     38 H38        -0.7501   49.2838   27.3815 H         1 UNK         0.0000 
     39 H39        -0.2537   49.8611   25.9064 H         1 UNK         0.0000 
@<TRIPOS>BOND
     1    1    2 1    
     2    1   21 1    
     3    1   22 1    
     4    1   23 1    
     5    2    3 1    
     6    2   12 am   BACKBONE|DICT|INTERRES
     7    3    8 ar   
     8    3    4 ar   
     9    4    5 ar   
    10    4   24 1    
    11    5    6 ar   
    12    5   25 1    
    13    6    7 ar   
    14    6   26 1    
    15    7    8 ar   
    16    7   27 1    
    17    8    9 1    
    18    9   10 2    
    19    9   11 1    
    20   12   13 2    
    21   12   14 am   BACKBONE|DICT|INTERRES
    22   14   19 1    
    23   14   15 1    
    24   15   16 1    
    25   15   28 1    
    26   15   29 1    
    27   16   17 1    
    28   16   30 1    
    29   16   31 1    
    30   17   18 1    
    31   17   20 1    
    32   17   32 1    
    33   18   19 1    
    34   18   33 1    
    35   18   34 1    
    36   19   35 1    
    37   19   36 1    
    38   20   37 1    
    39   20   38 1    
    40   20   39 1    
@<TRIPOS>SUBSTRUCTURE
     1 UNK         1 GROUP             0       ****    0 ROOT    
