@<TRIPOS>MOLECULE
ZINC06131744_1979
43   45    1
SMALL
USER_CHARGES


@<TRIPOS>ATOM
      1 C1          9.5129   54.0053   17.2465 C.ar      1 UNK         0.0000 
      2 C2         10.3572   54.9234   16.6346 C.ar      1 UNK         0.0000 
      3 C3         10.3364   56.2573   17.0333 C.ar      1 UNK         0.0000 
      4 C4          9.4839   56.6951   18.0579 C.ar      1 UNK         0.0000 
      5 C5          8.6197   55.7586   18.6816 C.ar      1 UNK         0.0000 
      6 C6          8.6482   54.4249   18.2501 C.ar      1 UNK         0.0000 
      7 C7          7.6340   56.1475   19.7671 C.2       1 UNK         0.0000 
      8 O8          7.0043   57.2091   19.6816 O.2       1 UNK         0.0000 
      9 N9          7.5326   55.2980   20.8142 N.am      1 UNK         0.0000 
     10 N10         6.5112   55.3546   21.7016 N.2       1 UNK         0.0000 
     11 C11         6.7044   54.6849   22.7705 C.2       1 UNK         0.0000 
     12 C12         5.6663   54.4967   23.8041 C.ar      1 UNK         0.0000 
     13 C13         4.3513   54.2619   23.3814 C.ar      1 UNK         0.0000 
     14 C14         3.3216   54.0928   24.2947 C.ar      1 UNK         0.0000 
     15 C15         3.5994   54.0978   25.6563 C.ar      1 UNK         0.0000 
     16 C16         4.9059   54.2917   26.1368 C.ar      1 UNK         0.0000 
     17 C17         5.9368   54.5347   25.1969 C.ar      1 UNK         0.0000 
     18 N18         5.1343   54.2236   27.6095 N.pl3     1 UNK         0.0000 
     19 O19         4.1519   54.2566   28.3471 O.co2     1 UNK         0.0000 
     20 O20         6.2676   54.0969   28.0616 O.co2     1 UNK         0.0000 
     21 Cl21        1.7035   53.8606   23.7361 Cl        1 UNK         0.0000 
     22 N22         9.4898   58.0384   18.4816 N.pl3     1 UNK         0.0000 
     23 S23        10.5600   59.3259   17.9034 S.o2      1 UNK         0.0000 
     24 O24        10.3046   60.4945   18.7532 O.2       1 UNK         0.0000 
     25 O25        11.9145   58.7927   17.7249 O.2       1 UNK         0.0000 
     26 C26         9.8627   59.7211   16.2904 C.2       1 UNK         0.0000 
     27 C27         8.6005   60.2608   16.0800 C.2       1 UNK         0.0000 
     28 C28         8.3197   60.4634   14.7254 C.2       1 UNK         0.0000 
     29 C29         9.3688   60.0733   13.9016 C.2       1 UNK         0.0000 
     30 S30        10.7139   59.4500   14.8036 S.3       1 UNK         0.0000 
     31 H31         9.5209   52.9717   16.9367 H         1 UNK         0.0000 
     32 H32        11.0239   54.6063   15.8495 H         1 UNK         0.0000 
     33 H33        10.9989   56.9358   16.5254 H         1 UNK         0.0000 
     34 H34         7.9803   53.6966   18.6822 H         1 UNK         0.0000 
     35 H35         8.2195   54.5758   20.9669 H         1 UNK         0.0000 
     36 H36         7.6503   54.1982   22.9960 H         1 UNK         0.0000 
     37 H37         4.1078   54.2347   22.3261 H         1 UNK         0.0000 
     38 H38         2.7814   53.9324   26.3441 H         1 UNK         0.0000 
     39 H39         8.7035   58.3307   19.0405 H         1 UNK         0.0000 
     40 H40         7.9050   60.4968   16.8743 H         1 UNK         0.0000 
     41 H41         7.3868   60.8755   14.3690 H         1 UNK         0.0000 
     42 H42         9.4115   60.1197   12.8240 H         1 UNK         0.0000 
     43 O43         7.1042   54.8600   25.5985 O.co2     1 UNK         0.0000 
@<TRIPOS>BOND
     1    1    6 ar   
     2    1    2 ar   
     3    1   31 1    
     4    2    3 ar   
     5    2   32 1    
     6    3    4 ar   
     7    3   33 1    
     8    4    5 ar   
     9    4   22 1    
    10    5    6 ar   
    11    5    7 1    
    12    6   34 1    
    13    7    8 2    
    14    7    9 am   BACKBONE|DICT|INTERRES
    15    9   10 1    
    16    9   35 1    
    17   10   11 2    
    18   11   12 1    
    19   11   36 1    
    20   12   17 ar   
    21   12   13 ar   
    22   13   14 ar   
    23   13   37 1    
    24   14   15 ar   
    25   14   21 1    
    26   15   16 ar   
    27   15   38 1    
    28   16   17 ar   
    29   16   18 1    
    30   17   43 1    
    31   18   19 2    
    32   18   20 1    
    33   22   23 1    
    34   22   39 1    
    35   23   24 2    
    36   23   25 2    
    37   23   26 1    
    38   26   30 1    
    39   26   27 2    
    40   27   28 1    
    41   27   40 1    
    42   28   29 2    
    43   28   41 1    
    44   29   30 1    
    45   29   42 1    
@<TRIPOS>SUBSTRUCTURE
     1 UNK         1 GROUP             0       ****    0 ROOT    
