@<TRIPOS>MOLECULE
ZINC35711991_2880
63   65    1
SMALL
USER_CHARGES


@<TRIPOS>ATOM
      1 C1          3.8878   53.3194   27.6960 C.3       1 UNK         0.0000 
      2 C2          4.8665   54.4377   27.3158 C.3       1 UNK         0.0000 
      3 C3          4.5061   55.2346   26.0348 C.3       1 UNK         0.0000 
      4 N4          4.6631   54.4966   24.7530 N.am      1 UNK         0.0000 
      5 C5          3.6136   53.9669   24.0026 C.2       1 UNK         0.0000 
      6 C6          3.8292   53.3272   22.8148 C.2       1 UNK         0.0000 
      7 C7          5.2512   53.2902   22.2031 C.3       1 UNK         0.0000 
      8 H8          5.5264   52.2544   21.9924 H         1 UNK         0.0000 
      9 N9          6.2272   53.7004   23.2368 N.am      1 UNK         0.0000 
     10 C10         5.9800   54.4300   24.3482 C.2       1 UNK         0.0000 
     11 O11         6.9418   54.9963   24.8756 O.2       1 UNK         0.0000 
     12 C12         5.4415   54.0062   20.8491 C.ar      1 UNK         0.0000 
     13 C13         5.7812   55.3612   20.7799 C.ar      1 UNK         0.0000 
     14 C14         5.9465   55.9923   19.5465 C.ar      1 UNK         0.0000 
     15 C15         5.7918   55.2738   18.3615 C.ar      1 UNK         0.0000 
     16 C16         5.4795   53.9073   18.4068 C.ar      1 UNK         0.0000 
     17 C17         5.3034   53.2943   19.6498 C.ar      1 UNK         0.0000 
     18 N18         5.3338   53.0662   17.2882 N.am      1 UNK         0.0000 
     19 C19         5.5780   53.2977   15.9842 C.2       1 UNK         0.0000 
     20 O20         5.9569   54.3701   15.5154 O.2       1 UNK         0.0000 
     21 N21         5.3873   52.1612   15.2818 N.am      1 UNK         0.0000 
     22 C22         5.6927   51.8631   13.9393 C.ar      1 UNK         0.0000 
     23 C23         6.1854   52.7883   13.0048 C.ar      1 UNK         0.0000 
     24 C24         6.5002   52.3791   11.7101 C.ar      1 UNK         0.0000 
     25 C25         6.3359   51.0469   11.3355 C.ar      1 UNK         0.0000 
     26 C26         5.8440   50.1084   12.2498 C.ar      1 UNK         0.0000 
     27 C27         5.5103   50.5319   13.5442 C.ar      1 UNK         0.0000 
     28 C28         5.6897   48.6405   11.8469 C.3       1 UNK         0.0000 
     29 F29         6.5446   48.3010   10.8768 F         1 UNK         0.0000 
     30 F30         5.9043   47.8309   12.8837 F         1 UNK         0.0000 
     31 F31         4.4499   48.4390   11.4022 F         1 UNK         0.0000 
     32 C32         2.7313   52.7448   21.9901 C.2       1 UNK         0.0000 
     33 O33         1.5460   53.0729   22.0821 O.2       1 UNK         0.0000 
     34 O34         3.1579   51.7707   21.1456 O.3       1 UNK         0.0000 
     35 C35         2.2665   51.0879   20.2662 C.3       1 UNK         0.0000 
     36 C36         1.9653   51.9110   19.0044 C.3       1 UNK         0.0000 
     37 C37         2.2273   54.0382   24.6737 C.3       1 UNK         0.0000 
     38 H38         4.2474   52.7690   28.5658 H         1 UNK         0.0000 
     39 H39         3.7668   52.6041   26.8848 H         1 UNK         0.0000 
     40 H40         2.9047   53.7186   27.9461 H         1 UNK         0.0000 
     41 H41         4.9099   55.1356   28.1527 H         1 UNK         0.0000 
     42 H42         5.8744   54.0280   27.2325 H         1 UNK         0.0000 
     43 H43         3.5111   55.6682   26.1146 H         1 UNK         0.0000 
     44 H44         5.1644   56.0967   26.0169 H         1 UNK         0.0000 
     45 H45         7.2014   53.6781   22.9743 H         1 UNK         0.0000 
     46 H46         5.9094   55.9383   21.6813 H         1 UNK         0.0000 
     47 H47         6.1906   57.0432   19.5045 H         1 UNK         0.0000 
     48 H48         5.9249   55.7957   17.4272 H         1 UNK         0.0000 
     49 H49         5.0833   52.2363   19.6798 H         1 UNK         0.0000 
     50 H50         5.1050   52.1101   17.5351 H         1 UNK         0.0000 
     51 H51         5.0176   51.3801   15.8061 H         1 UNK         0.0000 
     52 H52         6.3385   53.8257   13.2548 H         1 UNK         0.0000 
     53 H53         6.8815   53.0970   10.9990 H         1 UNK         0.0000 
     54 H54         6.5948   50.7491   10.3299 H         1 UNK         0.0000 
     55 H55         5.1238   49.8122   14.2549 H         1 UNK         0.0000 
     56 H56         2.7375   50.1488   19.9737 H         1 UNK         0.0000 
     57 H57         1.3433   50.8224   20.7841 H         1 UNK         0.0000 
     58 H58         1.2676   51.3822   18.3553 H         1 UNK         0.0000 
     59 H59         1.5263   52.8790   19.2493 H         1 UNK         0.0000 
     60 H60         2.8734   52.0897   18.4299 H         1 UNK         0.0000 
     61 H61         1.6358   53.1444   24.4832 H         1 UNK         0.0000 
     62 H62         2.2387   54.0937   25.7568 H         1 UNK         0.0000 
     63 H63         1.6767   54.8962   24.2906 H         1 UNK         0.0000 
@<TRIPOS>BOND
     1    1    2 1    
     2    1   38 1    
     3    1   39 1    
     4    1   40 1    
     5    2    3 1    
     6    2   41 1    
     7    2   42 1    
     8    3    4 1    
     9    3   43 1    
    10    3   44 1    
    11    4   10 am   BACKBONE|DICT|INTERRES
    12    4    5 1    
    13    5    6 2    
    14    5   37 1    
    15    6    7 1    
    16    6   32 1    
    17    7    8 1    
    18    7    9 1    
    19    7   12 1    
    20    9   10 am   BACKBONE|DICT|INTERRES
    21    9   45 1    
    22   10   11 2    
    23   12   17 ar   
    24   12   13 ar   
    25   13   14 ar   
    26   13   46 1    
    27   14   15 ar   
    28   14   47 1    
    29   15   16 ar   
    30   15   48 1    
    31   16   17 ar   
    32   16   18 1    
    33   17   49 1    
    34   18   19 am   BACKBONE|DICT|INTERRES
    35   18   50 1    
    36   19   20 2    
    37   19   21 am   BACKBONE|DICT|INTERRES
    38   21   22 1    
    39   21   51 1    
    40   22   27 ar   
    41   22   23 ar   
    42   23   24 ar   
    43   23   52 1    
    44   24   25 ar   
    45   24   53 1    
    46   25   26 ar   
    47   25   54 1    
    48   26   27 ar   
    49   26   28 1    
    50   27   55 1    
    51   28   29 1    
    52   28   30 1    
    53   28   31 1    
    54   32   33 2    
    55   32   34 1    
    56   34   35 1    
    57   35   36 1    
    58   35   56 1    
    59   35   57 1    
    60   36   58 1    
    61   36   59 1    
    62   36   60 1    
    63   37   61 1    
    64   37   62 1    
    65   37   63 1    
@<TRIPOS>SUBSTRUCTURE
     1 UNK         1 GROUP             0       ****    0 ROOT    
