@<TRIPOS>MOLECULE
ZINC40475512_5667
50   54    1
SMALL
USER_CHARGES


@<TRIPOS>ATOM
      1 C1          2.3283   49.4716   13.5992 C.3       1 UNK         0.0000 
      2 C2          2.4434   50.9765   13.8980 C.3       1 UNK         0.0000 
      3 O3          2.2434   51.2420   15.2811 O.3       1 UNK         0.0000 
      4 C4          1.0017   51.3304   15.8263 C.2       1 UNK         0.0000 
      5 O5         -0.0396   51.3083   15.1611 O.2       1 UNK         0.0000 
      6 C6          1.0278   51.5270   17.3121 C.ar      1 UNK         0.0000 
      7 C7          2.1901   51.2967   18.0616 C.ar      1 UNK         0.0000 
      8 C8          2.1896   51.4705   19.4402 C.ar      1 UNK         0.0000 
      9 C9          1.0265   51.8788   20.1102 C.ar      1 UNK         0.0000 
     10 C10        -0.1385   52.0966   19.3564 C.ar      1 UNK         0.0000 
     11 C11        -0.1389   51.9222   17.9758 C.ar      1 UNK         0.0000 
     12 N12         1.0321   52.0636   21.5245 N.am      1 UNK         0.0000 
     13 C13        -0.0132   51.7279   22.3474 C.2       1 UNK         0.0000 
     14 O14        -1.0622   51.1576   22.0429 O.2       1 UNK         0.0000 
     15 C15         0.3082   52.2440   23.7450 C.3       1 UNK         0.0000 
     16 H16        -0.1895   53.2129   23.8176 H         1 UNK         0.0000 
     17 C17        -0.1054   51.3937   24.9855 C.3       1 UNK         0.0000 
     18 H18         0.3870   50.4250   24.8883 H         1 UNK         0.0000 
     19 C19         0.4896   52.0967   26.2125 C.2       1 UNK         0.0000 
     20 C20         1.5523   53.0193   26.2354 C.2       1 UNK         0.0000 
     21 N21         1.9335   53.4633   27.4141 N.2       1 UNK         0.0000 
     22 C22         1.2417   52.9230   28.3845 C.2       1 UNK         0.0000 
     23 S23         1.5027   53.2653   30.0817 S.3       1 UNK         0.0000 
     24 S24         0.0171   51.8096   27.8665 S.3       1 UNK         0.0000 
     25 S25         2.3763   53.6966   24.8178 S.3       1 UNK         0.0000 
     26 C26         1.7911   52.4027   23.6846 C.3       1 UNK         0.0000 
     27 H27         2.3046   51.4864   23.9837 H         1 UNK         0.0000 
     28 C28         2.0793   52.6103   22.2167 C.2       1 UNK         0.0000 
     29 O29         3.1074   53.1269   21.7759 O.2       1 UNK         0.0000 
     30 C30        -1.6137   51.1201   25.1266 C.ar      1 UNK         0.0000 
     31 C31        -2.5325   52.1713   24.9807 C.ar      1 UNK         0.0000 
     32 C32        -3.8999   51.9531   25.1434 C.ar      1 UNK         0.0000 
     33 C33        -4.3676   50.6828   25.4724 C.ar      1 UNK         0.0000 
     34 C34        -3.4671   49.6325   25.6400 C.ar      1 UNK         0.0000 
     35 C35        -2.0977   49.8410   25.4663 C.ar      1 UNK         0.0000 
     36 O36        -1.2548   48.7801   25.6817 O.3       1 UNK         0.0000 
     37 H37         2.5529   49.2640   12.5536 H         1 UNK         0.0000 
     38 H38         1.3211   49.1041   13.8053 H         1 UNK         0.0000 
     39 H39         3.0271   48.8989   14.2134 H         1 UNK         0.0000 
     40 H40         3.4475   51.3154   13.6361 H         1 UNK         0.0000 
     41 H41         1.7504   51.5512   13.2805 H         1 UNK         0.0000 
     42 H42         3.1044   50.9579   17.5920 H         1 UNK         0.0000 
     43 H43         3.1064   51.2730   19.9760 H         1 UNK         0.0000 
     44 H44        -1.0533   52.4147   19.8338 H         1 UNK         0.0000 
     45 H45        -1.0535   52.1016   17.4275 H         1 UNK         0.0000 
     46 H46        -2.1916   53.1691   24.7525 H         1 UNK         0.0000 
     47 H47        -4.5959   52.7700   25.0246 H         1 UNK         0.0000 
     48 H48        -5.4251   50.5135   25.6071 H         1 UNK         0.0000 
     49 H49        -3.8330   48.6536   25.9145 H         1 UNK         0.0000 
     50 H50        -1.2956   48.4969   26.6162 H         1 UNK         0.0000 
@<TRIPOS>BOND
     1    1    2 1    
     2    1   37 1    
     3    1   38 1    
     4    1   39 1    
     5    2    3 1    
     6    2   40 1    
     7    2   41 1    
     8    3    4 1    
     9    4    5 2    
    10    4    6 1    
    11    6   11 ar   
    12    6    7 ar   
    13    7    8 ar   
    14    7   42 1    
    15    8    9 ar   
    16    8   43 1    
    17    9   10 ar   
    18    9   12 1    
    19   10   11 ar   
    20   10   44 1    
    21   11   45 1    
    22   12   28 am   BACKBONE|DICT|INTERRES
    23   12   13 am   BACKBONE|DICT|INTERRES
    24   13   14 2    
    25   13   15 1    
    26   15   16 1    
    27   15   26 1    
    28   15   17 1    
    29   17   18 1    
    30   17   19 1    
    31   17   30 1    
    32   19   24 1    
    33   19   20 2    
    34   20   21 1    
    35   20   25 1    
    36   21   22 2    
    37   22   23 1    
    38   22   24 1    
    39   25   26 1    
    40   26   27 1    
    41   26   28 1    
    42   28   29 2    
    43   30   35 ar   
    44   30   31 ar   
    45   31   32 ar   
    46   31   46 1    
    47   32   33 ar   
    48   32   47 1    
    49   33   34 ar   
    50   33   48 1    
    51   34   35 ar   
    52   34   49 1    
    53   35   36 1    
    54   36   50 1    
@<TRIPOS>SUBSTRUCTURE
     1 UNK         1 GROUP             0       ****    0 ROOT    
