ZINC38680401_6008
                    3D
 Schrodinger Suite 2024-2.
 54 57  0  0  1  0            999 V2000
    1.3603   54.8688   29.5038 C   0  0  0  0  0  0
    2.2461   53.6207   29.6816 C   0  0  0  0  0  0
    1.6597   52.3102   29.1147 C   0  0  0  0  0  0
    3.6202   53.8597   29.3501 O   0  0  0  0  0  0
    4.0815   53.9827   28.0503 C   0  0  0  0  0  0
    5.4665   54.0374   27.8973 C   0  0  0  0  0  0
    6.0437   54.0958   26.6311 C   0  0  0  0  0  0
    5.2389   54.1071   25.4842 C   0  0  0  0  0  0
    3.8445   54.1003   25.6405 C   0  0  0  0  0  0
    3.2732   54.0423   26.9083 C   0  0  0  0  0  0
    5.8816   54.0983   24.1263 C   0  0  0  0  0  0
    7.1033   54.0929   23.9565 O   0  0  0  0  0  0
    4.9666   54.0641   23.1095 O   0  0  0  0  0  0
    5.3298   54.2040   21.7857 C   0  0  0  0  0  0
    4.9075   53.2454   20.8642 C   0  0  0  0  0  0
    5.1741   53.4069   19.5043 C   0  0  0  0  0  0
    5.8386   54.5454   19.0215 C   0  0  0  0  0  0
    6.2333   55.5159   19.9620 C   0  0  0  0  0  0
    6.0124   55.3330   21.3224 C   0  0  0  0  0  0
    6.7793   56.7315   19.5890 O   0  0  0  0  0  0
    6.6095   57.1376   18.3054 C   0  0  0  0  0  0
    6.2661   56.3171   17.2900 C   0  0  0  0  0  0
    6.1072   54.8075   17.5259 C   0  0  2  0  0  0
    7.0992   54.3906   17.3423 H   0  0  0  0  0  0
    5.1204   54.0982   16.5782 C   0  0  0  0  0  0
    5.5787   53.0681   15.7396 C   0  0  0  0  0  0
    4.6988   52.3994   14.8902 C   0  0  0  0  0  0
    3.3504   52.7448   14.8651 C   0  0  0  0  0  0
    2.8814   53.7640   15.6901 C   0  0  0  0  0  0
    3.7535   54.4420   16.5439 C   0  0  0  0  0  0
    3.0931   55.6946   17.5429 Cl  0  0  0  0  0  0
    6.8810   52.7006   15.7440 F   0  0  0  0  0  0
    6.1007   56.8391   15.9706 C   0  0  0  0  0  0
    5.9898   57.2551   14.8961 N   0  0  0  0  0  0
    6.7875   58.4957   18.2540 N   0  0  0  0  0  0
    0.3353   54.6667   29.8143 H   0  0  0  0  0  0
    1.7277   55.6898   30.1215 H   0  0  0  0  0  0
    1.3244   55.2316   28.4787 H   0  0  0  0  0  0
    2.2752   53.4528   30.7589 H   0  0  0  0  0  0
    0.6613   52.1256   29.5160 H   0  0  0  0  0  0
    1.5725   52.2947   28.0298 H   0  0  0  0  0  0
    2.2789   51.4581   29.3981 H   0  0  0  0  0  0
    6.1024   54.0117   28.7707 H   0  0  0  0  0  0
    7.1213   54.1024   26.5502 H   0  0  0  0  0  0
    3.1834   54.1170   24.7845 H   0  0  0  0  0  0
    2.1990   54.0256   26.9658 H   0  0  0  0  0  0
    4.3647   52.3759   21.2007 H   0  0  0  0  0  0
    4.8488   52.6350   18.8197 H   0  0  0  0  0  0
    6.3250   56.0984   22.0177 H   0  0  0  0  0  0
    5.0634   51.6008   14.2621 H   0  0  0  0  0  0
    2.6697   52.2184   14.2124 H   0  0  0  0  0  0
    1.8343   54.0267   15.6702 H   0  0  0  0  0  0
    6.6969   58.9889   17.3744 H   0  0  0  0  0  0
    6.6410   59.0537   19.0813 H   0  0  0  0  0  0
  1  2  1  0  0  0
  1 36  1  0  0  0
  1 37  1  0  0  0
  1 38  1  0  0  0
  2  3  1  0  0  0
  2  4  1  0  0  0
  2 39  1  0  0  0
  3 40  1  0  0  0
  3 41  1  0  0  0
  3 42  1  0  0  0
  4  5  1  0  0  0
  5 10  2  0  0  0
  5  6  1  0  0  0
  6  7  2  0  0  0
  6 43  1  0  0  0
  7  8  1  0  0  0
  7 44  1  0  0  0
  8  9  2  0  0  0
  8 11  1  0  0  0
  9 10  1  0  0  0
  9 45  1  0  0  0
 10 46  1  0  0  0
 11 12  2  0  0  0
 11 13  1  0  0  0
 13 14  1  0  0  0
 14 19  2  0  0  0
 14 15  1  0  0  0
 15 16  2  0  0  0
 15 47  1  0  0  0
 16 17  1  0  0  0
 16 48  1  0  0  0
 17 23  1  0  0  0
 17 18  2  0  0  0
 18 19  1  0  0  0
 18 20  1  0  0  0
 19 49  1  0  0  0
 20 21  1  0  0  0
 21 22  2  0  0  0
 21 35  1  0  0  0
 22 23  1  0  0  0
 22 33  1  0  0  0
 23 24  1  0  0  0
 23 25  1  0  0  0
 25 30  2  0  0  0
 25 26  1  0  0  0
 26 27  2  0  0  0
 26 32  1  0  0  0
 27 28  1  0  0  0
 27 50  1  0  0  0
 28 29  2  0  0  0
 28 51  1  0  0  0
 29 30  1  0  0  0
 29 52  1  0  0  0
 30 31  1  0  0  0
 33 34  3  0  0  0
 35 53  1  0  0  0
 35 54  1  0  0  0
M  END
> <i_i_glide_confnum>
7

> <i_i_glide_lignum>
6009

> <i_i_glide_posenum>
208

> <i_i_glide_rotatable_bonds>
7

> <i_m_Source_File_Index>
3886

> <b_m_subgroup_collapsed>
0

> <r_i_docking_score>
-4.24817

> <r_i_glide_ecoul>
0.0492952

> <r_i_glide_eff_state_penalty>
0

> <r_i_glide_einternal>
2.4009

> <r_i_glide_emodel>
-52.1523

> <r_i_glide_energy>
-44.1955

> <r_i_glide_erotb>
0.441865

> <r_i_glide_esite>
-0.0928229

> <r_i_glide_evdw>
-44.2448

> <r_i_glide_gscore>
-4.24817

> <r_i_glide_hbond>
-0.0148392

> <r_i_glide_ligand_efficiency>
-0.124946

> <r_i_glide_ligand_efficiency_ln>
-0.93854

> <r_i_glide_ligand_efficiency_sa>
-0.404777

> <r_i_glide_lipo>
-2.64595

> <r_i_glide_metal>
0

> <r_i_glide_rewards>
0.268423

> <s_i_glide_gridfile>
wee1_glide-grid

> <s_m_Source_File>
wee1_decoys_glide_SP.sdf

> <s_m_Source_Path>
/Users/zhangxujun/Desktop

> <s_m_entry_id>
4161

> <s_m_entry_name>
wee1_decoys_glide_SP.3886

> <s_m_subgroup_title>
wee1_decoys_glide_SP

> <s_m_subgroupid>
wee1_decoys_glide_SP


$$$$
