ZINC59290555_2736
                    3D
 Schrodinger Suite 2024-2.
 49 52  0  0  1  0            999 V2000
    1.6530   49.8948   17.8851 C   0  0  0  0  0  0
    1.7602   50.2688   19.3485 C   0  0  0  0  0  0
    1.1825   49.4716   20.3412 C   0  0  0  0  0  0
    1.3698   49.8843   21.6628 C   0  0  0  0  0  0
    2.0976   50.9836   21.9864 N   0  0  0  0  0  0
    2.5866   51.7135   20.9464 C   0  0  0  0  0  0
    2.4489   51.4050   19.6339 N   0  0  0  0  0  0
    3.3034   52.8890   21.2044 N   0  0  0  0  0  0
    3.6200   53.3897   22.4853 N   0  0  0  0  0  0
    2.6622   53.8115   23.3384 C   0  0  0  0  0  0
    1.5062   54.0969   23.0141 O   0  0  0  0  0  0
    3.0764   53.8457   24.7209 C   0  0  0  0  0  0
    4.3811   54.0967   25.2153 C   0  0  0  0  0  0
    4.2340   54.1248   26.6002 C   0  0  0  0  0  0
    2.9073   53.8663   26.8460 N   0  0  0  0  0  0
    2.2200   53.6966   25.7120 N   0  0  0  0  0  0
    2.2082   53.9227   28.0644 C   0  0  0  0  0  0
    1.4118   52.8542   28.4982 C   0  0  0  0  0  0
    0.6712   52.9753   29.6774 C   0  0  0  0  0  0
    0.7046   54.1670   30.4066 C   0  0  0  0  0  0
    1.4868   55.2337   29.9606 C   0  0  0  0  0  0
    2.2513   55.1042   28.8085 C   0  0  0  0  0  0
    1.5039   56.8935   30.8820 Br  0  0  0  0  0  0
    5.3394   54.3374   27.6299 C   0  0  0  0  0  0
    6.7089   54.3177   26.9085 C   0  0  0  0  0  0
    6.6854   55.0485   25.5485 C   0  0  0  0  0  0
    5.7203   54.3856   24.5412 C   0  0  0  0  0  0
    0.7532   49.1330   22.8231 C   0  0  0  0  0  0
    2.2868   49.0310   17.6828 H   0  0  0  0  0  0
    0.6264   49.6405   17.6216 H   0  0  0  0  0  0
    1.9841   50.7055   17.2330 H   0  0  0  0  0  0
    0.6197   48.5839   20.0973 H   0  0  0  0  0  0
    3.5594   53.5124   20.4531 H   0  0  0  0  0  0
    4.4916   53.0255   22.8411 H   0  0  0  0  0  0
    1.3575   51.9390   27.9235 H   0  0  0  0  0  0
    0.0560   52.1530   30.0162 H   0  0  0  0  0  0
    0.1173   54.2655   31.3079 H   0  0  0  0  0  0
    2.8386   55.9472   28.4804 H   0  0  0  0  0  0
    5.2126   55.2970   28.1252 H   0  0  0  0  0  0
    5.3160   53.5763   28.4113 H   0  0  0  0  0  0
    7.4683   54.7525   27.5600 H   0  0  0  0  0  0
    7.0157   53.2827   26.7474 H   0  0  0  0  0  0
    6.4064   56.0930   25.6971 H   0  0  0  0  0  0
    7.6799   55.0585   25.1066 H   0  0  0  0  0  0
    6.1551   53.4547   24.1752 H   0  0  0  0  0  0
    5.5997   55.0242   23.6670 H   0  0  0  0  0  0
    1.5042   48.4968   23.2815 H   0  0  0  0  0  0
    0.3776   49.8206   23.5820 H   0  0  0  0  0  0
   -0.0773   48.5054   22.5006 H   0  0  0  0  0  0
  1  2  1  0  0  0
  1 29  1  0  0  0
  1 30  1  0  0  0
  1 31  1  0  0  0
  2  7  2  0  0  0
  2  3  1  0  0  0
  3  4  2  0  0  0
  3 32  1  0  0  0
  4  5  1  0  0  0
  4 28  1  0  0  0
  5  6  2  0  0  0
  6  7  1  0  0  0
  6  8  1  0  0  0
  8  9  1  0  0  0
  8 33  1  0  0  0
  9 10  1  0  0  0
  9 34  1  0  0  0
 10 11  2  0  0  0
 10 12  1  0  0  0
 12 16  2  0  0  0
 12 13  1  0  0  0
 13 27  1  0  0  0
 13 14  2  0  0  0
 14 15  1  0  0  0
 14 24  1  0  0  0
 15 16  1  0  0  0
 15 17  1  0  0  0
 17 22  2  0  0  0
 17 18  1  0  0  0
 18 19  2  0  0  0
 18 35  1  0  0  0
 19 20  1  0  0  0
 19 36  1  0  0  0
 20 21  2  0  0  0
 20 37  1  0  0  0
 21 22  1  0  0  0
 21 23  1  0  0  0
 22 38  1  0  0  0
 24 25  1  0  0  0
 24 39  1  0  0  0
 24 40  1  0  0  0
 25 26  1  0  0  0
 25 41  1  0  0  0
 25 42  1  0  0  0
 26 27  1  0  0  0
 26 43  1  0  0  0
 26 44  1  0  0  0
 27 45  1  0  0  0
 27 46  1  0  0  0
 28 47  1  0  0  0
 28 48  1  0  0  0
 28 49  1  0  0  0
M  END
> <i_i_glide_confnum>
55

> <i_i_glide_lignum>
2737

> <i_i_glide_posenum>
160

> <i_i_glide_rotatable_bonds>
5

> <i_m_Source_File_Index>
5919

> <b_m_subgroup_collapsed>
0

> <r_i_docking_score>
-6.72007

> <r_i_glide_ecoul>
-0.147195

> <r_i_glide_eff_state_penalty>
0

> <r_i_glide_einternal>
6.03134

> <r_i_glide_emodel>
-66.8578

> <r_i_glide_energy>
-48.1457

> <r_i_glide_erotb>
0.512768

> <r_i_glide_esite>
0

> <r_i_glide_evdw>
-47.9985

> <r_i_glide_gscore>
-6.72007

> <r_i_glide_hbond>
0

> <r_i_glide_ligand_efficiency>
-0.240002

> <r_i_glide_ligand_efficiency_ln>
-1.55119

> <r_i_glide_ligand_efficiency_sa>
-0.728789

> <r_i_glide_lipo>
-3.72539

> <r_i_glide_metal>
0

> <r_i_glide_rewards>
-1.08544

> <s_i_glide_gridfile>
wee1_glide-grid

> <s_m_Source_File>
wee1_decoys_glide_SP.sdf

> <s_m_Source_Path>
/Users/zhangxujun/Desktop

> <s_m_entry_id>
6194

> <s_m_entry_name>
wee1_decoys_glide_SP.5919

> <s_m_subgroup_title>
wee1_decoys_glide_SP

> <s_m_subgroupid>
wee1_decoys_glide_SP


$$$$
