@<TRIPOS>MOLECULE
ZINC20371071_2100
59   63    1
SMALL
USER_CHARGES


@<TRIPOS>ATOM
      1 C1          1.4717   52.4733   31.6035 C.3       1 UNK         0.0000 
      2 C2          1.6939   52.7356   30.1242 C.ar      1 UNK         0.0000 
      3 C3          0.6392   52.5188   29.2330 C.ar      1 UNK         0.0000 
      4 C4          0.7841   52.7456   27.8644 C.ar      1 UNK         0.0000 
      5 C5          2.0220   53.2007   27.3909 C.ar      1 UNK         0.0000 
      6 C6          3.0950   53.4151   28.2932 C.ar      1 UNK         0.0000 
      7 C7          2.9438   53.1729   29.6670 C.ar      1 UNK         0.0000 
      8 S8          4.4939   53.9807   27.3832 S.3       1 UNK         0.0000 
      9 C9          3.5387   53.8409   25.9103 C.2       1 UNK         0.0000 
     10 N10         2.3014   53.4547   26.0870 N.2       1 UNK         0.0000 
     11 C11         4.1262   54.0968   24.5462 C.ar      1 UNK         0.0000 
     12 C12         5.4919   54.3539   24.3605 C.ar      1 UNK         0.0000 
     13 C13         6.0152   54.5374   23.0809 C.ar      1 UNK         0.0000 
     14 C14         5.1662   54.4965   21.9639 C.ar      1 UNK         0.0000 
     15 C15         3.8133   54.2100   22.1411 C.ar      1 UNK         0.0000 
     16 C16         3.2980   54.0237   23.4185 C.ar      1 UNK         0.0000 
     17 N17         5.5629   54.7436   20.6371 N.am      1 UNK         0.0000 
     18 C18         6.6994   55.2967   20.1616 C.2       1 UNK         0.0000 
     19 O19         7.6400   55.6723   20.8628 O.2       1 UNK         0.0000 
     20 C20         6.7381   55.4415   18.6172 C.3       1 UNK         0.0000 
     21 H21         5.7540   55.7922   18.2994 H         1 UNK         0.0000 
     22 C22         7.8114   56.4021   18.1122 C.3       1 UNK         0.0000 
     23 C23         8.9797   55.5545   17.6057 C.2       1 UNK         0.0000 
     24 O24        10.0660   56.0355   17.2865 O.2       1 UNK         0.0000 
     25 N25         8.5633   54.2530   17.5537 N.am      1 UNK         0.0000 
     26 C26         7.1441   54.1456   17.9315 C.3       1 UNK         0.0000 
     27 C27         9.2920   53.1718   16.9737 C.ar      1 UNK         0.0000 
     28 C28        10.6957   53.1664   16.8828 C.ar      1 UNK         0.0000 
     29 C29        11.3726   52.0873   16.3175 C.ar      1 UNK         0.0000 
     30 C30        10.6565   50.9872   15.8304 C.ar      1 UNK         0.0000 
     31 C31         9.2674   50.9845   15.9114 C.ar      1 UNK         0.0000 
     32 C32         8.5921   52.0561   16.4890 C.ar      1 UNK         0.0000 
     33 N33        11.2492   49.8739   15.2087 N.am      1 UNK         0.0000 
     34 C34        12.4978   49.3921   15.3669 C.2       1 UNK         0.0000 
     35 O35        13.3349   49.8382   16.1503 O.2       1 UNK         0.0000 
     36 C36        12.8520   48.1809   14.5122 C.3       1 UNK         0.0000 
     37 H37         0.7250   51.6965   31.7614 H         1 UNK         0.0000 
     38 H38         2.3876   52.1317   32.0856 H         1 UNK         0.0000 
     39 H39         1.1045   53.3676   32.1054 H         1 UNK         0.0000 
     40 H40        -0.3120   52.1650   29.6078 H         1 UNK         0.0000 
     41 H41        -0.0373   52.5670   27.1871 H         1 UNK         0.0000 
     42 H42         3.7718   53.3199   30.3442 H         1 UNK         0.0000 
     43 H43         6.1653   54.3947   25.2032 H         1 UNK         0.0000 
     44 H44         7.0732   54.7276   22.9849 H         1 UNK         0.0000 
     45 H45         3.1413   54.1585   21.2953 H         1 UNK         0.0000 
     46 H46         2.2432   53.8154   23.5221 H         1 UNK         0.0000 
     47 H47         4.8596   54.5202   19.9489 H         1 UNK         0.0000 
     48 H48         8.2171   57.0556   18.8857 H         1 UNK         0.0000 
     49 H49         7.4324   57.0650   17.3338 H         1 UNK         0.0000 
     50 H50         6.5648   54.0384   17.0123 H         1 UNK         0.0000 
     51 H51         6.8972   53.2434   18.4952 H         1 UNK         0.0000 
     52 H52        11.2893   53.9795   17.2688 H         1 UNK         0.0000 
     53 H53        12.4492   52.1266   16.2568 H         1 UNK         0.0000 
     54 H54         8.7048   50.1445   15.5341 H         1 UNK         0.0000 
     55 H55         7.5151   52.0002   16.5401 H         1 UNK         0.0000 
     56 H56        10.6420   49.3471   14.6007 H         1 UNK         0.0000 
     57 H57        11.9659   47.7126   14.0832 H         1 UNK         0.0000 
     58 H58        13.3738   47.4335   15.1094 H         1 UNK         0.0000 
     59 H59        13.5053   48.4825   13.6922 H         1 UNK         0.0000 
@<TRIPOS>BOND
     1    1    2 1    
     2    1   37 1    
     3    1   38 1    
     4    1   39 1    
     5    2    7 ar   
     6    2    3 ar   
     7    3    4 ar   
     8    3   40 1    
     9    4    5 ar   
    10    4   41 1    
    11    5   10 1    
    12    5    6 ar   
    13    6    7 ar   
    14    6    8 1    
    15    7   42 1    
    16    8    9 1    
    17    9   10 2    
    18    9   11 1    
    19   11   16 ar   
    20   11   12 ar   
    21   12   13 ar   
    22   12   43 1    
    23   13   14 ar   
    24   13   44 1    
    25   14   15 ar   
    26   14   17 1    
    27   15   16 ar   
    28   15   45 1    
    29   16   46 1    
    30   17   18 am   BACKBONE|DICT|INTERRES
    31   17   47 1    
    32   18   19 2    
    33   18   20 1    
    34   20   21 1    
    35   20   26 1    
    36   20   22 1    
    37   22   23 1    
    38   22   48 1    
    39   22   49 1    
    40   23   24 2    
    41   23   25 am   BACKBONE|DICT|INTERRES
    42   25   26 1    
    43   25   27 1    
    44   26   50 1    
    45   26   51 1    
    46   27   32 ar   
    47   27   28 ar   
    48   28   29 ar   
    49   28   52 1    
    50   29   30 ar   
    51   29   53 1    
    52   30   31 ar   
    53   30   33 1    
    54   31   32 ar   
    55   31   54 1    
    56   32   55 1    
    57   33   34 am   BACKBONE|DICT|INTERRES
    58   33   56 1    
    59   34   35 2    
    60   34   36 1    
    61   36   57 1    
    62   36   58 1    
    63   36   59 1    
@<TRIPOS>SUBSTRUCTURE
     1 UNK         1 GROUP             0       ****    0 ROOT    
