@<TRIPOS>MOLECULE
ZINC39934663_136
42   45    1
SMALL
USER_CHARGES


@<TRIPOS>ATOM
      1 C1          5.6475   54.4976   23.4683 C.2       1 UNK         0.0000 
      2 C2          6.3851   54.9592   24.6342 C.2       1 UNK         0.0000 
      3 C3          5.8734   54.8646   25.8901 C.2       1 UNK         0.0000 
      4 C4          4.6064   54.3016   26.0992 C.2       1 UNK         0.0000 
      5 N5          3.9611   54.1079   27.2167 N.pl3     1 UNK         0.0000 
      6 C6          2.6738   53.4611   26.9356 C.3       1 UNK         0.0000 
      7 C7          2.6646   53.3241   25.4207 C.2       1 UNK         0.0000 
      8 C8          3.8474   53.8461   25.0146 C.2       1 UNK         0.0000 
      9 C9          4.4220   53.9713   23.6612 C.2       1 UNK         0.0000 
     10 C10         1.6491   52.7573   24.5271 C.2       1 UNK         0.0000 
     11 C11         0.4767   52.1039   24.7363 C.2       1 UNK         0.0000 
     12 C12        -0.1473   51.7549   26.0051 C.2       1 UNK         0.0000 
     13 O13         0.2594   52.0522   27.1311 O.2       1 UNK         0.0000 
     14 N14        -1.2736   51.0269   25.7656 N.am      1 UNK         0.0000 
     15 C15        -1.6385   50.7310   24.4813 C.2       1 UNK         0.0000 
     16 S16        -2.8917   49.8099   23.8720 S.2       1 UNK         0.0000 
     17 S17        -0.5260   51.5164   23.4058 S.3       1 UNK         0.0000 
     18 N18        -1.9646   50.4967   26.8815 N.am      1 UNK         0.0000 
     19 C19        -3.0535   51.1105   27.3877 C.2       1 UNK         0.0000 
     20 O20        -3.5921   52.0972   26.8820 O.2       1 UNK         0.0000 
     21 N21        -3.4481   50.4969   28.5208 N.am      1 UNK         0.0000 
     22 C22        -4.5485   50.7795   29.3484 C.ar      1 UNK         0.0000 
     23 C23        -4.4969   50.2652   30.6478 C.ar      1 UNK         0.0000 
     24 C24        -5.5373   50.5016   31.5467 C.ar      1 UNK         0.0000 
     25 C25        -6.6417   51.2548   31.1510 C.ar      1 UNK         0.0000 
     26 C26        -6.7091   51.7653   29.8548 C.ar      1 UNK         0.0000 
     27 C27        -5.6748   51.5192   28.9504 C.ar      1 UNK         0.0000 
     28 Cl28       -8.0642   52.7195   29.3730 Cl        1 UNK         0.0000 
     29 H29         6.0692   54.5820   22.4762 H         1 UNK         0.0000 
     30 H30         7.3660   55.3907   24.4834 H         1 UNK         0.0000 
     31 H31         6.4633   55.2215   26.7228 H         1 UNK         0.0000 
     32 H32         2.6714   52.5023   27.4583 H         1 UNK         0.0000 
     33 H33         1.8790   54.0994   27.3240 H         1 UNK         0.0000 
     34 H34         3.8863   53.6417   22.7826 H         1 UNK         0.0000 
     35 H35         1.8768   52.8768   23.4775 H         1 UNK         0.0000 
     36 H36        -1.5804   49.6246   27.2425 H         1 UNK         0.0000 
     37 H37        -2.8465   49.7507   28.8551 H         1 UNK         0.0000 
     38 H38        -3.6402   49.6967   30.9796 H         1 UNK         0.0000 
     39 H39        -5.4739   50.1148   32.5536 H         1 UNK         0.0000 
     40 H40        -7.4434   51.4427   31.8507 H         1 UNK         0.0000 
     41 H41        -5.7614   51.9134   27.9497 H         1 UNK         0.0000 
     42 H42         4.2959   54.3470   28.1464 H         1 UNK         0.0000 
@<TRIPOS>BOND
     1    1    9 2    
     2    1    2 1    
     3    1   29 1    
     4    2    3 2    
     5    2   30 1    
     6    3    4 1    
     7    3   31 1    
     8    4    8 1    
     9    4    5 2    
    10    5    6 1    
    11    5   42 1    
    12    6    7 1    
    13    6   32 1    
    14    6   33 1    
    15    7    8 2    
    16    7   10 1    
    17    8    9 1    
    18    9   34 1    
    19   10   11 2    
    20   10   35 1    
    21   11   17 1    
    22   11   12 1    
    23   12   13 2    
    24   12   14 am   BACKBONE|DICT|INTERRES
    25   14   15 am   BACKBONE|DICT|INTERRES
    26   14   18 1    
    27   15   16 2    
    28   15   17 1    
    29   18   19 am   BACKBONE|DICT|INTERRES
    30   18   36 1    
    31   19   20 2    
    32   19   21 am   BACKBONE|DICT|INTERRES
    33   21   22 1    
    34   21   37 1    
    35   22   27 ar   
    36   22   23 ar   
    37   23   24 ar   
    38   23   38 1    
    39   24   25 ar   
    40   24   39 1    
    41   25   26 ar   
    42   25   40 1    
    43   26   27 ar   
    44   26   28 1    
    45   27   41 1    
@<TRIPOS>SUBSTRUCTURE
     1 UNK         1 GROUP             0       ****    0 ROOT    
