@<TRIPOS>MOLECULE
ZINC23453946_1077
69   72    1
SMALL
USER_CHARGES


@<TRIPOS>ATOM
      1 C1          4.6819   57.3594   17.0095 C.3       1 UNK         0.0000 
      2 O2          6.0308   57.4547   17.4538 O.3       1 UNK         0.0000 
      3 C3          6.4464   56.7111   18.5426 C.ar      1 UNK         0.0000 
      4 C4          7.7948   56.8069   18.8800 C.ar      1 UNK         0.0000 
      5 C5          8.3103   56.0966   19.9596 C.ar      1 UNK         0.0000 
      6 C6          7.4722   55.2973   20.7273 C.ar      1 UNK         0.0000 
      7 C7          6.1166   55.1481   20.4063 C.ar      1 UNK         0.0000 
      8 C8          5.6171   55.8712   19.3060 C.ar      1 UNK         0.0000 
      9 C9          5.2629   54.1141   21.1735 C.3       1 UNK         0.0000 
     10 H10         5.8105   53.1728   21.1567 H         1 UNK         0.0000 
     11 C11         3.8712   53.8419   20.5648 C.3       1 UNK         0.0000 
     12 N12         3.2586   52.5367   21.1298 N.4       1 UNK         0.0000 
     13 C13         1.7238   52.6603   21.3003 C.3       1 UNK         0.0000 
     14 C14         1.1879   51.3455   21.8959 C.3       1 UNK         0.0000 
     15 N15         1.5603   50.1922   21.0466 N.pl3     1 UNK         0.0000 
     16 C16         3.0077   50.0374   20.7808 C.3       1 UNK         0.0000 
     17 C17         3.6735   51.3245   20.2548 C.3       1 UNK         0.0000 
     18 S18         0.3783   49.5561   19.8816 S.o2      1 UNK         0.0000 
     19 O19         0.9772   48.4011   19.2010 O.2       1 UNK         0.0000 
     20 O20        -0.9031   49.4320   20.5865 O.2       1 UNK         0.0000 
     21 C21         0.1793   50.8574   18.6629 C.ar      1 UNK         0.0000 
     22 C22        -0.8565   51.7849   18.8028 C.ar      1 UNK         0.0000 
     23 C23        -1.0022   52.8134   17.8748 C.ar      1 UNK         0.0000 
     24 C24        -0.1088   52.9211   16.8103 C.ar      1 UNK         0.0000 
     25 C25         0.9306   52.0035   16.6499 C.ar      1 UNK         0.0000 
     26 C26         1.0709   50.9629   17.5884 C.ar      1 UNK         0.0000 
     27 O27         1.7547   52.1970   15.5603 O.3       1 UNK         0.0000 
     28 C28         2.8311   51.2962   15.3407 C.3       1 UNK         0.0000 
     29 O29         4.9878   54.4960   22.5275 O.3       1 UNK         0.0000 
     30 C30         6.0544   54.4891   23.4736 C.3       1 UNK         0.0000 
     31 C31         5.5315   54.3955   24.9070 C.ar      1 UNK         0.0000 
     32 C32         6.4548   54.4090   25.9526 C.ar      1 UNK         0.0000 
     33 C33         6.0371   54.2750   27.2737 C.ar      1 UNK         0.0000 
     34 C34         4.6797   54.1161   27.5555 C.ar      1 UNK         0.0000 
     35 C35         3.7436   54.1190   26.5180 C.ar      1 UNK         0.0000 
     36 C36         4.1680   54.2640   25.1970 C.ar      1 UNK         0.0000 
     37 C37         4.2424   53.9431   28.9349 C.1       1 UNK         0.0000 
     38 N38         3.8947   53.8035   30.0332 N.1       1 UNK         0.0000 
     39 H39         4.5510   57.9997   16.1351 H         1 UNK         0.0000 
     40 H40         4.4270   56.3402   16.7154 H         1 UNK         0.0000 
     41 H41         3.9754   57.6953   17.7674 H         1 UNK         0.0000 
     42 H42         8.4499   57.4355   18.2912 H         1 UNK         0.0000 
     43 H43         9.3594   56.1739   20.2074 H         1 UNK         0.0000 
     44 H44         7.9110   54.7583   21.5545 H         1 UNK         0.0000 
     45 H45         4.5803   55.7864   19.0299 H         1 UNK         0.0000 
     46 H46         3.2112   54.6439   20.8815 H         1 UNK         0.0000 
     47 H47         3.8477   53.7537   19.4781 H         1 UNK         0.0000 
     48 H48         1.5508   53.4846   21.9945 H         1 UNK         0.0000 
     49 H49         1.2899   52.8960   20.3267 H         1 UNK         0.0000 
     50 H50         1.5833   51.1743   22.9002 H         1 UNK         0.0000 
     51 H51         0.1014   51.3700   21.9837 H         1 UNK         0.0000 
     52 H52         3.1044   49.2647   20.0190 H         1 UNK         0.0000 
     53 H53         3.4965   49.6736   21.6817 H         1 UNK         0.0000 
     54 H54         3.4302   51.5194   19.2074 H         1 UNK         0.0000 
     55 H55         4.7575   51.2492   20.3431 H         1 UNK         0.0000 
     56 H56        -1.5504   51.7081   19.6277 H         1 UNK         0.0000 
     57 H57        -1.8030   53.5301   17.9778 H         1 UNK         0.0000 
     58 H58        -0.2257   53.7210   16.0930 H         1 UNK         0.0000 
     59 H59         1.8636   50.2353   17.4915 H         1 UNK         0.0000 
     60 H60         3.3896   51.5990   14.4557 H         1 UNK         0.0000 
     61 H61         3.5186   51.3041   16.1852 H         1 UNK         0.0000 
     62 H62         2.4758   50.2770   15.1804 H         1 UNK         0.0000 
     63 H63         6.6374   55.4056   23.3703 H         1 UNK         0.0000 
     64 H64         6.7181   53.6388   23.2988 H         1 UNK         0.0000 
     65 H65         7.5051   54.5042   25.7342 H         1 UNK         0.0000 
     66 H66         6.7735   54.2828   28.0661 H         1 UNK         0.0000 
     67 H67         2.6887   54.0033   26.7214 H         1 UNK         0.0000 
     68 H68         3.4331   54.2583   24.4059 H         1 UNK         0.0000 
     69 H69         3.6292   52.3960   22.0603 H         1 UNK         0.0000 
@<TRIPOS>BOND
     1    1    2 1    
     2    1   39 1    
     3    1   40 1    
     4    1   41 1    
     5    2    3 1    
     6    3    8 ar   
     7    3    4 ar   
     8    4    5 ar   
     9    4   42 1    
    10    5    6 ar   
    11    5   43 1    
    12    6    7 ar   
    13    6   44 1    
    14    7    8 ar   
    15    7    9 1    
    16    8   45 1    
    17    9   10 1    
    18    9   11 1    
    19    9   29 1    
    20   11   12 1    
    21   11   46 1    
    22   11   47 1    
    23   12   17 1    
    24   12   13 1    
    25   12   69 1    
    26   13   14 1    
    27   13   48 1    
    28   13   49 1    
    29   14   15 1    
    30   14   50 1    
    31   14   51 1    
    32   15   16 1    
    33   15   18 1    
    34   16   17 1    
    35   16   52 1    
    36   16   53 1    
    37   17   54 1    
    38   17   55 1    
    39   18   19 2    
    40   18   20 2    
    41   18   21 1    
    42   21   26 ar   
    43   21   22 ar   
    44   22   23 ar   
    45   22   56 1    
    46   23   24 ar   
    47   23   57 1    
    48   24   25 ar   
    49   24   58 1    
    50   25   26 ar   
    51   25   27 1    
    52   26   59 1    
    53   27   28 1    
    54   28   60 1    
    55   28   61 1    
    56   28   62 1    
    57   29   30 1    
    58   30   31 1    
    59   30   63 1    
    60   30   64 1    
    61   31   36 ar   
    62   31   32 ar   
    63   32   33 ar   
    64   32   65 1    
    65   33   34 ar   
    66   33   66 1    
    67   34   35 ar   
    68   34   37 1    
    69   35   36 ar   
    70   35   67 1    
    71   36   68 1    
    72   37   38 3    
@<TRIPOS>SUBSTRUCTURE
     1 UNK         1 GROUP             0       ****    0 ROOT    
