@<TRIPOS>MOLECULE
ZINC00888344_5729
68   72    1
SMALL
USER_CHARGES


@<TRIPOS>ATOM
      1 C1          0.5111   52.8870   31.7680 C.3       1 UNK         0.0000 
      2 O2          1.3178   53.2451   30.6498 O.3       1 UNK         0.0000 
      3 C3          0.9320   52.8338   29.3885 C.ar      1 UNK         0.0000 
      4 C4          1.7281   53.2590   28.3270 C.ar      1 UNK         0.0000 
      5 C5          1.4193   52.8962   27.0191 C.ar      1 UNK         0.0000 
      6 C6          0.3019   52.0967   26.7451 C.ar      1 UNK         0.0000 
      7 C7         -0.4924   51.6624   27.8138 C.ar      1 UNK         0.0000 
      8 C8         -0.1846   52.0280   29.1226 C.ar      1 UNK         0.0000 
      9 C9         -0.0268   51.7071   25.3285 C.ar      1 UNK         0.0000 
     10 N10        -1.0599   50.9425   25.0001 N.2       1 UNK         0.0000 
     11 N11        -0.9841   50.7585   23.6334 N.2       1 UNK         0.0000 
     12 N12         0.0792   51.4814   23.2772 N.pl3     1 UNK         0.0000 
     13 N13         0.7064   52.0786   24.2976 N.2       1 UNK         0.0000 
     14 C14         0.6675   51.4550   21.9379 C.3       1 UNK         0.0000 
     15 C15        -0.2415   51.7710   20.7274 C.2       1 UNK         0.0000 
     16 O16        -1.4130   52.0967   20.9426 O.2       1 UNK         0.0000 
     17 N17         0.2687   51.6962   19.4546 N.am      1 UNK         0.0000 
     18 C18        -0.6308   51.9469   18.2991 C.3       1 UNK         0.0000 
     19 C19        -0.4896   53.3276   17.6821 C.2       1 UNK         0.0000 
     20 C20        -1.4882   54.2728   17.4421 C.2       1 UNK         0.0000 
     21 C21        -1.0374   55.4640   16.8675 C.2       1 UNK         0.0000 
     22 C22         0.3210   55.4445   16.6166 C.2       1 UNK         0.0000 
     23 S23         1.0334   53.9405   17.0888 S.3       1 UNK         0.0000 
     24 C24         1.5524   51.0368   19.0589 C.3       1 UNK         0.0000 
     25 H25         1.7522   51.3240   18.0257 H         1 UNK         0.0000 
     26 C26         1.3950   49.5405   19.0531 C.2       1 UNK         0.0000 
     27 C27         1.9350   48.4457   19.7277 C.2       1 UNK         0.0000 
     28 C28         1.3113   47.2970   19.2428 C.2       1 UNK         0.0000 
     29 C29         0.4112   47.7223   18.2889 C.2       1 UNK         0.0000 
     30 O30         0.4589   49.0717   18.1813 O.3       1 UNK         0.0000 
     31 C31         2.8462   51.5387   19.7745 C.2       1 UNK         0.0000 
     32 O32         3.4295   50.8439   20.6092 O.2       1 UNK         0.0000 
     33 N33         3.2477   52.7876   19.4768 N.am      1 UNK         0.0000 
     34 C34         4.4294   53.4330   20.0547 C.3       1 UNK         0.0000 
     35 C35         5.0131   54.5622   19.1765 C.3       1 UNK         0.0000 
     36 C36         6.2976   55.1906   19.7604 C.3       1 UNK         0.0000 
     37 C37         6.1427   55.6202   21.2297 C.3       1 UNK         0.0000 
     38 C38         5.5608   54.5017   22.1160 C.3       1 UNK         0.0000 
     39 C39         4.2795   53.8710   21.5344 C.3       1 UNK         0.0000 
     40 H40         0.9419   53.2939   32.6816 H         1 UNK         0.0000 
     41 H41        -0.4955   53.2956   31.6775 H         1 UNK         0.0000 
     42 H42         0.4505   51.8046   31.8915 H         1 UNK         0.0000 
     43 H43         2.5930   53.8759   28.5195 H         1 UNK         0.0000 
     44 H44         2.0577   53.2416   26.2189 H         1 UNK         0.0000 
     45 H45        -1.3478   51.0236   27.6402 H         1 UNK         0.0000 
     46 H46        -0.8192   51.6623   29.9166 H         1 UNK         0.0000 
     47 H47         1.1098   50.4666   21.8183 H         1 UNK         0.0000 
     48 H48         1.4715   52.1904   21.9415 H         1 UNK         0.0000 
     49 H49        -0.4601   51.1888   17.5353 H         1 UNK         0.0000 
     50 H50        -1.6724   51.7933   18.5848 H         1 UNK         0.0000 
     51 H51        -2.5236   54.1018   17.6944 H         1 UNK         0.0000 
     52 H52        -1.6779   56.3023   16.6345 H         1 UNK         0.0000 
     53 H53         0.9279   56.2227   16.1773 H         1 UNK         0.0000 
     54 H54         2.7030   48.4720   20.4870 H         1 UNK         0.0000 
     55 H55         1.5025   46.2785   19.5416 H         1 UNK         0.0000 
     56 H56        -0.2883   47.2153   17.6410 H         1 UNK         0.0000 
     57 H57         2.6842   53.3495   18.8549 H         1 UNK         0.0000 
     58 H58         5.2096   52.6649   20.0523 H         1 UNK         0.0000 
     59 H59         4.2615   55.3450   19.0627 H         1 UNK         0.0000 
     60 H60         5.2216   54.1847   18.1741 H         1 UNK         0.0000 
     61 H61         6.5919   56.0495   19.1556 H         1 UNK         0.0000 
     62 H62         7.1214   54.4817   19.6796 H         1 UNK         0.0000 
     63 H63         5.5045   56.5000   21.2787 H         1 UNK         0.0000 
     64 H64         7.1097   55.9349   21.6251 H         1 UNK         0.0000 
     65 H65         5.3599   54.8945   23.1139 H         1 UNK         0.0000 
     66 H66         6.3045   53.7179   22.2537 H         1 UNK         0.0000 
     67 H67         3.9923   53.0206   22.1540 H         1 UNK         0.0000 
     68 H68         3.4667   54.5949   21.6088 H         1 UNK         0.0000 
@<TRIPOS>BOND
     1    1    2 1    
     2    1   40 1    
     3    1   41 1    
     4    1   42 1    
     5    2    3 1    
     6    3    8 ar   
     7    3    4 ar   
     8    4    5 ar   
     9    4   43 1    
    10    5    6 ar   
    11    5   44 1    
    12    6    7 ar   
    13    6    9 1    
    14    7    8 ar   
    15    7   45 1    
    16    8   46 1    
    17    9   13 ar   
    18    9   10 ar   
    19   10   11 ar   
    20   11   12 ar   
    21   12   13 ar   
    22   12   14 1    
    23   14   15 1    
    24   14   47 1    
    25   14   48 1    
    26   15   16 2    
    27   15   17 am   BACKBONE|DICT|INTERRES
    28   17   18 1    
    29   17   24 1    
    30   18   19 1    
    31   18   49 1    
    32   18   50 1    
    33   19   23 1    
    34   19   20 2    
    35   20   21 1    
    36   20   51 1    
    37   21   22 2    
    38   21   52 1    
    39   22   23 1    
    40   22   53 1    
    41   24   25 1    
    42   24   26 1    
    43   24   31 1    
    44   26   30 1    
    45   26   27 2    
    46   27   28 1    
    47   27   54 1    
    48   28   29 2    
    49   28   55 1    
    50   29   30 1    
    51   29   56 1    
    52   31   32 2    
    53   31   33 am   BACKBONE|DICT|INTERRES
    54   33   34 1    
    55   33   57 1    
    56   34   39 1    
    57   34   35 1    
    58   34   58 1    
    59   35   36 1    
    60   35   59 1    
    61   35   60 1    
    62   36   37 1    
    63   36   61 1    
    64   36   62 1    
    65   37   38 1    
    66   37   63 1    
    67   37   64 1    
    68   38   39 1    
    69   38   65 1    
    70   38   66 1    
    71   39   67 1    
    72   39   68 1    
@<TRIPOS>SUBSTRUCTURE
     1 UNK         1 GROUP             0       ****    0 ROOT    
