@<TRIPOS>MOLECULE
ZINC12010498_4222
61   67    1
SMALL
USER_CHARGES


@<TRIPOS>ATOM
      1 C1         -0.3708   49.9494   19.0217 C.ar      1 UNK         0.0000 
      2 C2         -0.6073   48.6675   19.5157 C.ar      1 UNK         0.0000 
      3 C3         -0.4984   48.4188   20.8826 C.ar      1 UNK         0.0000 
      4 C4         -0.1432   49.4518   21.7492 C.ar      1 UNK         0.0000 
      5 C5          0.0788   50.7560   21.2732 C.ar      1 UNK         0.0000 
      6 C6         -0.0327   50.9840   19.8949 C.ar      1 UNK         0.0000 
      7 C7          0.4636   51.8625   22.2626 C.3       1 UNK         0.0000 
      8 C8          0.0460   51.4970   23.6897 C.ar      1 UNK         0.0000 
      9 C9         -0.1625   52.4621   24.6836 C.ar      1 UNK         0.0000 
     10 C10        -0.5688   52.0947   25.9676 C.ar      1 UNK         0.0000 
     11 C11        -0.7466   50.7488   26.2845 C.ar      1 UNK         0.0000 
     12 C12        -0.5425   49.7713   25.3124 C.ar      1 UNK         0.0000 
     13 C13        -0.1582   50.1460   24.0251 C.ar      1 UNK         0.0000 
     14 O14        -0.0518   49.1381   23.0897 O.3       1 UNK         0.0000 
     15 C15         1.9953   52.0828   22.2120 C.2       1 UNK         0.0000 
     16 O16         2.7700   51.1306   22.0816 O.2       1 UNK         0.0000 
     17 N17         2.3979   53.3652   22.2921 N.am      1 UNK         0.0000 
     18 C18         3.6835   53.7629   21.9914 C.ar      1 UNK         0.0000 
     19 C19         4.2179   53.9956   20.7356 C.ar      1 UNK         0.0000 
     20 C20         5.5069   54.4751   20.9470 C.ar      1 UNK         0.0000 
     21 N21         5.7864   54.4968   22.2289 N.2       1 UNK         0.0000 
     22 N22         4.6811   54.0969   22.8973 N.pl3     1 UNK         0.0000 
     23 C23         4.6972   54.1177   24.3071 C.ar      1 UNK         0.0000 
     24 N24         5.8479   54.4682   24.9676 N.pl3     1 UNK         0.0000 
     25 H25         6.6656   54.7076   24.4331 H         1 UNK         0.0000 
     26 C26         6.0244   54.5374   26.2981 C.ar      1 UNK         0.0000 
     27 O27         7.1044   54.8967   26.7510 O.2       1 UNK         0.0000 
     28 C28         4.8444   54.1615   27.0598 C.ar      1 UNK         0.0000 
     29 C29         3.7058   53.8327   26.3794 C.ar      1 UNK         0.0000 
     30 N30         3.6453   53.8449   25.0093 N.2       1 UNK         0.0000 
     31 C31         2.4446   53.3508   27.0905 C.3       1 UNK         0.0000 
     32 C32         2.6984   52.9637   28.5635 C.3       1 UNK         0.0000 
     33 C33         3.5958   53.9909   29.2705 C.3       1 UNK         0.0000 
     34 C34         4.9718   54.0972   28.5867 C.3       1 UNK         0.0000 
     35 C35         6.4711   54.8987   19.9448 C.2       1 UNK         0.0000 
     36 C36         6.4698   54.8954   18.5564 C.2       1 UNK         0.0000 
     37 C37         7.7030   55.4029   18.1425 C.2       1 UNK         0.0000 
     38 C38         8.4089   55.6975   19.2955 C.2       1 UNK         0.0000 
     39 O39         7.6598   55.3990   20.3866 O.3       1 UNK         0.0000 
     40 H40        -0.4436   50.1410   17.9610 H         1 UNK         0.0000 
     41 H41        -0.8701   47.8679   18.8390 H         1 UNK         0.0000 
     42 H42        -0.6823   47.4284   21.2702 H         1 UNK         0.0000 
     43 H43         0.1571   51.9699   19.4952 H         1 UNK         0.0000 
     44 H44        -0.0463   52.7753   21.9552 H         1 UNK         0.0000 
     45 H45        -0.0146   53.5079   24.4576 H         1 UNK         0.0000 
     46 H46        -0.7328   52.8495   26.7225 H         1 UNK         0.0000 
     47 H47        -1.0516   50.4570   27.2804 H         1 UNK         0.0000 
     48 H48        -0.6943   48.7296   25.5591 H         1 UNK         0.0000 
     49 H49         1.7025   54.0928   22.3403 H         1 UNK         0.0000 
     50 H50         3.7174   53.8627   19.7870 H         1 UNK         0.0000 
     51 H51         1.6959   54.1413   27.0440 H         1 UNK         0.0000 
     52 H52         2.0253   52.4962   26.5624 H         1 UNK         0.0000 
     53 H53         1.7485   52.8611   29.0902 H         1 UNK         0.0000 
     54 H54         3.1751   51.9826   28.6039 H         1 UNK         0.0000 
     55 H55         3.1083   54.9677   29.2693 H         1 UNK         0.0000 
     56 H56         3.7296   53.7140   30.3165 H         1 UNK         0.0000 
     57 H57         5.5656   53.2199   28.8517 H         1 UNK         0.0000 
     58 H58         5.5242   54.9504   28.9878 H         1 UNK         0.0000 
     59 H59         5.6689   54.5510   17.9186 H         1 UNK         0.0000 
     60 H60         8.0426   55.5321   17.1251 H         1 UNK         0.0000 
     61 H61         9.3967   56.0942   19.4862 H         1 UNK         0.0000 
@<TRIPOS>BOND
     1    1    6 ar   
     2    1    2 ar   
     3    1   40 1    
     4    2    3 ar   
     5    2   41 1    
     6    3    4 ar   
     7    3   42 1    
     8    4   14 1    
     9    4    5 ar   
    10    5    6 ar   
    11    5    7 1    
    12    6   43 1    
    13    7    8 1    
    14    7   15 1    
    15    7   44 1    
    16    8   13 ar   
    17    8    9 ar   
    18    9   10 ar   
    19    9   45 1    
    20   10   11 ar   
    21   10   46 1    
    22   11   12 ar   
    23   11   47 1    
    24   12   13 ar   
    25   12   48 1    
    26   13   14 1    
    27   15   16 2    
    28   15   17 am   BACKBONE|DICT|INTERRES
    29   17   18 1    
    30   17   49 1    
    31   18   22 ar   
    32   18   19 ar   
    33   19   20 ar   
    34   19   50 1    
    35   20   21 ar   
    36   20   35 1    
    37   21   22 ar   
    38   22   23 1    
    39   23   30 ar   
    40   23   24 ar   
    41   24   25 1    
    42   24   26 ar   
    43   26   27 2    
    44   26   28 ar   
    45   28   34 1    
    46   28   29 ar   
    47   29   30 ar   
    48   29   31 1    
    49   31   32 1    
    50   31   51 1    
    51   31   52 1    
    52   32   33 1    
    53   32   53 1    
    54   32   54 1    
    55   33   34 1    
    56   33   55 1    
    57   33   56 1    
    58   34   57 1    
    59   34   58 1    
    60   35   39 1    
    61   35   36 2    
    62   36   37 1    
    63   36   59 1    
    64   37   38 2    
    65   37   60 1    
    66   38   39 1    
    67   38   61 1    
@<TRIPOS>SUBSTRUCTURE
     1 UNK         1 GROUP             0       ****    0 ROOT    
