@<TRIPOS>MOLECULE
ZINC04106966_3150
69   71    1
SMALL
USER_CHARGES


@<TRIPOS>ATOM
      1 C1         -0.5672   51.3319   28.7741 C.3       1 UNK         0.0000 
      2 C2          0.3624   52.4652   28.3752 C.2       1 UNK         0.0000 
      3 O3         -0.0961   53.5960   28.2134 O.2       1 UNK         0.0000 
      4 N4          1.6604   52.1513   28.1960 N.am      1 UNK         0.0000 
      5 C5          2.5541   52.9433   27.4602 C.ar      1 UNK         0.0000 
      6 C6          3.7969   53.3037   27.9867 C.ar      1 UNK         0.0000 
      7 C7          4.6758   54.0765   27.2207 C.ar      1 UNK         0.0000 
      8 C8          4.3225   54.4791   25.9291 C.ar      1 UNK         0.0000 
      9 C9          3.0901   54.0968   25.3878 C.ar      1 UNK         0.0000 
     10 C10         2.2176   53.3297   26.1586 C.ar      1 UNK         0.0000 
     11 C11         2.6371   54.5478   23.9986 C.3       1 UNK         0.0000 
     12 N12         2.7480   53.4864   22.9624 N.pl3     1 UNK         0.0000 
     13 C13         4.1300   53.0335   22.6780 C.3       1 UNK         0.0000 
     14 C14         5.0168   54.0297   21.9601 C.ar      1 UNK         0.0000 
     15 C15         6.1782   54.4642   22.6018 C.ar      1 UNK         0.0000 
     16 C16         7.0328   55.3533   21.9642 C.ar      1 UNK         0.0000 
     17 C17         6.7626   55.7821   20.6688 C.ar      1 UNK         0.0000 
     18 C18         5.5972   55.3544   20.0127 C.ar      1 UNK         0.0000 
     19 C19         4.7261   54.4771   20.6678 C.ar      1 UNK         0.0000 
     20 N20         5.2336   55.7636   18.7179 N.am      1 UNK         0.0000 
     21 C21         5.6583   56.8506   18.0375 C.2       1 UNK         0.0000 
     22 O22         6.4420   57.6962   18.4716 O.2       1 UNK         0.0000 
     23 C23         5.0914   57.0195   16.6318 C.3       1 UNK         0.0000 
     24 S24         1.4146   52.3044   22.8290 S.o2      1 UNK         0.0000 
     25 O25         0.2198   52.8966   23.4471 O.2       1 UNK         0.0000 
     26 O26         1.9043   51.0067   23.3033 O.2       1 UNK         0.0000 
     27 C27         1.0362   52.0558   21.0895 C.ar      1 UNK         0.0000 
     28 C28         2.0512   51.9472   20.1319 C.ar      1 UNK         0.0000 
     29 C29         1.7287   51.7303   18.7955 C.ar      1 UNK         0.0000 
     30 C30         0.3903   51.5951   18.3905 C.ar      1 UNK         0.0000 
     31 C31        -0.6161   51.7127   19.3618 C.ar      1 UNK         0.0000 
     32 C32        -0.2964   51.9479   20.6968 C.ar      1 UNK         0.0000 
     33 C33        -0.0040   51.2884   16.9204 C.3       1 UNK         0.0000 
     34 C34        -0.6817   49.8960   16.8543 C.3       1 UNK         0.0000 
     35 C35         1.2108   51.2638   15.9513 C.3       1 UNK         0.0000 
     36 C36        -0.9909   52.3674   16.3930 C.3       1 UNK         0.0000 
     37 H37        -0.5462   50.5481   28.0166 H         1 UNK         0.0000 
     38 H38        -0.2680   50.9011   29.7203 H         1 UNK         0.0000 
     39 H39        -1.5952   51.6841   28.8698 H         1 UNK         0.0000 
     40 H40         2.0100   51.2900   28.5942 H         1 UNK         0.0000 
     41 H41         4.0788   52.9996   28.9839 H         1 UNK         0.0000 
     42 H42         5.6314   54.3694   27.6320 H         1 UNK         0.0000 
     43 H43         5.0023   55.0910   25.3544 H         1 UNK         0.0000 
     44 H44         1.2580   53.0424   25.7528 H         1 UNK         0.0000 
     45 H45         3.2293   55.3835   23.6600 H         1 UNK         0.0000 
     46 H46         1.6031   54.8824   24.0795 H         1 UNK         0.0000 
     47 H47         4.5942   52.8970   23.6494 H         1 UNK         0.0000 
     48 H48         4.1391   52.0681   22.1757 H         1 UNK         0.0000 
     49 H49         6.4268   54.1241   23.5966 H         1 UNK         0.0000 
     50 H50         7.9047   55.7121   22.4763 H         1 UNK         0.0000 
     51 H51         7.4756   56.4405   20.1966 H         1 UNK         0.0000 
     52 H52         3.8209   54.1523   20.1745 H         1 UNK         0.0000 
     53 H53         4.5229   55.2003   18.2756 H         1 UNK         0.0000 
     54 H54         4.4094   57.8737   16.6018 H         1 UNK         0.0000 
     55 H55         5.9066   57.2013   15.9278 H         1 UNK         0.0000 
     56 H56         4.5610   56.1256   16.3027 H         1 UNK         0.0000 
     57 H57         3.0921   52.0071   20.3985 H         1 UNK         0.0000 
     58 H58         2.5472   51.6421   18.0936 H         1 UNK         0.0000 
     59 H59        -1.6546   51.6153   19.0890 H         1 UNK         0.0000 
     60 H60        -1.0888   52.0164   21.4315 H         1 UNK         0.0000 
     61 H61        -0.9852   49.6529   15.8366 H         1 UNK         0.0000 
     62 H62        -1.5801   49.8426   17.4757 H         1 UNK         0.0000 
     63 H63        -0.0075   49.1073   17.1967 H         1 UNK         0.0000 
     64 H64         1.7110   52.2349   15.9108 H         1 UNK         0.0000 
     65 H65         1.9514   50.5124   16.2411 H         1 UNK         0.0000 
     66 H66         0.9034   51.0195   14.9302 H         1 UNK         0.0000 
     67 H67        -0.5467   53.3632   16.4333 H         1 UNK         0.0000 
     68 H68        -1.2755   52.1816   15.3565 H         1 UNK         0.0000 
     69 H69        -1.9173   52.4064   16.9661 H         1 UNK         0.0000 
@<TRIPOS>BOND
     1    1    2 1    
     2    1   37 1    
     3    1   38 1    
     4    1   39 1    
     5    2    3 2    
     6    2    4 am   BACKBONE|DICT|INTERRES
     7    4    5 1    
     8    4   40 1    
     9    5   10 ar   
    10    5    6 ar   
    11    6    7 ar   
    12    6   41 1    
    13    7    8 ar   
    14    7   42 1    
    15    8    9 ar   
    16    8   43 1    
    17    9   10 ar   
    18    9   11 1    
    19   10   44 1    
    20   11   12 1    
    21   11   45 1    
    22   11   46 1    
    23   12   13 1    
    24   12   24 1    
    25   13   14 1    
    26   13   47 1    
    27   13   48 1    
    28   14   19 ar   
    29   14   15 ar   
    30   15   16 ar   
    31   15   49 1    
    32   16   17 ar   
    33   16   50 1    
    34   17   18 ar   
    35   17   51 1    
    36   18   19 ar   
    37   18   20 1    
    38   19   52 1    
    39   20   21 am   BACKBONE|DICT|INTERRES
    40   20   53 1    
    41   21   22 2    
    42   21   23 1    
    43   23   54 1    
    44   23   55 1    
    45   23   56 1    
    46   24   25 2    
    47   24   26 2    
    48   24   27 1    
    49   27   32 ar   
    50   27   28 ar   
    51   28   29 ar   
    52   28   57 1    
    53   29   30 ar   
    54   29   58 1    
    55   30   31 ar   
    56   30   33 1    
    57   31   32 ar   
    58   31   59 1    
    59   32   60 1    
    60   33   34 1    
    61   33   35 1    
    62   33   36 1    
    63   34   61 1    
    64   34   62 1    
    65   34   63 1    
    66   35   64 1    
    67   35   65 1    
    68   35   66 1    
    69   36   67 1    
    70   36   68 1    
    71   36   69 1    
@<TRIPOS>SUBSTRUCTURE
     1 UNK         1 GROUP             0       ****    0 ROOT    
