@<TRIPOS>MOLECULE
ZINC30574858_4539
68   72    1
SMALL
USER_CHARGES


@<TRIPOS>ATOM
      1 C1         -5.0371   48.8030   29.4498 C.3       1 UNK         0.0000 
      2 C2         -4.9416   49.4429   28.0578 C.3       1 UNK         0.0000 
      3 H3         -5.1189   50.5203   28.0800 H         1 UNK         0.0000 
      4 C4         -5.4869   48.6538   26.8849 C.3       1 UNK         0.0000 
      5 C5         -3.9881   48.8701   27.0301 C.3       1 UNK         0.0000 
      6 H6         -3.3806   47.9988   27.2816 H         1 UNK         0.0000 
      7 C7         -3.2960   49.9093   26.1363 C.2       1 UNK         0.0000 
      8 O8         -3.9590   50.7715   25.5537 O.2       1 UNK         0.0000 
      9 N9         -1.9534   49.7897   26.0663 N.am      1 UNK         0.0000 
     10 C10        -1.0569   50.5390   25.2758 C.ar      1 UNK         0.0000 
     11 C11         0.1345   49.9218   24.8876 C.ar      1 UNK         0.0000 
     12 C12         1.0470   50.5984   24.0753 C.ar      1 UNK         0.0000 
     13 C13         0.7997   51.9215   23.6677 C.ar      1 UNK         0.0000 
     14 C14        -0.3860   52.5383   24.0905 C.ar      1 UNK         0.0000 
     15 C15        -1.3030   51.8613   24.8858 C.ar      1 UNK         0.0000 
     16 C16         1.7718   52.7125   22.8087 C.2       1 UNK         0.0000 
     17 O17         1.5041   53.8629   22.4821 O.2       1 UNK         0.0000 
     18 N18         2.9450   52.1484   22.4803 N.am      1 UNK         0.0000 
     19 C19         4.0482   52.7783   21.7247 C.3       1 UNK         0.0000 
     20 C20         4.5539   54.1919   22.1797 C.3       1 UNK         0.0000 
     21 H21         3.7142   54.8837   22.0748 H         1 UNK         0.0000 
     22 C22         4.9014   54.2288   23.6837 C.ar      1 UNK         0.0000 
     23 C23         6.1920   53.9863   24.1515 C.ar      1 UNK         0.0000 
     24 C24         6.4837   54.0967   25.5049 C.ar      1 UNK         0.0000 
     25 C25         5.4886   54.3683   26.4521 C.ar      1 UNK         0.0000 
     26 C26         4.1841   54.5636   25.9813 C.ar      1 UNK         0.0000 
     27 C27         3.9011   54.4997   24.6214 C.ar      1 UNK         0.0000 
     28 N28         5.7983   54.4355   27.8379 N.pl3     1 UNK         0.0000 
     29 C29         7.0997   53.9563   28.3037 C.3       1 UNK         0.0000 
     30 C30         4.7267   54.4943   28.8316 C.3       1 UNK         0.0000 
     31 C31         5.6113   54.7756   21.2137 C.ar      1 UNK         0.0000 
     32 C32         6.8713   55.3089   21.4795 C.ar      1 UNK         0.0000 
     33 N33         7.5027   55.6983   20.3303 N.pl3     1 UNK         0.0000 
     34 H34         8.4424   56.0717   20.3136 H         1 UNK         0.0000 
     35 C35         6.6615   55.5206   19.2631 C.ar      1 UNK         0.0000 
     36 C36         5.4471   54.9672   19.7847 C.ar      1 UNK         0.0000 
     37 C37         4.3903   54.7404   18.8813 C.ar      1 UNK         0.0000 
     38 C38         4.5644   55.0388   17.5321 C.ar      1 UNK         0.0000 
     39 C39         5.7658   55.5534   17.0583 C.ar      1 UNK         0.0000 
     40 C40         6.8429   55.8052   17.9056 C.ar      1 UNK         0.0000 
     41 H41        -4.9215   47.7186   29.4106 H         1 UNK         0.0000 
     42 H42        -5.9974   49.0227   29.9182 H         1 UNK         0.0000 
     43 H43        -4.2483   49.1881   30.1004 H         1 UNK         0.0000 
     44 H44        -5.8909   47.6564   27.0566 H         1 UNK         0.0000 
     45 H45        -6.0412   49.1837   26.1079 H         1 UNK         0.0000 
     46 H46        -1.5540   49.0586   26.6501 H         1 UNK         0.0000 
     47 H47         0.3502   48.9072   25.1906 H         1 UNK         0.0000 
     48 H48         1.9472   50.0762   23.7838 H         1 UNK         0.0000 
     49 H49        -0.6110   53.5574   23.8106 H         1 UNK         0.0000 
     50 H50        -2.1939   52.3815   25.1982 H         1 UNK         0.0000 
     51 H51         3.0733   51.1787   22.7182 H         1 UNK         0.0000 
     52 H52         4.8927   52.0885   21.7495 H         1 UNK         0.0000 
     53 H53         3.7353   52.7963   20.6824 H         1 UNK         0.0000 
     54 H54         6.9840   53.6846   23.4843 H         1 UNK         0.0000 
     55 H55         7.4973   53.9178   25.8058 H         1 UNK         0.0000 
     56 H56         3.3680   54.7821   26.6483 H         1 UNK         0.0000 
     57 H57         2.8931   54.7139   24.3072 H         1 UNK         0.0000 
     58 H58         7.2180   52.8954   28.0825 H         1 UNK         0.0000 
     59 H59         7.9051   54.4965   27.8122 H         1 UNK         0.0000 
     60 H60         7.2288   54.0962   29.3728 H         1 UNK         0.0000 
     61 H61         4.1732   53.5554   28.8429 H         1 UNK         0.0000 
     62 H62         5.1133   54.6747   29.8326 H         1 UNK         0.0000 
     63 H63         4.0158   55.2925   28.6131 H         1 UNK         0.0000 
     64 H64         7.4047   55.4463   22.4061 H         1 UNK         0.0000 
     65 H65         3.4409   54.3595   19.2230 H         1 UNK         0.0000 
     66 H66         3.7522   54.8655   16.8428 H         1 UNK         0.0000 
     67 H67         5.8621   55.7712   16.0032 H         1 UNK         0.0000 
     68 H68         7.7662   56.2186   17.5258 H         1 UNK         0.0000 
@<TRIPOS>BOND
     1    1    2 1    
     2    1   41 1    
     3    1   42 1    
     4    1   43 1    
     5    2    3 1    
     6    2    5 1    
     7    2    4 1    
     8    4    5 1    
     9    4   44 1    
    10    4   45 1    
    11    5    6 1    
    12    5    7 1    
    13    7    8 2    
    14    7    9 am   BACKBONE|DICT|INTERRES
    15    9   10 1    
    16    9   46 1    
    17   10   15 ar   
    18   10   11 ar   
    19   11   12 ar   
    20   11   47 1    
    21   12   13 ar   
    22   12   48 1    
    23   13   14 ar   
    24   13   16 1    
    25   14   15 ar   
    26   14   49 1    
    27   15   50 1    
    28   16   17 2    
    29   16   18 am   BACKBONE|DICT|INTERRES
    30   18   19 1    
    31   18   51 1    
    32   19   20 1    
    33   19   52 1    
    34   19   53 1    
    35   20   21 1    
    36   20   22 1    
    37   20   31 1    
    38   22   27 ar   
    39   22   23 ar   
    40   23   24 ar   
    41   23   54 1    
    42   24   25 ar   
    43   24   55 1    
    44   25   26 ar   
    45   25   28 1    
    46   26   27 ar   
    47   26   56 1    
    48   27   57 1    
    49   28   29 1    
    50   28   30 1    
    51   29   58 1    
    52   29   59 1    
    53   29   60 1    
    54   30   61 1    
    55   30   62 1    
    56   30   63 1    
    57   31   36 ar   
    58   31   32 ar   
    59   32   33 ar   
    60   32   64 1    
    61   33   34 1    
    62   33   35 ar   
    63   35   40 ar   
    64   35   36 ar   
    65   36   37 ar   
    66   37   38 ar   
    67   37   65 1    
    68   38   39 ar   
    69   38   66 1    
    70   39   40 ar   
    71   39   67 1    
    72   40   68 1    
@<TRIPOS>SUBSTRUCTURE
     1 UNK         1 GROUP             0       ****    0 ROOT    
