@<TRIPOS>MOLECULE
ZINC54939202_1335
54   57    1
SMALL
USER_CHARGES


@<TRIPOS>ATOM
      1 C1          2.7042   51.7653   18.6402 C.3       1 UNK         0.0000 
      2 C2          2.6004   51.0103   19.9875 C.3       1 UNK         0.0000 
      3 H3          3.2466   50.1308   19.9159 H         1 UNK         0.0000 
      4 C4          1.1840   50.5414   20.3120 C.ar      1 UNK         0.0000 
      5 C5          0.1125   51.4454   20.3173 C.ar      1 UNK         0.0000 
      6 C6         -1.1737   51.0005   20.6156 C.ar      1 UNK         0.0000 
      7 C7         -1.3929   49.6540   20.8965 C.ar      1 UNK         0.0000 
      8 C8         -0.3347   48.7451   20.8837 C.ar      1 UNK         0.0000 
      9 C9          0.9534   49.1899   20.5926 C.ar      1 UNK         0.0000 
     10 N10         3.2360   51.7864   21.1740 N.4       1 UNK         0.0000 
     11 C11         4.7738   51.8407   21.1727 C.3       1 UNK         0.0000 
     12 C12         5.1480   53.0773   21.9983 C.3       1 UNK         0.0000 
     13 C13         3.8537   53.8363   22.3312 C.3       1 UNK         0.0000 
     14 H14         3.9847   54.8982   22.1042 H         1 UNK         0.0000 
     15 C15         2.8056   53.2514   21.3784 C.3       1 UNK         0.0000 
     16 N16         3.4537   53.7102   23.7424 N.am      1 UNK         0.0000 
     17 C17         4.1284   54.2618   24.7849 C.2       1 UNK         0.0000 
     18 O18         5.1757   54.8944   24.6257 O.2       1 UNK         0.0000 
     19 C19         3.5712   54.0463   26.1611 C.2       1 UNK         0.0000 
     20 O20         4.2887   54.1924   27.1551 O.2       1 UNK         0.0000 
     21 N21         2.2616   53.6927   26.2263 N.am      1 UNK         0.0000 
     22 C22         1.5548   53.3623   27.3979 C.ar      1 UNK         0.0000 
     23 C23         0.9306   52.1136   27.4240 C.ar      1 UNK         0.0000 
     24 C24         0.1991   51.6967   28.5300 C.ar      1 UNK         0.0000 
     25 C25         0.0729   52.5104   29.6496 C.ar      1 UNK         0.0000 
     26 C26         0.6580   53.7995   29.6579 C.ar      1 UNK         0.0000 
     27 C27         1.3998   54.2487   28.5173 C.ar      1 UNK         0.0000 
     28 N28         1.9329   55.5049   28.4837 N.ar      1 UNK         0.0000 
     29 C29         1.7873   56.3148   29.5545 C.ar      1 UNK         0.0000 
     30 C30         1.1045   55.9433   30.7024 C.ar      1 UNK         0.0000 
     31 C31         0.5303   54.6749   30.7658 C.ar      1 UNK         0.0000 
     32 H32         2.4215   51.1043   17.8198 H         1 UNK         0.0000 
     33 H33         2.0512   52.6355   18.5847 H         1 UNK         0.0000 
     34 H34         3.7206   52.0963   18.4225 H         1 UNK         0.0000 
     35 H35         0.2689   52.4910   20.0921 H         1 UNK         0.0000 
     36 H36        -2.0029   51.6938   20.6254 H         1 UNK         0.0000 
     37 H37        -2.3914   49.3078   21.1251 H         1 UNK         0.0000 
     38 H38        -0.5153   47.7009   21.0992 H         1 UNK         0.0000 
     39 H39         1.7669   48.4759   20.5823 H         1 UNK         0.0000 
     40 H40         5.1114   51.9267   20.1379 H         1 UNK         0.0000 
     41 H41         5.1046   50.8979   21.5960 H         1 UNK         0.0000 
     42 H42         5.7783   53.7161   21.3760 H         1 UNK         0.0000 
     43 H43         5.7430   52.8234   22.8801 H         1 UNK         0.0000 
     44 H44         1.7690   53.2840   21.7140 H         1 UNK         0.0000 
     45 H45         2.8666   53.6968   20.3898 H         1 UNK         0.0000 
     46 H46         2.6223   53.1706   23.9175 H         1 UNK         0.0000 
     47 H47         1.7514   53.5631   25.3700 H         1 UNK         0.0000 
     48 H48         1.0157   51.4419   26.5815 H         1 UNK         0.0000 
     49 H49        -0.2695   50.7213   28.5195 H         1 UNK         0.0000 
     50 H50        -0.4887   52.1721   30.5106 H         1 UNK         0.0000 
     51 H51         2.2555   57.2861   29.4899 H         1 UNK         0.0000 
     52 H52         1.0777   56.6200   31.5436 H         1 UNK         0.0000 
     53 H53        -0.0020   54.3537   31.6508 H         1 UNK         0.0000 
     54 H54         2.9472   51.2810   22.0005 H         1 UNK         0.0000 
@<TRIPOS>BOND
     1    1    2 1    
     2    1   32 1    
     3    1   33 1    
     4    1   34 1    
     5    2    3 1    
     6    2    4 1    
     7    2   10 1    
     8    4    9 ar   
     9    4    5 ar   
    10    5    6 ar   
    11    5   35 1    
    12    6    7 ar   
    13    6   36 1    
    14    7    8 ar   
    15    7   37 1    
    16    8    9 ar   
    17    8   38 1    
    18    9   39 1    
    19   10   15 1    
    20   10   11 1    
    21   10   54 1    
    22   11   12 1    
    23   11   40 1    
    24   11   41 1    
    25   12   13 1    
    26   12   42 1    
    27   12   43 1    
    28   13   14 1    
    29   13   15 1    
    30   13   16 1    
    31   15   44 1    
    32   15   45 1    
    33   16   17 am   BACKBONE|DICT|INTERRES
    34   16   46 1    
    35   17   18 2    
    36   17   19 1    
    37   19   20 2    
    38   19   21 am   BACKBONE|DICT|INTERRES
    39   21   22 1    
    40   21   47 1    
    41   22   27 ar   
    42   22   23 ar   
    43   23   24 ar   
    44   23   48 1    
    45   24   25 ar   
    46   24   49 1    
    47   25   26 ar   
    48   25   50 1    
    49   26   31 ar   
    50   26   27 ar   
    51   27   28 ar   
    52   28   29 ar   
    53   29   30 ar   
    54   29   51 1    
    55   30   31 ar   
    56   30   52 1    
    57   31   53 1    
@<TRIPOS>SUBSTRUCTURE
     1 UNK         1 GROUP             0       ****    0 ROOT    
