@<TRIPOS>MOLECULE
ZINC13264453_3304
58   60    1
SMALL
USER_CHARGES


@<TRIPOS>ATOM
      1 C1         11.0381   53.0979   16.7304 C.3       1 UNK         0.0000 
      2 C2          9.9037   53.8416   16.0101 C.3       1 UNK         0.0000 
      3 C3          8.6220   53.8374   16.8186 C.2       1 UNK         0.0000 
      4 C4          7.4689   53.0607   16.6452 C.2       1 UNK         0.0000 
      5 C5          6.5065   53.3135   17.6350 C.2       1 UNK         0.0000 
      6 C6          6.8882   54.2674   18.5757 C.2       1 UNK         0.0000 
      7 S7          8.4560   54.8976   18.1894 S.3       1 UNK         0.0000 
      8 C8          6.1854   54.7582   19.7378 C.2       1 UNK         0.0000 
      9 O9          6.5941   55.7456   20.3628 O.2       1 UNK         0.0000 
     10 N10         5.1199   54.0115   20.1018 N.am      1 UNK         0.0000 
     11 N11         4.5224   54.1863   21.2993 N.2       1 UNK         0.0000 
     12 C12         3.5125   53.4588   21.6101 C.2       1 UNK         0.0000 
     13 C13         2.7971   52.4971   20.6449 C.3       1 UNK         0.0000 
     14 C14         3.0066   53.4976   23.0120 C.ar      1 UNK         0.0000 
     15 C15         2.0968   52.5520   23.5220 C.ar      1 UNK         0.0000 
     16 C16         1.7020   52.5773   24.8622 C.ar      1 UNK         0.0000 
     17 C17         2.2215   53.5467   25.7223 C.ar      1 UNK         0.0000 
     18 C18         3.1042   54.4967   25.2268 C.ar      1 UNK         0.0000 
     19 C19         3.4716   54.4864   23.8945 C.ar      1 UNK         0.0000 
     20 S20         1.7547   53.6079   27.4583 S.o2      1 UNK         0.0000 
     21 O21         1.1044   54.8961   27.6836 O.2       1 UNK         0.0000 
     22 O22         1.0846   52.3375   27.7610 O.2       1 UNK         0.0000 
     23 N23         3.2627   53.7048   28.3449 N.pl3     1 UNK         0.0000 
     24 C24         3.9900   54.9799   28.5116 C.3       1 UNK         0.0000 
     25 C25         5.3874   54.9667   27.8358 C.3       1 UNK         0.0000 
     26 C26         6.2025   53.7658   28.2665 C.3       1 UNK         0.0000 
     27 C27         5.3616   52.5030   28.1235 C.3       1 UNK         0.0000 
     28 C28         3.9477   52.4976   28.7564 C.3       1 UNK         0.0000 
     29 H29         3.3682   51.6416   28.4243 H         1 UNK         0.0000 
     30 C30         3.8488   52.3734   30.2934 C.2       1 UNK         0.0000 
     31 O31         2.8755   52.8964   30.8804 O.co2     1 UNK         0.0000 
     32 C32         7.2792   52.0573   15.5301 C.3       1 UNK         0.0000 
     33 H33        11.9479   53.0941   16.1300 H         1 UNK         0.0000 
     34 H34        10.7664   52.0602   16.9287 H         1 UNK         0.0000 
     35 H35        11.2734   53.5630   17.6887 H         1 UNK         0.0000 
     36 H36        10.2201   54.8653   15.8066 H         1 UNK         0.0000 
     37 H37         9.7463   53.3859   15.0319 H         1 UNK         0.0000 
     38 H38         5.5629   52.7849   17.6612 H         1 UNK         0.0000 
     39 H39         4.7809   53.2443   19.5401 H         1 UNK         0.0000 
     40 H40         3.0787   51.4644   20.8533 H         1 UNK         0.0000 
     41 H41         1.7136   52.5858   20.7269 H         1 UNK         0.0000 
     42 H42         3.0403   52.6758   19.5978 H         1 UNK         0.0000 
     43 H43         1.7007   51.7641   22.8988 H         1 UNK         0.0000 
     44 H44         1.0102   51.8331   25.2318 H         1 UNK         0.0000 
     45 H45         3.4608   55.2971   25.8518 H         1 UNK         0.0000 
     46 H46         4.1319   55.2777   23.5695 H         1 UNK         0.0000 
     47 H47         3.3415   55.7182   28.0813 H         1 UNK         0.0000 
     48 H48         4.0521   55.2072   29.5760 H         1 UNK         0.0000 
     49 H49         5.3140   54.9665   26.7515 H         1 UNK         0.0000 
     50 H50         5.9768   55.8404   28.0820 H         1 UNK         0.0000 
     51 H51         7.1062   53.6855   27.6597 H         1 UNK         0.0000 
     52 H52         6.5484   53.9002   29.2817 H         1 UNK         0.0000 
     53 H53         5.2380   52.3728   27.0495 H         1 UNK         0.0000 
     54 H54         5.9390   51.6967   28.4817 H         1 UNK         0.0000 
     55 H55         6.3114   51.5569   15.5658 H         1 UNK         0.0000 
     56 H56         7.3698   52.5315   14.5526 H         1 UNK         0.0000 
     57 H57         8.0551   51.2914   15.5534 H         1 UNK         0.0000 
     58 O58         4.7038   51.6967   30.8820 O.co2     1 UNK         0.0000 
@<TRIPOS>BOND
     1    1    2 1    
     2    1   33 1    
     3    1   34 1    
     4    1   35 1    
     5    2    3 1    
     6    2   36 1    
     7    2   37 1    
     8    3    7 1    
     9    3    4 2    
    10    4    5 1    
    11    4   32 1    
    12    5    6 2    
    13    5   38 1    
    14    6    7 1    
    15    6    8 1    
    16    8    9 2    
    17    8   10 am   BACKBONE|DICT|INTERRES
    18   10   11 1    
    19   10   39 1    
    20   11   12 2    
    21   12   13 1    
    22   12   14 1    
    23   13   40 1    
    24   13   41 1    
    25   13   42 1    
    26   14   19 ar   
    27   14   15 ar   
    28   15   16 ar   
    29   15   43 1    
    30   16   17 ar   
    31   16   44 1    
    32   17   18 ar   
    33   17   20 1    
    34   18   19 ar   
    35   18   45 1    
    36   19   46 1    
    37   20   21 2    
    38   20   22 2    
    39   20   23 1    
    40   23   28 1    
    41   23   24 1    
    42   24   25 1    
    43   24   47 1    
    44   24   48 1    
    45   25   26 1    
    46   25   49 1    
    47   25   50 1    
    48   26   27 1    
    49   26   51 1    
    50   26   52 1    
    51   27   28 1    
    52   27   53 1    
    53   27   54 1    
    54   28   29 1    
    55   28   30 1    
    56   30   31 2    
    57   30   58 1    
    58   32   55 1    
    59   32   56 1    
    60   32   57 1    
@<TRIPOS>SUBSTRUCTURE
     1 UNK         1 GROUP             0       ****    0 ROOT    
