@<TRIPOS>MOLECULE
ZINC32284616_2113
59   62    1
SMALL
USER_CHARGES


@<TRIPOS>ATOM
      1 C1          1.2315   46.5458   17.5330 C.3       1 UNK         0.0000 
      2 C2          1.1275   47.5099   18.7009 C.ar      1 UNK         0.0000 
      3 C3          2.2427   48.2552   19.0931 C.ar      1 UNK         0.0000 
      4 C4          2.1563   49.1383   20.1660 C.ar      1 UNK         0.0000 
      5 C5          0.9474   49.3016   20.8482 C.ar      1 UNK         0.0000 
      6 C6         -0.1713   48.5610   20.4551 C.ar      1 UNK         0.0000 
      7 C7         -0.0797   47.6648   19.3900 C.ar      1 UNK         0.0000 
      8 F8         -1.1692   46.9414   19.0328 F         1 UNK         0.0000 
      9 S9          0.8467   50.4547   22.2151 S.o2      1 UNK         0.0000 
     10 O10        -0.5367   50.4536   22.6982 O.2       1 UNK         0.0000 
     11 O11         1.9719   50.1803   23.1172 O.2       1 UNK         0.0000 
     12 N12         1.1180   52.0524   21.5156 N.pl3     1 UNK         0.0000 
     13 C13         2.3992   52.4965   21.1857 C.ar      1 UNK         0.0000 
     14 C14         2.8374   52.4361   19.8647 C.ar      1 UNK         0.0000 
     15 C15         4.0994   52.9155   19.5257 C.ar      1 UNK         0.0000 
     16 C16         4.9230   53.4664   20.5062 C.ar      1 UNK         0.0000 
     17 C17         4.5090   53.5377   21.8466 C.ar      1 UNK         0.0000 
     18 C18         3.2248   53.0530   22.1677 C.ar      1 UNK         0.0000 
     19 C19         5.4540   54.0966   22.8928 C.2       1 UNK         0.0000 
     20 O20         6.5725   54.4974   22.5728 O.2       1 UNK         0.0000 
     21 N21         5.0257   54.0958   24.1710 N.am      1 UNK         0.0000 
     22 C22         5.8472   54.3196   25.3665 C.3       1 UNK         0.0000 
     23 H23         6.6314   53.5565   25.3419 H         1 UNK         0.0000 
     24 C24         6.5308   55.6983   25.4029 C.3       1 UNK         0.0000 
     25 C25         5.0417   54.0967   26.6496 C.ar      1 UNK         0.0000 
     26 C26         5.5610   53.3206   27.6870 C.ar      1 UNK         0.0000 
     27 C27         4.8217   53.1165   28.8501 C.ar      1 UNK         0.0000 
     28 C28         3.5708   53.6986   29.0263 C.ar      1 UNK         0.0000 
     29 C29         3.0335   54.4940   27.9875 C.ar      1 UNK         0.0000 
     30 C30         3.7725   54.6634   26.8114 C.ar      1 UNK         0.0000 
     31 O31         1.8409   55.1837   28.0818 O.3       1 UNK         0.0000 
     32 C32         1.4659   55.7027   29.3530 C.3       1 UNK         0.0000 
     33 C33         0.7949   54.6430   30.2368 C.3       1 UNK         0.0000 
     34 C34         1.4992   53.2829   30.1813 C.3       1 UNK         0.0000 
     35 O35         2.9167   53.4041   30.2096 O.3       1 UNK         0.0000 
     36 H36         2.1883   46.6323   17.0158 H         1 UNK         0.0000 
     37 H37         0.4410   46.7491   16.8114 H         1 UNK         0.0000 
     38 H38         1.1050   45.5214   17.8792 H         1 UNK         0.0000 
     39 H39         3.1823   48.1527   18.5665 H         1 UNK         0.0000 
     40 H40         3.0321   49.6975   20.4616 H         1 UNK         0.0000 
     41 H41        -1.1132   48.6655   20.9748 H         1 UNK         0.0000 
     42 H42         0.3263   52.5229   21.1080 H         1 UNK         0.0000 
     43 H43         2.2066   52.0160   19.0956 H         1 UNK         0.0000 
     44 H44         4.4424   52.8522   18.5021 H         1 UNK         0.0000 
     45 H45         5.8981   53.8279   20.2110 H         1 UNK         0.0000 
     46 H46         2.8508   53.0887   23.1800 H         1 UNK         0.0000 
     47 H47         4.1317   53.6633   24.3464 H         1 UNK         0.0000 
     48 H48         7.0529   55.8561   26.3453 H         1 UNK         0.0000 
     49 H49         7.2709   55.8160   24.6109 H         1 UNK         0.0000 
     50 H50         5.7966   56.4964   25.2817 H         1 UNK         0.0000 
     51 H51         6.5362   52.8603   27.5964 H         1 UNK         0.0000 
     52 H52         5.2149   52.4954   29.6373 H         1 UNK         0.0000 
     53 H53         3.3747   55.2861   26.0243 H         1 UNK         0.0000 
     54 H54         0.7761   56.5312   29.1874 H         1 UNK         0.0000 
     55 H55         2.3239   56.1589   29.8493 H         1 UNK         0.0000 
     56 H56        -0.2397   54.4968   29.9279 H         1 UNK         0.0000 
     57 H57         0.7551   55.0061   31.2640 H         1 UNK         0.0000 
     58 H58         1.1831   52.7055   29.3105 H         1 UNK         0.0000 
     59 H59         1.1931   52.6852   31.0397 H         1 UNK         0.0000 
@<TRIPOS>BOND
     1    1    2 1    
     2    1   36 1    
     3    1   37 1    
     4    1   38 1    
     5    2    7 ar   
     6    2    3 ar   
     7    3    4 ar   
     8    3   39 1    
     9    4    5 ar   
    10    4   40 1    
    11    5    6 ar   
    12    5    9 1    
    13    6    7 ar   
    14    6   41 1    
    15    7    8 1    
    16    9   10 2    
    17    9   11 2    
    18    9   12 1    
    19   12   13 1    
    20   12   42 1    
    21   13   18 ar   
    22   13   14 ar   
    23   14   15 ar   
    24   14   43 1    
    25   15   16 ar   
    26   15   44 1    
    27   16   17 ar   
    28   16   45 1    
    29   17   18 ar   
    30   17   19 1    
    31   18   46 1    
    32   19   20 2    
    33   19   21 am   BACKBONE|DICT|INTERRES
    34   21   22 1    
    35   21   47 1    
    36   22   23 1    
    37   22   24 1    
    38   22   25 1    
    39   24   48 1    
    40   24   49 1    
    41   24   50 1    
    42   25   30 ar   
    43   25   26 ar   
    44   26   27 ar   
    45   26   51 1    
    46   27   28 ar   
    47   27   52 1    
    48   28   35 1    
    49   28   29 ar   
    50   29   30 ar   
    51   29   31 1    
    52   30   53 1    
    53   31   32 1    
    54   32   33 1    
    55   32   54 1    
    56   32   55 1    
    57   33   34 1    
    58   33   56 1    
    59   33   57 1    
    60   34   35 1    
    61   34   58 1    
    62   34   59 1    
@<TRIPOS>SUBSTRUCTURE
     1 UNK         1 GROUP             0       ****    0 ROOT    
