@<TRIPOS>MOLECULE
ZINC15991388_1495
46   49    1
SMALL
USER_CHARGES


@<TRIPOS>ATOM
      1 C1          5.8093   54.6866   27.0814 C.3       1 UNK         0.0000 
      2 C2          5.7984   54.6946   25.5722 C.ar      1 UNK         0.0000 
      3 C3          6.7044   55.2698   24.6861 C.ar      1 UNK         0.0000 
      4 C4          6.3042   54.9304   23.4110 C.ar      1 UNK         0.0000 
      5 N5          5.1368   54.2035   23.6009 N.pl3     1 UNK         0.0000 
      6 N6          4.8361   54.0967   24.9116 N.2       1 UNK         0.0000 
      7 C7          4.2947   53.5709   22.6443 C.ar      1 UNK         0.0000 
      8 C8          4.8546   53.0085   21.4972 C.ar      1 UNK         0.0000 
      9 C9          4.0794   52.2901   20.6008 C.ar      1 UNK         0.0000 
     10 C10         2.7118   52.1091   20.8373 C.ar      1 UNK         0.0000 
     11 C11         2.1313   52.7104   21.9629 C.ar      1 UNK         0.0000 
     12 C12         2.9162   53.4316   22.8642 C.ar      1 UNK         0.0000 
     13 C13         1.8807   51.2523   19.9118 C.2       1 UNK         0.0000 
     14 O14         0.6749   51.4707   19.7575 O.2       1 UNK         0.0000 
     15 N15         2.5550   50.2190   19.3608 N.am      1 UNK         0.0000 
     16 N16         1.9045   49.3591   18.4816 N.am      1 UNK         0.0000 
     17 C17         1.7559   48.0803   18.8948 C.2       1 UNK         0.0000 
     18 O18         1.9040   47.7056   20.0641 O.2       1 UNK         0.0000 
     19 C19         1.3479   47.0787   17.8385 C.ar      1 UNK         0.0000 
     20 C20         0.6297   45.9212   18.2162 C.ar      1 UNK         0.0000 
     21 C21         0.3062   44.9260   17.2841 C.ar      1 UNK         0.0000 
     22 C22         0.7185   45.1161   15.9715 C.ar      1 UNK         0.0000 
     23 C23         1.4086   46.2298   15.5878 C.ar      1 UNK         0.0000 
     24 C24         1.7362   47.2364   16.4899 C.ar      1 UNK         0.0000 
     25 O25         1.7324   46.1253   14.2713 O.3       1 UNK         0.0000 
     26 C26         1.0122   45.0200   13.7947 C.3       1 UNK         0.0000 
     27 O27         0.5767   44.2835   14.9070 O.3       1 UNK         0.0000 
     28 C28         6.9280   55.2969   22.0804 C.3       1 UNK         0.0000 
     29 H29         6.6313   55.2755   27.4894 H         1 UNK         0.0000 
     30 H30         4.8872   55.0957   27.4954 H         1 UNK         0.0000 
     31 H31         5.9166   53.6747   27.4737 H         1 UNK         0.0000 
     32 H32         7.5744   55.8585   24.9212 H         1 UNK         0.0000 
     33 H33         5.9042   53.0819   21.3018 H         1 UNK         0.0000 
     34 H34         4.5639   51.8628   19.7326 H         1 UNK         0.0000 
     35 H35         1.0749   52.5956   22.1615 H         1 UNK         0.0000 
     36 H36         2.4508   53.8581   23.7412 H         1 UNK         0.0000 
     37 H37         3.5452   50.2760   19.1520 H         1 UNK         0.0000 
     38 H38         2.1633   49.5677   17.5265 H         1 UNK         0.0000 
     39 H39         0.3332   45.7788   19.2462 H         1 UNK         0.0000 
     40 H40        -0.2309   44.0400   17.5863 H         1 UNK         0.0000 
     41 H41         2.3046   48.0939   16.1580 H         1 UNK         0.0000 
     42 H42         0.1442   45.3734   13.2349 H         1 UNK         0.0000 
     43 H43         1.6336   44.4038   13.1433 H         1 UNK         0.0000 
     44 H44         7.5722   56.1696   22.1716 H         1 UNK         0.0000 
     45 H45         7.5676   54.4970   21.7113 H         1 UNK         0.0000 
     46 H46         6.1873   55.5299   21.3148 H         1 UNK         0.0000 
@<TRIPOS>BOND
     1    1    2 1    
     2    1   29 1    
     3    1   30 1    
     4    1   31 1    
     5    2    6 ar   
     6    2    3 ar   
     7    3    4 ar   
     8    3   32 1    
     9    4    5 ar   
    10    4   28 1    
    11    5    6 ar   
    12    5    7 1    
    13    7   12 ar   
    14    7    8 ar   
    15    8    9 ar   
    16    8   33 1    
    17    9   10 ar   
    18    9   34 1    
    19   10   11 ar   
    20   10   13 1    
    21   11   12 ar   
    22   11   35 1    
    23   12   36 1    
    24   13   14 2    
    25   13   15 am   BACKBONE|DICT|INTERRES
    26   15   16 1    
    27   15   37 1    
    28   16   17 am   BACKBONE|DICT|INTERRES
    29   16   38 1    
    30   17   18 2    
    31   17   19 1    
    32   19   24 ar   
    33   19   20 ar   
    34   20   21 ar   
    35   20   39 1    
    36   21   22 ar   
    37   21   40 1    
    38   22   27 1    
    39   22   23 ar   
    40   23   24 ar   
    41   23   25 1    
    42   24   41 1    
    43   25   26 1    
    44   26   27 1    
    45   26   42 1    
    46   26   43 1    
    47   28   44 1    
    48   28   45 1    
    49   28   46 1    
@<TRIPOS>SUBSTRUCTURE
     1 UNK         1 GROUP             0       ****    0 ROOT    
