@<TRIPOS>MOLECULE
ZINC10246864_3366
60   65    1
SMALL
USER_CHARGES


@<TRIPOS>ATOM
      1 C1         -0.8338   48.4829   25.5843 C.3       1 UNK         0.0000 
      2 C2         -0.9339   48.3649   24.0761 C.ar      1 UNK         0.0000 
      3 C3         -1.9193   47.5606   23.4984 C.ar      1 UNK         0.0000 
      4 C4         -1.9908   47.4292   22.1133 C.ar      1 UNK         0.0000 
      5 C5         -1.0692   48.0879   21.2984 C.ar      1 UNK         0.0000 
      6 C6         -0.0649   48.8983   21.8599 C.ar      1 UNK         0.0000 
      7 C7         -0.0187   49.0348   23.2576 C.ar      1 UNK         0.0000 
      8 N8          0.8943   49.5769   21.0598 N.am      1 UNK         0.0000 
      9 C9          1.5725   50.8026   21.5005 C.3       1 UNK         0.0000 
     10 C10         2.2929   51.3423   20.2746 C.3       1 UNK         0.0000 
     11 H11         1.6763   52.0870   19.7667 H         1 UNK         0.0000 
     12 C12         2.4931   50.0957   19.4294 C.3       1 UNK         0.0000 
     13 C13         1.4392   49.0924   19.9048 C.2       1 UNK         0.0000 
     14 O14         1.1719   48.0454   19.3155 O.2       1 UNK         0.0000 
     15 C15         3.5993   52.0174   20.7357 C.2       1 UNK         0.0000 
     16 O16         4.5104   51.3302   21.2066 O.2       1 UNK         0.0000 
     17 N17         3.6543   53.3625   20.6338 N.am      1 UNK         0.0000 
     18 C18         4.7425   54.0761   21.1005 C.2       1 UNK         0.0000 
     19 C19         5.7846   54.6045   20.2744 C.ar      1 UNK         0.0000 
     20 C20         6.0736   54.6514   18.9000 C.ar      1 UNK         0.0000 
     21 C21         7.2834   55.2235   18.4897 C.ar      1 UNK         0.0000 
     22 C22         8.1966   55.7381   19.4144 C.ar      1 UNK         0.0000 
     23 C23         7.9297   55.7170   20.7845 C.ar      1 UNK         0.0000 
     24 C24         6.7142   55.1568   21.1832 C.ar      1 UNK         0.0000 
     25 O25         6.3042   55.0036   22.4741 O.3       1 UNK         0.0000 
     26 C26         5.0961   54.3584   22.4265 C.2       1 UNK         0.0000 
     27 C27         4.3947   54.0968   23.6633 C.2       1 UNK         0.0000 
     28 O28         3.2482   53.6465   23.6529 O.2       1 UNK         0.0000 
     29 N29         5.1084   54.3960   24.7713 N.am      1 UNK         0.0000 
     30 C30         4.7287   54.2895   26.1207 C.ar      1 UNK         0.0000 
     31 C31         5.7590   54.3941   27.0755 C.ar      1 UNK         0.0000 
     32 C32         5.4856   54.3285   28.4482 C.ar      1 UNK         0.0000 
     33 C33         4.1593   54.1547   28.8309 C.ar      1 UNK         0.0000 
     34 C34         3.1539   54.0602   27.9152 C.ar      1 UNK         0.0000 
     35 C35         3.3950   54.1203   26.5500 C.ar      1 UNK         0.0000 
     36 O36         1.9606   53.9442   28.5531 O.3       1 UNK         0.0000 
     37 C37         2.2615   53.8108   29.9127 C.3       1 UNK         0.0000 
     38 O38         3.6270   54.0968   30.0817 O.3       1 UNK         0.0000 
     39 H39        -1.2960   47.6291   26.0823 H         1 UNK         0.0000 
     40 H40         0.2102   48.4982   25.9044 H         1 UNK         0.0000 
     41 H41        -1.3136   49.3952   25.9428 H         1 UNK         0.0000 
     42 H42        -2.6325   47.0425   24.1243 H         1 UNK         0.0000 
     43 H43        -2.7567   46.8121   21.6665 H         1 UNK         0.0000 
     44 H44        -1.1544   47.9756   20.2287 H         1 UNK         0.0000 
     45 H45         0.7465   49.6349   23.7288 H         1 UNK         0.0000 
     46 H46         2.2646   50.4715   22.2800 H         1 UNK         0.0000 
     47 H47         0.8787   51.5205   21.9391 H         1 UNK         0.0000 
     48 H48         2.2562   50.3037   18.3848 H         1 UNK         0.0000 
     49 H49         3.5036   49.6808   19.4462 H         1 UNK         0.0000 
     50 H50         2.9574   53.8536   20.0854 H         1 UNK         0.0000 
     51 H51         5.3900   54.2318   18.1772 H         1 UNK         0.0000 
     52 H52         7.5268   55.2520   17.4371 H         1 UNK         0.0000 
     53 H53         9.1319   56.1512   19.0614 H         1 UNK         0.0000 
     54 H54         8.6408   56.0943   21.5048 H         1 UNK         0.0000 
     55 H55         6.0536   54.7084   24.6079 H         1 UNK         0.0000 
     56 H56         6.7819   54.5293   26.7599 H         1 UNK         0.0000 
     57 H57         6.2805   54.4315   29.1728 H         1 UNK         0.0000 
     58 H58         2.5618   54.0677   25.8677 H         1 UNK         0.0000 
     59 H59         1.6421   54.5046   30.4836 H         1 UNK         0.0000 
     60 H60         2.0668   52.7791   30.2127 H         1 UNK         0.0000 
@<TRIPOS>BOND
     1    1    2 1    
     2    1   39 1    
     3    1   40 1    
     4    1   41 1    
     5    2    7 ar   
     6    2    3 ar   
     7    3    4 ar   
     8    3   42 1    
     9    4    5 ar   
    10    4   43 1    
    11    5    6 ar   
    12    5   44 1    
    13    6    7 ar   
    14    6    8 1    
    15    7   45 1    
    16    8   13 am   BACKBONE|DICT|INTERRES
    17    8    9 1    
    18    9   10 1    
    19    9   46 1    
    20    9   47 1    
    21   10   11 1    
    22   10   12 1    
    23   10   15 1    
    24   12   13 1    
    25   12   48 1    
    26   12   49 1    
    27   13   14 2    
    28   15   16 2    
    29   15   17 am   BACKBONE|DICT|INTERRES
    30   17   18 1    
    31   17   50 1    
    32   18   26 2    
    33   18   19 1    
    34   19   24 ar   
    35   19   20 ar   
    36   20   21 ar   
    37   20   51 1    
    38   21   22 ar   
    39   21   52 1    
    40   22   23 ar   
    41   22   53 1    
    42   23   24 ar   
    43   23   54 1    
    44   24   25 1    
    45   25   26 1    
    46   26   27 1    
    47   27   28 2    
    48   27   29 am   BACKBONE|DICT|INTERRES
    49   29   30 1    
    50   29   55 1    
    51   30   35 ar   
    52   30   31 ar   
    53   31   32 ar   
    54   31   56 1    
    55   32   33 ar   
    56   32   57 1    
    57   33   38 1    
    58   33   34 ar   
    59   34   35 ar   
    60   34   36 1    
    61   35   58 1    
    62   36   37 1    
    63   37   38 1    
    64   37   59 1    
    65   37   60 1    
@<TRIPOS>SUBSTRUCTURE
     1 UNK         1 GROUP             0       ****    0 ROOT    
