@<TRIPOS>MOLECULE
ZINC22914041_1202
65   69    1
SMALL
USER_CHARGES


@<TRIPOS>ATOM
      1 C1          5.9400   53.3147   28.0317 C.3       1 UNK         0.0000 
      2 C2          4.9230   54.3002   27.4144 C.3       1 UNK         0.0000 
      3 H3          5.1477   55.2967   27.7928 H         1 UNK         0.0000 
      4 C4          5.0811   54.3795   25.8851 C.ar      1 UNK         0.0000 
      5 C5          4.0284   54.0967   25.0026 C.ar      1 UNK         0.0000 
      6 C6          4.2334   54.1149   23.6263 C.ar      1 UNK         0.0000 
      7 C7          5.4834   54.4536   23.0903 C.ar      1 UNK         0.0000 
      8 C8          6.5201   54.7676   23.9760 C.ar      1 UNK         0.0000 
      9 C9          6.3209   54.7381   25.3514 C.ar      1 UNK         0.0000 
     10 C10         5.6950   54.4971   21.6107 C.ar      1 UNK         0.0000 
     11 C11         5.0032   53.6232   20.7580 C.ar      1 UNK         0.0000 
     12 C12         5.2186   53.6483   19.3821 C.ar      1 UNK         0.0000 
     13 C13         6.1270   54.5533   18.8430 C.ar      1 UNK         0.0000 
     14 C14         6.8207   55.4328   19.6680 C.ar      1 UNK         0.0000 
     15 C15         6.6044   55.4045   21.0434 C.ar      1 UNK         0.0000 
     16 N16         3.5466   53.9984   27.8292 N.am      1 UNK         0.0000 
     17 C17         3.0478   53.9205   29.0747 C.2       1 UNK         0.0000 
     18 O18         3.7258   54.0975   30.0816 O.2       1 UNK         0.0000 
     19 C19         1.5413   53.6189   29.2364 C.3       1 UNK         0.0000 
     20 N20         0.9658   52.9307   28.0637 N.3       1 UNK         0.0000 
     21 C21         1.3168   51.4980   28.0396 C.3       1 UNK         0.0000 
     22 C22         0.6847   50.7820   26.8183 C.3       1 UNK         0.0000 
     23 N23        -0.7744   50.9550   26.8067 N.3       1 UNK         0.0000 
     24 C24        -1.1171   52.3827   26.8338 C.3       1 UNK         0.0000 
     25 C25        -0.4941   53.0467   28.0835 C.3       1 UNK         0.0000 
     26 C26        -1.3830   50.2639   25.6671 C.3       1 UNK         0.0000 
     27 C27        -2.8839   50.0470   25.7895 C.ar      1 UNK         0.0000 
     28 C28        -3.8165   50.5339   24.9393 C.ar      1 UNK         0.0000 
     29 C29        -5.2404   50.3403   25.0952 C.ar      1 UNK         0.0000 
     30 O30        -6.1567   50.7408   24.3773 O.2       1 UNK         0.0000 
     31 N31        -5.5441   49.5440   26.3144 N.pl3     1 UNK         0.0000 
     32 C32        -6.8299   49.2252   26.7035 C.2       1 UNK         0.0000 
     33 C33        -6.8624   48.5076   27.8375 C.2       1 UNK         0.0000 
     34 S34        -5.2443   48.1941   28.4750 S.3       1 UNK         0.0000 
     35 C35        -4.5890   49.0723   27.1394 C.ar      1 UNK         0.0000 
     36 N36        -3.2958   49.3086   26.8817 N.pl3     1 UNK         0.0000 
     37 H37         6.9664   53.5124   27.7243 H         1 UNK         0.0000 
     38 H38         5.9353   53.3592   29.1177 H         1 UNK         0.0000 
     39 H39         5.6961   52.2956   27.7500 H         1 UNK         0.0000 
     40 H40         3.0458   53.8240   25.3585 H         1 UNK         0.0000 
     41 H41         3.4014   53.8863   22.9773 H         1 UNK         0.0000 
     42 H42         7.5015   55.0263   23.6041 H         1 UNK         0.0000 
     43 H43         7.1408   54.9789   26.0056 H         1 UNK         0.0000 
     44 H44         4.3075   52.8983   21.1528 H         1 UNK         0.0000 
     45 H45         4.6936   52.9569   18.7373 H         1 UNK         0.0000 
     46 H46         6.2959   54.5691   17.7753 H         1 UNK         0.0000 
     47 H47         7.5270   56.1290   19.2419 H         1 UNK         0.0000 
     48 H48         7.1529   56.0967   21.6630 H         1 UNK         0.0000 
     49 H49         2.8697   53.9106   27.0873 H         1 UNK         0.0000 
     50 H50         1.3730   53.0416   30.1492 H         1 UNK         0.0000 
     51 H51         1.0596   54.5869   29.3842 H         1 UNK         0.0000 
     52 H52         2.3985   51.3703   27.9967 H         1 UNK         0.0000 
     53 H53         0.9538   51.0111   28.9483 H         1 UNK         0.0000 
     54 H54         0.9362   49.7213   26.8777 H         1 UNK         0.0000 
     55 H55         1.1034   51.2048   25.9043 H         1 UNK         0.0000 
     56 H56        -2.1995   52.5085   26.8793 H         1 UNK         0.0000 
     57 H57        -0.7488   52.8886   25.9390 H         1 UNK         0.0000 
     58 H58        -0.8967   52.5837   28.9863 H         1 UNK         0.0000 
     59 H59        -0.7735   54.0980   28.0830 H         1 UNK         0.0000 
     60 H60        -1.1641   50.8070   24.7453 H         1 UNK         0.0000 
     61 H61        -0.9197   49.2821   25.5461 H         1 UNK         0.0000 
     62 H62        -3.5006   51.1188   24.0871 H         1 UNK         0.0000 
     63 H63        -7.6564   49.5648   26.0939 H         1 UNK         0.0000 
     64 H64        -7.7396   48.1371   28.3492 H         1 UNK         0.0000 
     65 H65        -2.5750   48.9358   27.5178 H         1 UNK         0.0000 
@<TRIPOS>BOND
     1    1    2 1    
     2    1   37 1    
     3    1   38 1    
     4    1   39 1    
     5    2    3 1    
     6    2    4 1    
     7    2   16 1    
     8    4    9 ar   
     9    4    5 ar   
    10    5    6 ar   
    11    5   40 1    
    12    6    7 ar   
    13    6   41 1    
    14    7    8 ar   
    15    7   10 1    
    16    8    9 ar   
    17    8   42 1    
    18    9   43 1    
    19   10   15 ar   
    20   10   11 ar   
    21   11   12 ar   
    22   11   44 1    
    23   12   13 ar   
    24   12   45 1    
    25   13   14 ar   
    26   13   46 1    
    27   14   15 ar   
    28   14   47 1    
    29   15   48 1    
    30   16   17 am   BACKBONE|DICT|INTERRES
    31   16   49 1    
    32   17   18 2    
    33   17   19 1    
    34   19   20 1    
    35   19   50 1    
    36   19   51 1    
    37   20   25 1    
    38   20   21 1    
    39   21   22 1    
    40   21   52 1    
    41   21   53 1    
    42   22   23 1    
    43   22   54 1    
    44   22   55 1    
    45   23   24 1    
    46   23   26 1    
    47   24   25 1    
    48   24   56 1    
    49   24   57 1    
    50   25   58 1    
    51   25   59 1    
    52   26   27 1    
    53   26   60 1    
    54   26   61 1    
    55   27   36 ar   
    56   27   28 ar   
    57   28   29 ar   
    58   28   62 1    
    59   29   30 2    
    60   29   31 ar   
    61   31   35 ar   
    62   31   32 1    
    63   32   33 2    
    64   32   63 1    
    65   33   34 1    
    66   33   64 1    
    67   34   35 1    
    68   35   36 ar   
    69   36   65 1    
@<TRIPOS>SUBSTRUCTURE
     1 UNK         1 GROUP             0       ****    0 ROOT    
