@<TRIPOS>MOLECULE
ZINC35565779_982
59   62    1
SMALL
USER_CHARGES


@<TRIPOS>ATOM
      1 C1          5.2224   54.7215   16.7849 C.3       1 UNK         0.0000 
      2 C2          5.7163   55.6504   17.8813 C.2       1 UNK         0.0000 
      3 C3          5.6191   55.5172   19.2810 C.2       1 UNK         0.0000 
      4 S4          6.3898   56.8970   19.9888 S.3       1 UNK         0.0000 
      5 C5          6.7260   57.5280   18.4173 C.2       1 UNK         0.0000 
      6 N6          6.3234   56.7432   17.4512 N.2       1 UNK         0.0000 
      7 C7          7.4294   58.8464   18.1817 C.3       1 UNK         0.0000 
      8 C8          4.9587   54.4931   20.0993 C.2       1 UNK         0.0000 
      9 O9          4.2321   53.6827   19.5313 O.2       1 UNK         0.0000 
     10 C10         5.0959   54.4464   21.5801 C.2       1 UNK         0.0000 
     11 C11         6.1538   54.6348   22.3852 C.2       1 UNK         0.0000 
     12 C12         5.8285   54.4944   23.7964 C.2       1 UNK         0.0000 
     13 O13         6.5945   54.6320   24.7591 O.2       1 UNK         0.0000 
     14 N14         4.5003   54.1725   23.8450 N.am      1 UNK         0.0000 
     15 C15         3.9238   54.1313   22.4821 C.3       1 UNK         0.0000 
     16 H16         3.2085   54.9535   22.4227 H         1 UNK         0.0000 
     17 C17         3.1125   52.8704   22.1167 C.ar      1 UNK         0.0000 
     18 C18         1.7171   52.9346   22.1168 C.ar      1 UNK         0.0000 
     19 C19         0.9568   51.8403   21.7226 C.ar      1 UNK         0.0000 
     20 C20         1.5796   50.6622   21.3056 C.ar      1 UNK         0.0000 
     21 C21         2.9780   50.6030   21.2826 C.ar      1 UNK         0.0000 
     22 C22         3.7374   51.6978   21.6802 C.ar      1 UNK         0.0000 
     23 C23         0.7016   49.4805   20.8753 C.3       1 UNK         0.0000 
     24 C24         1.4347   48.3777   20.0777 C.3       1 UNK         0.0000 
     25 C25        -0.0657   48.8981   22.0778 C.3       1 UNK         0.0000 
     26 C26         3.7364   53.9592   25.0170 C.2       1 UNK         0.0000 
     27 N27         2.4975   53.5324   25.0069 N.2       1 UNK         0.0000 
     28 C28         1.9988   53.2868   26.2058 C.2       1 UNK         0.0000 
     29 C29         2.8324   53.6183   27.2894 C.2       1 UNK         0.0000 
     30 S30         4.3533   54.1778   26.6410 S.3       1 UNK         0.0000 
     31 C31         2.6663   53.5156   28.7433 C.2       1 UNK         0.0000 
     32 O32         3.4764   53.9586   29.5632 O.2       1 UNK         0.0000 
     33 O33         1.5240   52.8735   29.0661 O.3       1 UNK         0.0000 
     34 C34         1.1589   52.6735   30.4258 C.3       1 UNK         0.0000 
     35 C35         0.6236   52.6415   26.1971 C.3       1 UNK         0.0000 
     36 O36         7.3775   54.8971   22.0814 O.co2     1 UNK         0.0000 
     37 H37         4.3249   54.1723   17.0719 H         1 UNK         0.0000 
     38 H38         4.9680   55.2498   15.8627 H         1 UNK         0.0000 
     39 H39         5.9798   53.9774   16.5300 H         1 UNK         0.0000 
     40 H40         7.2317   59.2473   17.1871 H         1 UNK         0.0000 
     41 H41         7.1098   59.6123   18.8896 H         1 UNK         0.0000 
     42 H42         8.5098   58.7463   18.2799 H         1 UNK         0.0000 
     43 H43         1.2178   53.8439   22.4156 H         1 UNK         0.0000 
     44 H44        -0.1204   51.9133   21.7348 H         1 UNK         0.0000 
     45 H45         3.4947   49.7177   20.9498 H         1 UNK         0.0000 
     46 H46         4.8150   51.6443   21.6346 H         1 UNK         0.0000 
     47 H47        -0.0373   49.8957   20.1874 H         1 UNK         0.0000 
     48 H48         1.9423   48.7926   19.2058 H         1 UNK         0.0000 
     49 H49         0.7346   47.6253   19.7136 H         1 UNK         0.0000 
     50 H50         2.1859   47.8633   20.6769 H         1 UNK         0.0000 
     51 H51        -0.7083   49.6469   22.5424 H         1 UNK         0.0000 
     52 H52        -0.7067   48.0677   21.7791 H         1 UNK         0.0000 
     53 H53         0.6170   48.5396   22.8491 H         1 UNK         0.0000 
     54 H54         0.2147   52.1304   30.4810 H         1 UNK         0.0000 
     55 H55         1.9161   52.0945   30.9569 H         1 UNK         0.0000 
     56 H56         1.0296   53.6277   30.9394 H         1 UNK         0.0000 
     57 H57         0.7055   51.5552   26.1933 H         1 UNK         0.0000 
     58 H58         0.0212   52.9063   27.0640 H         1 UNK         0.0000 
     59 H59         0.0312   52.9070   25.3207 H         1 UNK         0.0000 
@<TRIPOS>BOND
     1    1    2 1    
     2    1   37 1    
     3    1   38 1    
     4    1   39 1    
     5    2    6 1    
     6    2    3 2    
     7    3    4 1    
     8    3    8 1    
     9    4    5 1    
    10    5    6 2    
    11    5    7 1    
    12    7   40 1    
    13    7   41 1    
    14    7   42 1    
    15    8    9 2    
    16    8   10 1    
    17   10   15 1    
    18   10   11 2    
    19   11   12 1    
    20   11   36 1    
    21   12   13 2    
    22   12   14 am   BACKBONE|DICT|INTERRES
    23   14   15 1    
    24   14   26 am   BACKBONE|DICT|INTERRES
    25   15   16 1    
    26   15   17 1    
    27   17   22 ar   
    28   17   18 ar   
    29   18   19 ar   
    30   18   43 1    
    31   19   20 ar   
    32   19   44 1    
    33   20   21 ar   
    34   20   23 1    
    35   21   22 ar   
    36   21   45 1    
    37   22   46 1    
    38   23   24 1    
    39   23   25 1    
    40   23   47 1    
    41   24   48 1    
    42   24   49 1    
    43   24   50 1    
    44   25   51 1    
    45   25   52 1    
    46   25   53 1    
    47   26   30 1    
    48   26   27 2    
    49   27   28 1    
    50   28   29 2    
    51   28   35 1    
    52   29   30 1    
    53   29   31 1    
    54   31   32 2    
    55   31   33 1    
    56   33   34 1    
    57   34   54 1    
    58   34   55 1    
    59   34   56 1    
    60   35   57 1    
    61   35   58 1    
    62   35   59 1    
@<TRIPOS>SUBSTRUCTURE
     1 UNK         1 GROUP             0       ****    0 ROOT    
