@<TRIPOS>MOLECULE
ZINC13565634_3161
60   62    1
SMALL
USER_CHARGES


@<TRIPOS>ATOM
      1 C1         -4.5010   48.5234   26.6285 C.3       1 UNK         0.0000 
      2 C2         -3.5965   49.3130   25.6909 C.2       1 UNK         0.0000 
      3 O3         -4.0533   49.7687   24.6437 O.2       1 UNK         0.0000 
      4 N4         -2.3234   49.4658   26.0816 N.am      1 UNK         0.0000 
      5 C5         -1.2851   50.1977   25.3427 C.3       1 UNK         0.0000 
      6 H6         -1.7676   50.7589   24.5394 H         1 UNK         0.0000 
      7 C7         -0.2555   49.2124   24.7163 C.3       1 UNK         0.0000 
      8 C8          0.3749   49.7303   23.4223 C.ar      1 UNK         0.0000 
      9 C9          1.4470   50.6281   23.4721 C.ar      1 UNK         0.0000 
     10 C10         2.0431   51.0857   22.2966 C.ar      1 UNK         0.0000 
     11 C11         1.5766   50.6449   21.0594 C.ar      1 UNK         0.0000 
     12 C12         0.5068   49.7526   20.9997 C.ar      1 UNK         0.0000 
     13 C13        -0.0949   49.2978   22.1737 C.ar      1 UNK         0.0000 
     14 F14        -1.1277   48.4264   22.0896 F         1 UNK         0.0000 
     15 C15        -0.5888   51.2326   26.2535 C.2       1 UNK         0.0000 
     16 O16        -0.1786   52.2822   25.7637 O.2       1 UNK         0.0000 
     17 N17        -0.4525   50.8966   27.5466 N.am      1 UNK         0.0000 
     18 C18         0.3672   51.5328   28.5710 C.3       1 UNK         0.0000 
     19 C19         1.9018   51.3979   28.3342 C.3       1 UNK         0.0000 
     20 C20         2.7588   52.1475   29.3758 C.3       1 UNK         0.0000 
     21 N21         2.2611   53.5209   29.5120 N.pl3     1 UNK         0.0000 
     22 C22         0.8601   53.6560   29.9615 C.3       1 UNK         0.0000 
     23 C23        -0.0873   52.9650   28.9653 C.3       1 UNK         0.0000 
     24 S24         3.1690   54.8755   28.8336 S.o2      1 UNK         0.0000 
     25 O25         2.3061   56.0627   28.8817 O.2       1 UNK         0.0000 
     26 O26         4.4791   54.8899   29.4928 O.2       1 UNK         0.0000 
     27 C27         3.4749   54.4961   27.1044 C.ar      1 UNK         0.0000 
     28 C28         2.4269   54.0963   26.2800 C.ar      1 UNK         0.0000 
     29 C29         2.6336   53.8854   24.9179 C.ar      1 UNK         0.0000 
     30 C30         3.8946   54.0964   24.3662 C.ar      1 UNK         0.0000 
     31 C31         4.9606   54.4978   25.1803 C.ar      1 UNK         0.0000 
     32 C32         4.7466   54.6783   26.5534 C.ar      1 UNK         0.0000 
     33 C33         6.3401   54.7516   24.5861 C.3       1 UNK         0.0000 
     34 F34         6.3049   54.9365   23.2654 F         1 UNK         0.0000 
     35 F35         6.9006   55.8183   25.1524 F         1 UNK         0.0000 
     36 F36         7.1015   53.6969   24.8364 F         1 UNK         0.0000 
     37 H37        -5.3574   49.1324   26.9200 H         1 UNK         0.0000 
     38 H38        -4.8710   47.6297   26.1266 H         1 UNK         0.0000 
     39 H39        -3.9766   48.2184   27.5352 H         1 UNK         0.0000 
     40 H40        -2.0415   49.0372   26.9697 H         1 UNK         0.0000 
     41 H41        -0.7466   48.2629   24.4957 H         1 UNK         0.0000 
     42 H42         0.5256   48.9369   25.4300 H         1 UNK         0.0000 
     43 H43         1.8201   50.9768   24.4232 H         1 UNK         0.0000 
     44 H44         2.8694   51.7793   22.3423 H         1 UNK         0.0000 
     45 H45         2.0429   50.9937   20.1487 H         1 UNK         0.0000 
     46 H46         0.1439   49.4087   20.0429 H         1 UNK         0.0000 
     47 H47        -0.7880   49.9693   27.8001 H         1 UNK         0.0000 
     48 H48         0.1362   50.9061   29.4349 H         1 UNK         0.0000 
     49 H49         2.1958   50.3519   28.3175 H         1 UNK         0.0000 
     50 H50         2.1458   51.7599   27.3386 H         1 UNK         0.0000 
     51 H51         2.7355   51.6918   30.3629 H         1 UNK         0.0000 
     52 H52         3.8023   52.1769   29.0573 H         1 UNK         0.0000 
     53 H53         0.7744   53.2189   30.9581 H         1 UNK         0.0000 
     54 H54         0.6066   54.7121   30.0582 H         1 UNK         0.0000 
     55 H55        -0.2075   53.5917   28.0825 H         1 UNK         0.0000 
     56 H56        -1.0730   52.8965   29.4208 H         1 UNK         0.0000 
     57 H57         1.4392   53.9762   26.6903 H         1 UNK         0.0000 
     58 H58         1.8069   53.5823   24.2910 H         1 UNK         0.0000 
     59 H59         4.0372   53.9485   23.3049 H         1 UNK         0.0000 
     60 H60         5.5626   54.9990   27.1868 H         1 UNK         0.0000 
@<TRIPOS>BOND
     1    1    2 1    
     2    1   37 1    
     3    1   38 1    
     4    1   39 1    
     5    2    3 2    
     6    2    4 am   BACKBONE|DICT|INTERRES
     7    4    5 1    
     8    4   40 1    
     9    5    6 1    
    10    5    7 1    
    11    5   15 1    
    12    7    8 1    
    13    7   41 1    
    14    7   42 1    
    15    8   13 ar   
    16    8    9 ar   
    17    9   10 ar   
    18    9   43 1    
    19   10   11 ar   
    20   10   44 1    
    21   11   12 ar   
    22   11   45 1    
    23   12   13 ar   
    24   12   46 1    
    25   13   14 1    
    26   15   16 2    
    27   15   17 am   BACKBONE|DICT|INTERRES
    28   17   18 1    
    29   17   47 1    
    30   18   23 1    
    31   18   19 1    
    32   18   48 1    
    33   19   20 1    
    34   19   49 1    
    35   19   50 1    
    36   20   21 1    
    37   20   51 1    
    38   20   52 1    
    39   21   22 1    
    40   21   24 1    
    41   22   23 1    
    42   22   53 1    
    43   22   54 1    
    44   23   55 1    
    45   23   56 1    
    46   24   25 2    
    47   24   26 2    
    48   24   27 1    
    49   27   32 ar   
    50   27   28 ar   
    51   28   29 ar   
    52   28   57 1    
    53   29   30 ar   
    54   29   58 1    
    55   30   31 ar   
    56   30   59 1    
    57   31   32 ar   
    58   31   33 1    
    59   32   60 1    
    60   33   34 1    
    61   33   35 1    
    62   33   36 1    
@<TRIPOS>SUBSTRUCTURE
     1 UNK         1 GROUP             0       ****    0 ROOT    
