@<TRIPOS>MOLECULE
ZINC32072164_47
49   52    1
SMALL
USER_CHARGES


@<TRIPOS>ATOM
      1 C1          5.1047   53.2979   28.8843 C.3       1 UNK         0.0000 
      2 C2          3.7136   53.5733   28.4221 C.ar      1 UNK         0.0000 
      3 C3          3.2719   54.0139   27.1598 C.ar      1 UNK         0.0000 
      4 N4          1.9605   54.1024   27.1222 N.2       1 UNK         0.0000 
      5 N5          1.5272   53.7041   28.3225 N.pl3     1 UNK         0.0000 
      6 C6          2.5602   53.3079   29.1426 C.ar      1 UNK         0.0000 
      7 N7          2.3723   52.7665   30.3872 N.2       1 UNK         0.0000 
      8 C8          1.1992   52.7536   30.8800 C.2       1 UNK         0.0000 
      9 C9         -0.0334   53.4037   30.2445 C.3       1 UNK         0.0000 
     10 C10         0.1104   53.4787   28.6668 C.3       1 UNK         0.0000 
     11 H11        -0.4914   54.2786   28.2381 H         1 UNK         0.0000 
     12 C12        -0.4419   52.2376   27.9296 C.2       1 UNK         0.0000 
     13 O13        -0.8895   51.2959   28.5745 O.2       1 UNK         0.0000 
     14 N14        -0.3782   52.2943   26.5793 N.am      1 UNK         0.0000 
     15 C15        -0.6852   51.3052   25.6265 C.ar      1 UNK         0.0000 
     16 C16        -1.4237   50.1468   25.8981 C.ar      1 UNK         0.0000 
     17 C17        -1.6104   49.1874   24.9103 C.ar      1 UNK         0.0000 
     18 C18        -1.0843   49.3745   23.6280 C.ar      1 UNK         0.0000 
     19 C19        -0.3669   50.5487   23.3548 C.ar      1 UNK         0.0000 
     20 C20        -0.1737   51.5061   24.3468 C.ar      1 UNK         0.0000 
     21 C21        -1.2886   48.3104   22.5944 C.2       1 UNK         0.0000 
     22 O22        -1.8628   47.2414   22.8121 O.2       1 UNK         0.0000 
     23 C23        -0.7553   48.5679   21.1873 C.3       1 UNK         0.0000 
     24 O24         0.9991   52.0997   32.0682 O.3       1 UNK         0.0000 
     25 C25         4.1044   54.3019   25.9471 C.ar      1 UNK         0.0000 
     26 C26         5.3752   54.8768   26.0725 C.ar      1 UNK         0.0000 
     27 C27         6.1852   55.0417   24.9532 C.ar      1 UNK         0.0000 
     28 C28         5.7218   54.6428   23.7030 C.ar      1 UNK         0.0000 
     29 C29         4.4466   54.1014   23.5562 C.ar      1 UNK         0.0000 
     30 C30         3.6348   53.9436   24.6767 C.ar      1 UNK         0.0000 
     31 Cl31        6.7086   54.8989   22.3145 Cl        1 UNK         0.0000 
     32 H32         5.1106   52.3205   29.3735 H         1 UNK         0.0000 
     33 H33         5.8687   53.2509   28.1118 H         1 UNK         0.0000 
     34 H34         5.3611   54.0368   29.6576 H         1 UNK         0.0000 
     35 H35        -0.9306   52.8685   30.5489 H         1 UNK         0.0000 
     36 H36        -0.1118   54.4110   30.6445 H         1 UNK         0.0000 
     37 H37         0.0957   53.0992   26.2007 H         1 UNK         0.0000 
     38 H38        -1.8289   49.9433   26.8785 H         1 UNK         0.0000 
     39 H39        -2.1591   48.2915   25.1699 H         1 UNK         0.0000 
     40 H40         0.0624   50.7368   22.3815 H         1 UNK         0.0000 
     41 H41         0.3967   52.3942   24.1119 H         1 UNK         0.0000 
     42 H42        -1.2505   49.4360   20.7512 H         1 UNK         0.0000 
     43 H43         0.3132   48.7809   21.2269 H         1 UNK         0.0000 
     44 H44        -0.8967   47.7021   20.5401 H         1 UNK         0.0000 
     45 H45         0.0624   52.0994   32.3175 H         1 UNK         0.0000 
     46 H46         5.7452   55.1933   27.0379 H         1 UNK         0.0000 
     47 H47         7.1654   55.4845   25.0489 H         1 UNK         0.0000 
     48 H48         4.0868   53.8123   22.5792 H         1 UNK         0.0000 
     49 H49         2.6570   53.5010   24.5584 H         1 UNK         0.0000 
@<TRIPOS>BOND
     1    1    2 1    
     2    1   32 1    
     3    1   33 1    
     4    1   34 1    
     5    2    6 ar   
     6    2    3 ar   
     7    3    4 ar   
     8    3   25 1    
     9    4    5 ar   
    10    5   10 1    
    11    5    6 ar   
    12    6    7 1    
    13    7    8 2    
    14    8    9 1    
    15    8   24 1    
    16    9   10 1    
    17    9   35 1    
    18    9   36 1    
    19   10   11 1    
    20   10   12 1    
    21   12   13 2    
    22   12   14 am   BACKBONE|DICT|INTERRES
    23   14   15 1    
    24   14   37 1    
    25   15   20 ar   
    26   15   16 ar   
    27   16   17 ar   
    28   16   38 1    
    29   17   18 ar   
    30   17   39 1    
    31   18   19 ar   
    32   18   21 1    
    33   19   20 ar   
    34   19   40 1    
    35   20   41 1    
    36   21   22 2    
    37   21   23 1    
    38   23   42 1    
    39   23   43 1    
    40   23   44 1    
    41   24   45 1    
    42   25   30 ar   
    43   25   26 ar   
    44   26   27 ar   
    45   26   46 1    
    46   27   28 ar   
    47   27   47 1    
    48   28   29 ar   
    49   28   31 1    
    50   29   30 ar   
    51   29   48 1    
    52   30   49 1    
@<TRIPOS>SUBSTRUCTURE
     1 UNK         1 GROUP             0       ****    0 ROOT    
