@<TRIPOS>MOLECULE
ZINC12975262_2145
60   62    1
SMALL
USER_CHARGES


@<TRIPOS>ATOM
      1 C1          0.6165   51.0090   28.0399 C.3       1 UNK         0.0000 
      2 C2          0.8133   52.5088   27.7573 C.3       1 UNK         0.0000 
      3 C3          1.0450   52.6768   26.2377 C.3       1 UNK         0.0000 
      4 C4         -0.4956   53.1999   28.1551 C.3       1 UNK         0.0000 
      5 C5          1.9837   53.0823   28.6199 C.3       1 UNK         0.0000 
      6 C6          2.1872   54.6231   28.5136 C.3       1 UNK         0.0000 
      7 C7          3.4218   55.1254   29.2680 C.3       1 UNK         0.0000 
      8 C8          4.7519   54.3730   28.9950 C.3       1 UNK         0.0000 
      9 C9          4.4922   52.8883   29.3255 C.3       1 UNK         0.0000 
     10 C10         3.3019   52.2586   28.5804 C.3       1 UNK         0.0000 
     11 C11         5.3690   54.4967   27.5661 C.2       1 UNK         0.0000 
     12 O12         6.5977   54.4961   27.4723 O.2       1 UNK         0.0000 
     13 N13         4.5588   54.4961   26.4829 N.am      1 UNK         0.0000 
     14 C14         4.9326   54.4820   25.1223 C.ar      1 UNK         0.0000 
     15 C15         6.1356   55.0165   24.6308 C.ar      1 UNK         0.0000 
     16 C16         6.4655   54.8900   23.2805 C.ar      1 UNK         0.0000 
     17 C17         5.6131   54.2147   22.4108 C.ar      1 UNK         0.0000 
     18 C18         4.4027   53.6979   22.8798 C.ar      1 UNK         0.0000 
     19 C19         4.0531   53.8676   24.2233 C.ar      1 UNK         0.0000 
     20 S20         3.3290   52.7374   21.8108 S.o2      1 UNK         0.0000 
     21 O21         3.8946   51.3920   21.6816 O.2       1 UNK         0.0000 
     22 O22         1.9412   52.9654   22.2242 O.2       1 UNK         0.0000 
     23 N23         3.5048   53.4665   20.3019 N.pl3     1 UNK         0.0000 
     24 C24         3.1903   52.8441   19.1686 C.2       1 UNK         0.0000 
     25 N25         3.3389   53.3921   17.9624 N.pl3     1 UNK         0.0000 
     26 C26         3.0719   52.4774   16.8555 C.3       1 UNK         0.0000 
     27 C27         2.2231   51.4267   17.5453 C.3       1 UNK         0.0000 
     28 C28         2.6959   51.4371   18.9954 C.3       1 UNK         0.0000 
     29 H29        -0.2758   50.6069   27.5550 H         1 UNK         0.0000 
     30 H30         0.5070   50.8447   29.1119 H         1 UNK         0.0000 
     31 H31         1.4628   50.4251   27.6815 H         1 UNK         0.0000 
     32 H32         1.1899   53.7138   25.9441 H         1 UNK         0.0000 
     33 H33         1.9074   52.1069   25.8999 H         1 UNK         0.0000 
     34 H34         0.1914   52.3124   25.6641 H         1 UNK         0.0000 
     35 H35        -0.4666   54.2834   28.0817 H         1 UNK         0.0000 
     36 H36        -1.3012   52.8644   27.5065 H         1 UNK         0.0000 
     37 H37        -0.7791   52.9582   29.1817 H         1 UNK         0.0000 
     38 H38         1.6839   52.9829   29.6668 H         1 UNK         0.0000 
     39 H39         2.2727   54.9204   27.4740 H         1 UNK         0.0000 
     40 H40         1.3128   55.1617   28.8758 H         1 UNK         0.0000 
     41 H41         3.1973   54.9401   30.3181 H         1 UNK         0.0000 
     42 H42         3.5044   56.2066   29.2807 H         1 UNK         0.0000 
     43 H43         5.5064   54.8072   29.6530 H         1 UNK         0.0000 
     44 H44         4.3051   52.8098   30.3988 H         1 UNK         0.0000 
     45 H45         5.4097   52.3101   29.2228 H         1 UNK         0.0000 
     46 H46         3.1271   51.2546   28.9630 H         1 UNK         0.0000 
     47 H47         3.5924   52.1184   27.5441 H         1 UNK         0.0000 
     48 H48         3.5815   54.3368   26.6712 H         1 UNK         0.0000 
     49 H49         6.8244   55.5303   25.2831 H         1 UNK         0.0000 
     50 H50         7.3893   55.3029   22.9037 H         1 UNK         0.0000 
     51 H51         5.9023   54.0970   21.3772 H         1 UNK         0.0000 
     52 H52         3.1246   53.4486   24.5743 H         1 UNK         0.0000 
     53 H53         3.5375   54.4731   20.3389 H         1 UNK         0.0000 
     54 H54         2.5615   52.9783   16.0317 H         1 UNK         0.0000 
     55 H55         4.0244   52.0684   16.5139 H         1 UNK         0.0000 
     56 H56         2.3046   50.4491   17.0715 H         1 UNK         0.0000 
     57 H57         1.1703   51.7138   17.5003 H         1 UNK         0.0000 
     58 H58         3.5041   50.7320   19.1898 H         1 UNK         0.0000 
     59 H59         1.8743   51.2301   19.6813 H         1 UNK         0.0000 
     60 H60         3.6963   54.3249   17.8165 H         1 UNK         0.0000 
@<TRIPOS>BOND
     1    1    2 1    
     2    1   29 1    
     3    1   30 1    
     4    1   31 1    
     5    2    3 1    
     6    2    4 1    
     7    2    5 1    
     8    3   32 1    
     9    3   33 1    
    10    3   34 1    
    11    4   35 1    
    12    4   36 1    
    13    4   37 1    
    14    5   10 1    
    15    5    6 1    
    16    5   38 1    
    17    6    7 1    
    18    6   39 1    
    19    6   40 1    
    20    7    8 1    
    21    7   41 1    
    22    7   42 1    
    23    8    9 1    
    24    8   11 1    
    25    8   43 1    
    26    9   10 1    
    27    9   44 1    
    28    9   45 1    
    29   10   46 1    
    30   10   47 1    
    31   11   12 2    
    32   11   13 am   BACKBONE|DICT|INTERRES
    33   13   14 1    
    34   13   48 1    
    35   14   19 ar   
    36   14   15 ar   
    37   15   16 ar   
    38   15   49 1    
    39   16   17 ar   
    40   16   50 1    
    41   17   18 ar   
    42   17   51 1    
    43   18   19 ar   
    44   18   20 1    
    45   19   52 1    
    46   20   21 2    
    47   20   22 2    
    48   20   23 1    
    49   23   24 1    
    50   23   53 1    
    51   24   28 1    
    52   24   25 2    
    53   25   26 1    
    54   25   60 1    
    55   26   27 1    
    56   26   54 1    
    57   26   55 1    
    58   27   28 1    
    59   27   56 1    
    60   27   57 1    
    61   28   58 1    
    62   28   59 1    
@<TRIPOS>SUBSTRUCTURE
     1 UNK         1 GROUP             0       ****    0 ROOT    
