@<TRIPOS>MOLECULE
ZINC61709392_1770
29   31    1
SMALL
USER_CHARGES


@<TRIPOS>ATOM
      1 C1          2.2474   53.4200   26.2969 C.ar      1 UNK         0.0000 
      2 C2          2.9381   53.6305   25.1081 C.ar      1 UNK         0.0000 
      3 C3          4.2470   54.1027   25.1956 C.ar      1 UNK         0.0000 
      4 C4          4.8406   54.4100   26.4502 C.ar      1 UNK         0.0000 
      5 C5          4.1100   54.2213   27.6484 C.ar      1 UNK         0.0000 
      6 C6          2.7945   53.7030   27.5560 C.ar      1 UNK         0.0000 
      7 N7          1.9935   53.4795   28.6946 N.pl3     1 UNK         0.0000 
      8 C8          1.6463   54.5094   29.6806 C.3       1 UNK         0.0000 
      9 C9          0.5184   53.9914   30.5915 C.3       1 UNK         0.0000 
     10 C10         0.4315   52.5126   30.2570 C.3       1 UNK         0.0000 
     11 H11         1.1652   51.9722   30.8578 H         1 UNK         0.0000 
     12 C12         0.9307   52.4803   28.8178 C.3       1 UNK         0.0000 
     13 O13        -0.8128   51.8847   30.4817 O.3       1 UNK         0.0000 
     14 N14         4.7190   54.4973   28.8866 N.pl3     1 UNK         0.0000 
     15 N15         6.1247   54.8746   26.3588 N.2       1 UNK         0.0000 
     16 C16         6.5245   54.9240   25.1206 C.2       1 UNK         0.0000 
     17 S17         5.3994   54.4032   23.9024 S.3       1 UNK         0.0000 
     18 H18         1.2425   53.0354   26.2235 H         1 UNK         0.0000 
     19 H19         2.4885   53.4009   24.1518 H         1 UNK         0.0000 
     20 H20         2.5073   54.8585   30.2473 H         1 UNK         0.0000 
     21 H21         1.2731   55.3812   29.1394 H         1 UNK         0.0000 
     22 H22         0.7021   54.1587   31.6525 H         1 UNK         0.0000 
     23 H23        -0.4206   54.4868   30.3397 H         1 UNK         0.0000 
     24 H24         0.1411   52.7224   28.1054 H         1 UNK         0.0000 
     25 H25         1.2662   51.4889   28.5094 H         1 UNK         0.0000 
     26 H26        -1.0309   51.8899   31.4322 H         1 UNK         0.0000 
     27 H27         4.2414   54.2207   29.7323 H         1 UNK         0.0000 
     28 H28         5.6855   54.8016   28.9094 H         1 UNK         0.0000 
     29 H29         7.5044   55.2648   24.8296 H         1 UNK         0.0000 
@<TRIPOS>BOND
     1    1    6 ar   
     2    1    2 ar   
     3    1   18 1    
     4    2    3 ar   
     5    2   19 1    
     6    3   17 1    
     7    3    4 ar   
     8    4    5 ar   
     9    4   15 1    
    10    5    6 ar   
    11    5   14 1    
    12    6    7 1    
    13    7   12 1    
    14    7    8 1    
    15    8    9 1    
    16    8   20 1    
    17    8   21 1    
    18    9   10 1    
    19    9   22 1    
    20    9   23 1    
    21   10   11 1    
    22   10   12 1    
    23   10   13 1    
    24   12   24 1    
    25   12   25 1    
    26   13   26 1    
    27   14   27 1    
    28   14   28 1    
    29   15   16 2    
    30   16   17 1    
    31   16   29 1    
@<TRIPOS>SUBSTRUCTURE
     1 UNK         1 GROUP             0       ****    0 ROOT    
