@<TRIPOS>MOLECULE
ZINC65594241_2792
61   64    1
SMALL
USER_CHARGES


@<TRIPOS>ATOM
      1 C1          6.3912   54.0545   27.6945 C.3       1 UNK         0.0000 
      2 C2          5.1350   54.0671   26.8342 C.2       1 UNK         0.0000 
      3 C3          3.8564   53.6314   27.3431 C.ar      1 UNK         0.0000 
      4 C4          3.4236   53.1410   28.6040 C.ar      1 UNK         0.0000 
      5 N5          2.1456   52.7242   28.8056 N.ar      1 UNK         0.0000 
      6 C6          1.2946   52.8126   27.7582 C.ar      1 UNK         0.0000 
      7 N7          1.5655   53.2968   26.5219 N.ar      1 UNK         0.0000 
      8 C8          2.8300   53.6966   26.3548 C.ar      1 UNK         0.0000 
      9 S9          3.3981   54.3927   24.8658 S.3       1 UNK         0.0000 
     10 C10         5.0509   54.4135   25.4755 C.2       1 UNK         0.0000 
     11 C11         6.1128   54.9396   24.6221 C.2       1 UNK         0.0000 
     12 O12         6.9438   55.6967   25.1263 O.2       1 UNK         0.0000 
     13 N13         6.1458   54.5996   23.2957 N.am      1 UNK         0.0000 
     14 C14         7.1252   55.2216   22.3824 C.3       1 UNK         0.0000 
     15 C15         6.3977   55.6271   21.0718 C.3       1 UNK         0.0000 
     16 C16         5.5130   54.5170   20.4445 C.3       1 UNK         0.0000 
     17 C17         4.6995   53.7696   21.5131 C.3       1 UNK         0.0000 
     18 C18         5.5206   53.3819   22.7536 C.3       1 UNK         0.0000 
     19 N19         4.6940   54.8983   19.2964 N.am      1 UNK         0.0000 
     20 C20         5.1372   55.4457   18.1573 C.2       1 UNK         0.0000 
     21 O21         6.3184   55.4601   17.8120 O.2       1 UNK         0.0000 
     22 N22         4.1369   56.0217   17.4733 N.am      1 UNK         0.0000 
     23 C23         4.2849   56.8660   16.2871 C.3       1 UNK         0.0000 
     24 C24         2.9579   57.0517   15.5125 C.3       1 UNK         0.0000 
     25 C25         3.0922   57.9395   14.2592 C.3       1 UNK         0.0000 
     26 C26         3.7748   59.2812   14.5697 C.3       1 UNK         0.0000 
     27 C27         5.1415   59.0682   15.2409 C.3       1 UNK         0.0000 
     28 C28         5.0361   58.2052   16.5136 C.3       1 UNK         0.0000 
     29 C29        -0.1159   52.3015   27.9844 C.3       1 UNK         0.0000 
     30 C30         4.2937   53.0169   29.8372 C.3       1 UNK         0.0000 
     31 H31         7.2963   54.3461   27.1658 H         1 UNK         0.0000 
     32 H32         6.3039   54.7329   28.5418 H         1 UNK         0.0000 
     33 H33         6.5984   53.0587   28.0846 H         1 UNK         0.0000 
     34 H34         7.6020   56.0973   22.8217 H         1 UNK         0.0000 
     35 H35         7.9054   54.4962   22.1604 H         1 UNK         0.0000 
     36 H36         5.7747   56.4951   21.2818 H         1 UNK         0.0000 
     37 H37         7.1484   55.9603   20.3541 H         1 UNK         0.0000 
     38 H38         6.2197   53.7750   20.0673 H         1 UNK         0.0000 
     39 H39         4.2612   52.8663   21.0858 H         1 UNK         0.0000 
     40 H40         3.8675   54.3957   21.8410 H         1 UNK         0.0000 
     41 H41         6.3046   52.6762   22.4819 H         1 UNK         0.0000 
     42 H42         4.8816   52.8967   23.4747 H         1 UNK         0.0000 
     43 H43         3.6955   54.8435   19.4358 H         1 UNK         0.0000 
     44 H44         3.2048   55.9585   17.8519 H         1 UNK         0.0000 
     45 H45         4.9220   56.2988   15.6023 H         1 UNK         0.0000 
     46 H46         2.5484   56.0822   15.2248 H         1 UNK         0.0000 
     47 H47         2.2275   57.5197   16.1753 H         1 UNK         0.0000 
     48 H48         3.6686   57.4081   13.5000 H         1 UNK         0.0000 
     49 H49         2.1083   58.1168   13.8230 H         1 UNK         0.0000 
     50 H50         3.8970   59.8618   13.6546 H         1 UNK         0.0000 
     51 H51         3.1351   59.8760   15.2246 H         1 UNK         0.0000 
     52 H52         5.8227   58.5912   14.5348 H         1 UNK         0.0000 
     53 H53         5.5884   60.0333   15.4853 H         1 UNK         0.0000 
     54 H54         4.5087   58.7870   17.2718 H         1 UNK         0.0000 
     55 H55         6.0391   58.0229   16.9015 H         1 UNK         0.0000 
     56 H56        -0.2900   51.4028   27.3906 H         1 UNK         0.0000 
     57 H57        -0.3037   52.0557   29.0316 H         1 UNK         0.0000 
     58 H58        -0.8466   53.0516   27.6808 H         1 UNK         0.0000 
     59 H59         4.7042   53.9960   30.0816 H         1 UNK         0.0000 
     60 H60         5.1044   52.3134   29.6560 H         1 UNK         0.0000 
     61 H61         3.7447   52.6623   30.7116 H         1 UNK         0.0000 
@<TRIPOS>BOND
     1    1    2 1    
     2    1   31 1    
     3    1   32 1    
     4    1   33 1    
     5    2   10 2    
     6    2    3 1    
     7    3    8 ar   
     8    3    4 ar   
     9    4    5 ar   
    10    4   30 1    
    11    5    6 ar   
    12    6    7 ar   
    13    6   29 1    
    14    7    8 ar   
    15    8    9 1    
    16    9   10 1    
    17   10   11 1    
    18   11   12 2    
    19   11   13 am   BACKBONE|DICT|INTERRES
    20   13   18 1    
    21   13   14 1    
    22   14   15 1    
    23   14   34 1    
    24   14   35 1    
    25   15   16 1    
    26   15   36 1    
    27   15   37 1    
    28   16   17 1    
    29   16   19 1    
    30   16   38 1    
    31   17   18 1    
    32   17   39 1    
    33   17   40 1    
    34   18   41 1    
    35   18   42 1    
    36   19   20 am   BACKBONE|DICT|INTERRES
    37   19   43 1    
    38   20   21 2    
    39   20   22 am   BACKBONE|DICT|INTERRES
    40   22   23 1    
    41   22   44 1    
    42   23   28 1    
    43   23   24 1    
    44   23   45 1    
    45   24   25 1    
    46   24   46 1    
    47   24   47 1    
    48   25   26 1    
    49   25   48 1    
    50   25   49 1    
    51   26   27 1    
    52   26   50 1    
    53   26   51 1    
    54   27   28 1    
    55   27   52 1    
    56   27   53 1    
    57   28   54 1    
    58   28   55 1    
    59   29   56 1    
    60   29   57 1    
    61   29   58 1    
    62   30   59 1    
    63   30   60 1    
    64   30   61 1    
@<TRIPOS>SUBSTRUCTURE
     1 UNK         1 GROUP             0       ****    0 ROOT    
