@<TRIPOS>MOLECULE
ZINC09642754_2395
49   52    1
SMALL
USER_CHARGES


@<TRIPOS>ATOM
      1 C1          4.7778   56.5323   17.7906 C.ar      1 UNK         0.0000 
      2 C2          3.9617   55.4697   17.4083 C.ar      1 UNK         0.0000 
      3 C3          4.0635   54.2572   18.1038 C.ar      1 UNK         0.0000 
      4 C4          4.9685   54.1502   19.1735 C.ar      1 UNK         0.0000 
      5 C5          5.7416   55.2840   19.5090 C.ar      1 UNK         0.0000 
      6 N6          5.6578   56.4514   18.8182 N.ar      1 UNK         0.0000 
      7 C7          6.6912   55.2990   20.6517 C.2       1 UNK         0.0000 
      8 O8          7.8813   55.6045   20.5654 O.2       1 UNK         0.0000 
      9 O9          6.0604   54.9815   21.7956 O.3       1 UNK         0.0000 
     10 C10         6.7431   54.8750   23.0423 C.3       1 UNK         0.0000 
     11 C11         5.7350   54.4947   24.1384 C.2       1 UNK         0.0000 
     12 O12         4.6061   54.0963   23.8267 O.2       1 UNK         0.0000 
     13 N13         6.1970   54.5844   25.4077 N.am      1 UNK         0.0000 
     14 C14         5.5801   54.3107   26.5839 C.2       1 UNK         0.0000 
     15 O15         6.1890   54.4940   27.6322 O.2       1 UNK         0.0000 
     16 N16         4.3082   53.8544   26.5439 N.am      1 UNK         0.0000 
     17 C17         3.3477   53.6466   27.6292 C.3       1 UNK         0.0000 
     18 C18         3.8417   52.6383   28.7119 C.3       1 UNK         0.0000 
     19 C19         2.7584   52.3624   29.7763 C.3       1 UNK         0.0000 
     20 C20         1.4761   51.8083   29.1089 C.3       1 UNK         0.0000 
     21 C21         0.9431   52.8324   28.0810 C.3       1 UNK         0.0000 
     22 C22         2.0302   53.0814   27.0068 C.3       1 UNK         0.0000 
     23 C23         0.6230   54.1688   28.7988 C.3       1 UNK         0.0000 
     24 C24         1.9058   54.7239   29.4604 C.3       1 UNK         0.0000 
     25 C25         2.4495   53.6922   30.4740 C.3       1 UNK         0.0000 
     26 C26         2.9831   54.9632   28.3754 C.3       1 UNK         0.0000 
     27 Cl27        5.1048   52.6531   20.0497 Cl        1 UNK         0.0000 
     28 Cl28        3.0714   52.9101   17.6520 Cl        1 UNK         0.0000 
     29 Cl29        2.8539   55.6882   16.0961 Cl        1 UNK         0.0000 
     30 H30         4.7318   57.4814   17.2746 H         1 UNK         0.0000 
     31 H31         7.5180   54.1058   22.9923 H         1 UNK         0.0000 
     32 H32         7.2200   55.8257   23.2946 H         1 UNK         0.0000 
     33 H33         7.1457   54.8979   25.5103 H         1 UNK         0.0000 
     34 H34         3.9614   53.6326   25.6191 H         1 UNK         0.0000 
     35 H35         4.1122   51.7029   28.2609 H         1 UNK         0.0000 
     36 H36         4.7524   52.9988   29.1923 H         1 UNK         0.0000 
     37 H37         3.1448   51.6603   30.5127 H         1 UNK         0.0000 
     38 H38         1.6882   50.8593   28.6163 H         1 UNK         0.0000 
     39 H39         0.7133   51.6051   29.8610 H         1 UNK         0.0000 
     40 H40         0.0407   52.4428   27.6101 H         1 UNK         0.0000 
     41 H41         1.6455   53.7652   26.2491 H         1 UNK         0.0000 
     42 H42         2.2349   52.1483   26.4817 H         1 UNK         0.0000 
     43 H43         0.2439   54.8964   28.0819 H         1 UNK         0.0000 
     44 H44        -0.1599   54.0261   29.5420 H         1 UNK         0.0000 
     45 H45         1.6857   55.6645   29.9713 H         1 UNK         0.0000 
     46 H46         1.7321   53.5313   31.2811 H         1 UNK         0.0000 
     47 H47         3.3956   54.0462   30.8758 H         1 UNK         0.0000 
     48 H48         3.8762   55.3916   28.8355 H         1 UNK         0.0000 
     49 H49         2.6152   55.6971   27.6699 H         1 UNK         0.0000 
@<TRIPOS>BOND
     1    1    6 ar   
     2    1    2 ar   
     3    1   30 1    
     4    2    3 ar   
     5    2   29 1    
     6    3    4 ar   
     7    3   28 1    
     8    4    5 ar   
     9    4   27 1    
    10    5    6 ar   
    11    5    7 1    
    12    7    8 2    
    13    7    9 1    
    14    9   10 1    
    15   10   11 1    
    16   10   31 1    
    17   10   32 1    
    18   11   12 2    
    19   11   13 am   BACKBONE|DICT|INTERRES
    20   13   14 am   BACKBONE|DICT|INTERRES
    21   13   33 1    
    22   14   15 2    
    23   14   16 am   BACKBONE|DICT|INTERRES
    24   16   17 1    
    25   16   34 1    
    26   17   22 1    
    27   17   26 1    
    28   17   18 1    
    29   18   19 1    
    30   18   35 1    
    31   18   36 1    
    32   19   25 1    
    33   19   20 1    
    34   19   37 1    
    35   20   21 1    
    36   20   38 1    
    37   20   39 1    
    38   21   22 1    
    39   21   23 1    
    40   21   40 1    
    41   22   41 1    
    42   22   42 1    
    43   23   24 1    
    44   23   43 1    
    45   23   44 1    
    46   24   25 1    
    47   24   26 1    
    48   24   45 1    
    49   25   46 1    
    50   25   47 1    
    51   26   48 1    
    52   26   49 1    
@<TRIPOS>SUBSTRUCTURE
     1 UNK         1 GROUP             0       ****    0 ROOT    
