@<TRIPOS>MOLECULE
ZINC08455960_2392
57   61    1
SMALL
USER_CHARGES


@<TRIPOS>ATOM
      1 C1         -0.0951   49.0486   22.4838 C.ar      1 UNK         0.0000 
      2 C2          0.7139   49.9083   23.2205 C.ar      1 UNK         0.0000 
      3 C3          1.7034   50.6457   22.5765 C.ar      1 UNK         0.0000 
      4 C4          1.9054   50.5253   21.1900 C.ar      1 UNK         0.0000 
      5 C5          1.1083   49.6178   20.4750 C.ar      1 UNK         0.0000 
      6 C6          0.1033   48.8971   21.1142 C.ar      1 UNK         0.0000 
      7 C7          2.9462   51.3923   20.4426 C.3       1 UNK         0.0000 
      8 H8          3.7499   50.7040   20.1706 H         1 UNK         0.0000 
      9 C9          3.4623   52.5911   21.2678 C.3       1 UNK         0.0000 
     10 C10         4.3883   53.5546   20.4917 C.2       1 UNK         0.0000 
     11 C11         4.3440   53.6022   19.1211 C.2       1 UNK         0.0000 
     12 C12         5.3446   54.4485   18.2861 C.3       1 UNK         0.0000 
     13 H13         5.9139   53.7386   17.6823 H         1 UNK         0.0000 
     14 C14         6.3572   55.1423   19.1947 C.2       1 UNK         0.0000 
     15 C15         6.3066   55.0782   20.5412 C.2       1 UNK         0.0000 
     16 N16         5.3576   54.2888   21.2313 N.pl3     1 UNK         0.0000 
     17 C17         5.3577   54.2513   22.6685 C.ar      1 UNK         0.0000 
     18 C18         4.1898   54.4964   23.4083 C.ar      1 UNK         0.0000 
     19 C19         4.1966   54.4967   24.8020 C.ar      1 UNK         0.0000 
     20 C20         5.3926   54.3124   25.5041 C.ar      1 UNK         0.0000 
     21 C21         6.5653   54.0960   24.7770 C.ar      1 UNK         0.0000 
     22 C22         6.5385   54.0119   23.3889 C.ar      1 UNK         0.0000 
     23 N23         5.4199   54.3273   26.9891 N.pl3     1 UNK         0.0000 
     24 O24         4.3642   54.4974   27.5918 O.co2     1 UNK         0.0000 
     25 O25         6.4993   54.1732   27.5550 O.co2     1 UNK         0.0000 
     26 N26         7.2137   55.8035   21.2848 N.pl3     1 UNK         0.0000 
     27 C27         7.3588   55.9420   18.5547 C.1       1 UNK         0.0000 
     28 N28         8.1845   56.6029   18.0870 N.1       1 UNK         0.0000 
     29 C29         4.7366   55.4168   17.2538 C.ar      1 UNK         0.0000 
     30 C30         4.1327   56.6038   17.6827 C.ar      1 UNK         0.0000 
     31 C31         3.6050   57.5019   16.7578 C.ar      1 UNK         0.0000 
     32 C32         3.6781   57.2109   15.3965 C.ar      1 UNK         0.0000 
     33 C33         4.2791   56.0334   14.9549 C.ar      1 UNK         0.0000 
     34 C34         4.8112   55.1388   15.8810 C.ar      1 UNK         0.0000 
     35 C35         3.3395   52.8219   18.3474 C.2       1 UNK         0.0000 
     36 O36         3.1970   52.9295   17.1318 O.2       1 UNK         0.0000 
     37 C37         2.3705   51.9188   19.1121 C.3       1 UNK         0.0000 
     38 H38        -0.8691   48.4847   22.9846 H         1 UNK         0.0000 
     39 H39         0.5693   50.0109   24.2858 H         1 UNK         0.0000 
     40 H40         2.2973   51.3140   23.1815 H         1 UNK         0.0000 
     41 H41         1.2476   49.4704   19.4146 H         1 UNK         0.0000 
     42 H42        -0.5162   48.2148   20.5510 H         1 UNK         0.0000 
     43 H43         4.0175   52.1290   22.0830 H         1 UNK         0.0000 
     44 H44         2.6246   53.1728   21.6502 H         1 UNK         0.0000 
     45 H45         3.2672   54.7412   22.9059 H         1 UNK         0.0000 
     46 H46         3.2711   54.6804   25.3314 H         1 UNK         0.0000 
     47 H47         7.5023   53.9384   25.2881 H         1 UNK         0.0000 
     48 H48         7.4632   53.7818   22.8817 H         1 UNK         0.0000 
     49 H49         7.9847   56.2686   20.8238 H         1 UNK         0.0000 
     50 H50         7.2670   55.6969   22.2885 H         1 UNK         0.0000 
     51 H51         4.0846   56.8324   18.7372 H         1 UNK         0.0000 
     52 H52         3.1467   58.4228   17.0932 H         1 UNK         0.0000 
     53 H53         3.2698   57.9100   14.6802 H         1 UNK         0.0000 
     54 H54         4.3315   55.8151   13.8980 H         1 UNK         0.0000 
     55 H55         5.2707   54.2246   15.5305 H         1 UNK         0.0000 
     56 H56         2.0966   51.1165   18.4284 H         1 UNK         0.0000 
     57 H57         1.4750   52.5066   19.3170 H         1 UNK         0.0000 
@<TRIPOS>BOND
     1    1    6 ar   
     2    1    2 ar   
     3    1   38 1    
     4    2    3 ar   
     5    2   39 1    
     6    3    4 ar   
     7    3   40 1    
     8    4    5 ar   
     9    4    7 1    
    10    5    6 ar   
    11    5   41 1    
    12    6   42 1    
    13    7    8 1    
    14    7   37 1    
    15    7    9 1    
    16    9   10 1    
    17    9   43 1    
    18    9   44 1    
    19   10   16 1    
    20   10   11 2    
    21   11   12 1    
    22   11   35 1    
    23   12   13 1    
    24   12   14 1    
    25   12   29 1    
    26   14   15 2    
    27   14   27 1    
    28   15   16 1    
    29   15   26 1    
    30   16   17 1    
    31   17   22 ar   
    32   17   18 ar   
    33   18   19 ar   
    34   18   45 1    
    35   19   20 ar   
    36   19   46 1    
    37   20   21 ar   
    38   20   23 1    
    39   21   22 ar   
    40   21   47 1    
    41   22   48 1    
    42   23   24 2    
    43   23   25 1    
    44   26   49 1    
    45   26   50 1    
    46   27   28 3    
    47   29   34 ar   
    48   29   30 ar   
    49   30   31 ar   
    50   30   51 1    
    51   31   32 ar   
    52   31   52 1    
    53   32   33 ar   
    54   32   53 1    
    55   33   34 ar   
    56   33   54 1    
    57   34   55 1    
    58   35   36 2    
    59   35   37 1    
    60   37   56 1    
    61   37   57 1    
@<TRIPOS>SUBSTRUCTURE
     1 UNK         1 GROUP             0       ****    0 ROOT    
