@<TRIPOS>MOLECULE
ZINC66395275_1356
49   50    1
SMALL
USER_CHARGES


@<TRIPOS>ATOM
      1 C1          3.3810   53.2967   22.8673 C.3       1 UNK         0.0000 
      2 C2          4.1824   54.4938   23.3941 C.3       1 UNK         0.0000 
      3 N3          5.0854   54.0519   24.5788 N.4       1 UNK         0.0000 
      4 C4          6.5845   54.3579   24.3198 C.3       1 UNK         0.0000 
      5 C5          6.9063   55.8296   24.6214 C.3       1 UNK         0.0000 
      6 C6          4.5875   54.4764   25.9923 C.3       1 UNK         0.0000 
      7 C7          3.1125   54.0761   26.2122 C.3       1 UNK         0.0000 
      8 C8          2.6693   54.4371   27.6452 C.3       1 UNK         0.0000 
      9 N9          3.5291   53.6390   28.5392 N.am      1 UNK         0.0000 
     10 C10         4.9451   54.0488   28.5380 C.3       1 UNK         0.0000 
     11 C11         5.4816   53.8474   27.1007 C.3       1 UNK         0.0000 
     12 C12         3.1188   52.5452   29.2433 C.2       1 UNK         0.0000 
     13 O13         3.8635   51.8890   29.9741 O.2       1 UNK         0.0000 
     14 C14         1.7265   52.1786   29.1606 C.2       1 UNK         0.0000 
     15 C15         0.8149   52.0967   30.2173 C.2       1 UNK         0.0000 
     16 C16        -0.4656   51.8081   29.7308 C.2       1 UNK         0.0000 
     17 C17        -0.5499   51.6968   28.3509 C.2       1 UNK         0.0000 
     18 S18         1.0082   51.7545   27.6265 S.3       1 UNK         0.0000 
     19 S19        -2.0629   51.5388   27.3790 S.o2      1 UNK         0.0000 
     20 O20        -2.0941   52.6570   26.4324 O.2       1 UNK         0.0000 
     21 O21        -3.1675   51.2895   28.3089 O.2       1 UNK         0.0000 
     22 N22        -1.7411   50.0967   26.4817 N.pl3     1 UNK         0.0000 
     23 C23         1.1038   52.3639   31.6817 C.3       1 UNK         0.0000 
     24 H24         2.7329   53.6046   22.0450 H         1 UNK         0.0000 
     25 H25         4.0369   52.5156   22.4816 H         1 UNK         0.0000 
     26 H26         2.7424   52.8557   23.6324 H         1 UNK         0.0000 
     27 H27         3.5379   55.2967   23.7452 H         1 UNK         0.0000 
     28 H28         4.8212   54.8967   22.6062 H         1 UNK         0.0000 
     29 H29         7.1474   53.6679   24.9480 H         1 UNK         0.0000 
     30 H30         6.7912   54.0813   23.2837 H         1 UNK         0.0000 
     31 H31         7.9044   56.0967   24.3047 H         1 UNK         0.0000 
     32 H32         6.2501   56.4967   24.0817 H         1 UNK         0.0000 
     33 H33         6.8304   56.0732   25.6797 H         1 UNK         0.0000 
     34 H34         4.6346   55.5632   26.0817 H         1 UNK         0.0000 
     35 H35         3.0106   53.0021   26.0519 H         1 UNK         0.0000 
     36 H36         2.4415   54.4967   25.4689 H         1 UNK         0.0000 
     37 H37         1.6012   54.3616   27.8506 H         1 UNK         0.0000 
     38 H38         2.8702   55.4885   27.8540 H         1 UNK         0.0000 
     39 H39         4.9864   55.1044   28.8105 H         1 UNK         0.0000 
     40 H40         5.5438   53.5229   29.2817 H         1 UNK         0.0000 
     41 H41         6.5158   54.1815   27.0382 H         1 UNK         0.0000 
     42 H42         5.5443   52.7722   26.9265 H         1 UNK         0.0000 
     43 H43        -1.2956   51.6967   30.4028 H         1 UNK         0.0000 
     44 H44        -1.6956   49.2845   27.1346 H         1 UNK         0.0000 
     45 H45        -2.4923   49.9055   25.8185 H         1 UNK         0.0000 
     46 H46         2.0362   52.8967   31.8392 H         1 UNK         0.0000 
     47 H47         0.3198   52.9745   32.1316 H         1 UNK         0.0000 
     48 H48         1.1365   51.4501   32.2744 H         1 UNK         0.0000 
     49 H49         5.0277   53.0417   24.5830 H         1 UNK         0.0000 
@<TRIPOS>BOND
     1    1    2 1    
     2    1   24 1    
     3    1   25 1    
     4    1   26 1    
     5    2    3 1    
     6    2   27 1    
     7    2   28 1    
     8    3    4 1    
     9    3    6 1    
    10    3   49 1    
    11    4    5 1    
    12    4   29 1    
    13    4   30 1    
    14    5   31 1    
    15    5   32 1    
    16    5   33 1    
    17    6   11 1    
    18    6    7 1    
    19    6   34 1    
    20    7    8 1    
    21    7   35 1    
    22    7   36 1    
    23    8    9 1    
    24    8   37 1    
    25    8   38 1    
    26    9   10 1    
    27    9   12 am   BACKBONE|DICT|INTERRES
    28   10   11 1    
    29   10   39 1    
    30   10   40 1    
    31   11   41 1    
    32   11   42 1    
    33   12   13 2    
    34   12   14 1    
    35   14   18 1    
    36   14   15 2    
    37   15   16 1    
    38   15   23 1    
    39   16   17 2    
    40   16   43 1    
    41   17   18 1    
    42   17   19 1    
    43   19   20 2    
    44   19   21 2    
    45   19   22 1    
    46   22   44 1    
    47   22   45 1    
    48   23   46 1    
    49   23   47 1    
    50   23   48 1    
@<TRIPOS>SUBSTRUCTURE
     1 UNK         1 GROUP             0       ****    0 ROOT    
