@<TRIPOS>MOLECULE
ZINC56229194_1608
35   36    1
SMALL
USER_CHARGES


@<TRIPOS>ATOM
      1 C1          2.8250   53.0873   21.9127 C.3       1 UNK         0.0000 
      2 C2          2.7467   53.9076   23.2159 C.3       1 UNK         0.0000 
      3 C3          1.6830   53.3226   24.1705 C.3       1 UNK         0.0000 
      4 C4          4.1104   54.0967   23.8857 C.2       1 UNK         0.0000 
      5 N5          4.2445   54.3224   25.1728 N.2       1 UNK         0.0000 
      6 C6          5.4949   54.4525   25.5788 C.2       1 UNK         0.0000 
      7 C7          6.4326   54.3992   24.5548 C.2       1 UNK         0.0000 
      8 S8          5.6351   54.0967   23.0446 S.3       1 UNK         0.0000 
      9 C9          5.7517   54.6515   27.0677 C.3       1 UNK         0.0000 
     10 S10         4.7452   53.6192   28.1867 S.3       1 UNK         0.0000 
     11 C11         3.1739   54.5426   28.2535 C.3       1 UNK         0.0000 
     12 C12         2.0384   53.6810   28.7779 C.ar      1 UNK         0.0000 
     13 N13         1.4777   52.7956   27.9118 N.ar      1 UNK         0.0000 
     14 C14         0.5027   52.0321   28.4605 C.ar      1 UNK         0.0000 
     15 N15         0.0684   52.0967   29.7389 N.ar      1 UNK         0.0000 
     16 C16         0.7042   53.0210   30.4931 C.ar      1 UNK         0.0000 
     17 N17         1.6991   53.8418   30.0817 N.ar      1 UNK         0.0000 
     18 N18         0.3044   53.1462   31.8088 N.pl3     1 UNK         0.0000 
     19 N19        -0.0957   51.0913   27.6423 N.pl3     1 UNK         0.0000 
     20 H20         3.4325   53.5891   21.1584 H         1 UNK         0.0000 
     21 H21         1.8369   52.9424   21.4744 H         1 UNK         0.0000 
     22 H22         3.2538   52.0994   22.0854 H         1 UNK         0.0000 
     23 H23         2.3937   54.8966   22.9262 H         1 UNK         0.0000 
     24 H24         1.5031   53.9808   25.0216 H         1 UNK         0.0000 
     25 H25         0.7265   53.1831   23.6654 H         1 UNK         0.0000 
     26 H26         1.9921   52.3526   24.5625 H         1 UNK         0.0000 
     27 H27         7.5044   54.4900   24.6052 H         1 UNK         0.0000 
     28 H28         6.7794   54.3586   27.2845 H         1 UNK         0.0000 
     29 H29         5.6987   55.6967   27.3609 H         1 UNK         0.0000 
     30 H30         3.3029   55.4326   28.8703 H         1 UNK         0.0000 
     31 H31         2.8922   54.8979   27.2653 H         1 UNK         0.0000 
     32 H32         0.7139   53.8651   32.3776 H         1 UNK         0.0000 
     33 H33        -0.4144   52.5177   32.1834 H         1 UNK         0.0000 
     34 H34        -0.7003   50.3949   28.0685 H         1 UNK         0.0000 
     35 H35         0.2857   50.9538   26.7217 H         1 UNK         0.0000 
@<TRIPOS>BOND
     1    1    2 1    
     2    1   20 1    
     3    1   21 1    
     4    1   22 1    
     5    2    3 1    
     6    2    4 1    
     7    2   23 1    
     8    3   24 1    
     9    3   25 1    
    10    3   26 1    
    11    4    8 1    
    12    4    5 2    
    13    5    6 1    
    14    6    7 2    
    15    6    9 1    
    16    7    8 1    
    17    7   27 1    
    18    9   10 1    
    19    9   28 1    
    20    9   29 1    
    21   10   11 1    
    22   11   12 1    
    23   11   30 1    
    24   11   31 1    
    25   12   17 ar   
    26   12   13 ar   
    27   13   14 ar   
    28   14   15 ar   
    29   14   19 1    
    30   15   16 ar   
    31   16   17 ar   
    32   16   18 1    
    33   18   32 1    
    34   18   33 1    
    35   19   34 1    
    36   19   35 1    
@<TRIPOS>SUBSTRUCTURE
     1 UNK         1 GROUP             0       ****    0 ROOT    
