ZINC63479911_1261
                    3D
 Schrodinger Suite 2024-2.
 64 70  0  0  1  0            999 V2000
    1.8130   50.8307   17.9236 C   0  0  0  0  0  0
    1.0246   50.9407   19.2182 C   0  0  0  0  0  0
    1.6142   50.5417   20.4177 C   0  0  0  0  0  0
    0.9084   50.6626   21.6113 C   0  0  0  0  0  0
   -0.3925   51.1902   21.6171 C   0  0  0  0  0  0
   -0.9828   51.5788   20.4057 C   0  0  0  0  0  0
   -0.2720   51.4588   19.2122 C   0  0  0  0  0  0
   -1.0868   51.3357   22.8464 N   0  0  0  0  0  0
   -0.5636   52.0003   23.9088 C   0  0  0  0  0  0
    0.4776   52.6568   23.9262 O   0  0  0  0  0  0
   -1.5099   51.8747   25.0991 C   0  0  2  0  0  0
   -1.7959   52.8817   25.4062 H   0  0  0  0  0  0
   -0.9667   51.0449   26.2958 C   0  0  1  0  0  0
   -1.4599   51.4135   27.1961 H   0  0  0  0  0  0
   -1.4665   49.6967   26.0817 N   0  0  0  0  0  0
   -2.7926   49.8019   25.4718 C   0  0  1  0  0  0
   -2.6813   51.0857   24.5634 C   0  0  2  0  0  0
   -3.5846   51.6999   24.5672 H   0  0  0  0  0  0
   -2.3236   50.8298   23.0966 C   0  0  0  0  0  0
   -3.0843   50.2944   22.2884 O   0  0  0  0  0  0
   -3.2788   48.4950   24.8829 C   0  0  0  0  0  0
   -2.7311   47.6614   23.9023 C   0  0  0  0  0  0
   -3.4050   46.4990   23.5247 C   0  0  0  0  0  0
   -4.6117   46.1562   24.1404 C   0  0  0  0  0  0
   -5.1497   46.9658   25.1477 C   0  0  0  0  0  0
   -4.4604   48.1304   25.5030 C   0  0  0  0  0  0
   -4.7703   49.0642   26.4781 N   0  0  0  0  0  0
   -3.8766   50.0627   26.5654 C   0  0  0  0  0  0
   -3.9313   51.0160   27.3462 O   0  0  0  0  0  0
   -6.4482   46.5632   25.8257 C   0  0  0  0  0  0
    0.5465   51.0442   26.5986 C   0  0  0  0  0  0
    1.0705   52.3142   27.2501 C   0  0  0  0  0  0
    0.8740   52.7918   28.4914 C   0  0  0  0  0  0
    0.0933   52.2503   29.6125 C   0  0  0  0  0  0
    0.0271   52.9151   30.7813 C   0  0  0  0  0  0
    0.7043   54.1985   30.8817 C   0  0  0  0  0  0
    1.4521   54.7014   29.8655 C   0  0  0  0  0  0
    1.5697   53.9929   28.6646 C   0  0  0  0  0  0
    2.2656   54.2796   27.5952 N   0  3  0  0  0  0
    2.0378   53.2584   26.5602 C   0  0  0  0  0  0
    2.8689   51.0483   18.0918 H   0  0  0  0  0  0
    1.7416   49.8243   17.5091 H   0  0  0  0  0  0
    1.4644   51.5481   17.1802 H   0  0  0  0  0  0
    2.6179   50.1414   20.4240 H   0  0  0  0  0  0
    1.3812   50.3516   22.5332 H   0  0  0  0  0  0
   -1.9850   51.9801   20.3867 H   0  0  0  0  0  0
   -0.7284   51.7706   18.2839 H   0  0  0  0  0  0
   -1.4933   49.1502   26.9655 H   0  0  0  0  0  0
   -1.7988   47.9181   23.4207 H   0  0  0  0  0  0
   -2.9958   45.8737   22.7453 H   0  0  0  0  0  0
   -5.1284   45.2587   23.8336 H   0  0  0  0  0  0
   -5.5642   48.9987   27.0955 H   0  0  0  0  0  0
   -6.8309   45.6090   25.4613 H   0  0  0  0  0  0
   -6.2960   46.4789   26.9021 H   0  0  0  0  0  0
   -7.2090   47.3270   25.6606 H   0  0  0  0  0  0
    1.1043   50.8061   25.6982 H   0  0  0  0  0  0
    0.7685   50.2260   27.2821 H   0  0  0  0  0  0
   -0.4157   51.2968   29.5449 H   0  0  0  0  0  0
   -0.4958   52.4989   31.6300 H   0  0  0  0  0  0
    0.6043   54.7672   31.7959 H   0  0  0  0  0  0
    1.9306   55.6618   29.9973 H   0  0  0  0  0  0
    1.6257   53.7683   25.6909 H   0  0  0  0  0  0
    2.9979   52.8091   26.3042 H   0  0  0  0  0  0
    2.8604   55.0949   27.4738 H   0  0  0  0  0  0
  1  2  1  0  0  0
  1 41  1  0  0  0
  1 42  1  0  0  0
  1 43  1  0  0  0
  2  7  2  0  0  0
  2  3  1  0  0  0
  3  4  2  0  0  0
  3 44  1  0  0  0
  4  5  1  0  0  0
  4 45  1  0  0  0
  5  6  2  0  0  0
  5  8  1  0  0  0
  6  7  1  0  0  0
  6 46  1  0  0  0
  7 47  1  0  0  0
  8 19  1  0  0  0
  8  9  1  0  0  0
  9 10  2  0  0  0
  9 11  1  0  0  0
 11 12  1  0  0  0
 11 17  1  0  0  0
 11 13  1  0  0  0
 13 14  1  0  0  0
 13 15  1  0  0  0
 13 31  1  0  0  0
 15 16  1  0  0  0
 15 48  1  0  0  0
 16 28  1  0  0  0
 16 17  1  0  0  0
 16 21  1  0  0  0
 17 18  1  0  0  0
 17 19  1  0  0  0
 19 20  2  0  0  0
 21 26  2  0  0  0
 21 22  1  0  0  0
 22 23  2  0  0  0
 22 49  1  0  0  0
 23 24  1  0  0  0
 23 50  1  0  0  0
 24 25  2  0  0  0
 24 51  1  0  0  0
 25 26  1  0  0  0
 25 30  1  0  0  0
 26 27  1  0  0  0
 27 28  1  0  0  0
 27 52  1  0  0  0
 28 29  2  0  0  0
 30 53  1  0  0  0
 30 54  1  0  0  0
 30 55  1  0  0  0
 31 32  1  0  0  0
 31 56  1  0  0  0
 31 57  1  0  0  0
 32 40  1  0  0  0
 32 33  2  0  0  0
 33 38  1  0  0  0
 33 34  1  0  0  0
 34 35  2  0  0  0
 34 58  1  0  0  0
 35 36  1  0  0  0
 35 59  1  0  0  0
 36 37  2  0  0  0
 36 60  1  0  0  0
 37 38  1  0  0  0
 37 61  1  0  0  0
 38 39  2  0  0  0
 39 40  1  0  0  0
 39 64  1  0  0  0
 40 62  1  0  0  0
 40 63  1  0  0  0
M  CHG  1  39   1
M  END
> <i_i_glide_confnum>
17

> <i_i_glide_lignum>
1262

> <i_i_glide_posenum>
167

> <i_i_glide_rotatable_bonds>
3

> <i_m_Source_File_Index>
469

> <b_m_subgroup_collapsed>
0

> <r_i_docking_score>
-3.8169

> <r_i_glide_ecoul>
-6.04847

> <r_i_glide_eff_state_penalty>
0

> <r_i_glide_einternal>
5.09278

> <r_i_glide_emodel>
-47.1777

> <r_i_glide_energy>
-39.6683

> <r_i_glide_erotb>
0.252762

> <r_i_glide_esite>
-0.077958

> <r_i_glide_evdw>
-33.6199

> <r_i_glide_gscore>
-3.8169

> <r_i_glide_hbond>
-0.16

> <r_i_glide_ligand_efficiency>
-0.103159

> <r_i_glide_ligand_efficiency_ln>
-0.827796

> <r_i_glide_ligand_efficiency_sa>
-0.34375

> <r_i_glide_lipo>
-1.12636

> <r_i_glide_metal>
0

> <r_i_glide_rewards>
-0.117082

> <s_i_glide_gridfile>
wee1_glide-grid

> <s_m_Source_File>
wee1_decoys_glide_SP.sdf

> <s_m_Source_Path>
/Users/zhangxujun/Desktop

> <s_m_entry_id>
744

> <s_m_entry_name>
wee1_decoys_glide_SP.469

> <s_m_subgroup_title>
wee1_decoys_glide_SP

> <s_m_subgroupid>
wee1_decoys_glide_SP


$$$$
