@<TRIPOS>MOLECULE
ZINC09237818_3247
50   53    1
SMALL
USER_CHARGES


@<TRIPOS>ATOM
      1 C1          5.5541   53.5410   16.7866 C.3       1 UNK         0.0000 
      2 C2          6.2755   54.2765   17.8945 C.ar      1 UNK         0.0000 
      3 N3          7.4148   54.9070   17.7544 N.2       1 UNK         0.0000 
      4 N4          7.7331   55.4589   18.9918 N.2       1 UNK         0.0000 
      5 C5          6.7737   55.1400   19.8253 C.ar      1 UNK         0.0000 
      6 N6          5.8201   54.3808   19.1878 N.pl3     1 UNK         0.0000 
      7 N7          4.6460   53.8490   19.7115 N.3       1 UNK         0.0000 
      8 C8          4.8024   53.3767   21.0850 C.3       1 UNK         0.0000 
      9 H9          5.6102   52.6445   21.0925 H         1 UNK         0.0000 
     10 C10         5.2292   54.5652   22.0152 C.3       1 UNK         0.0000 
     11 H11         4.4274   55.2967   22.0312 H         1 UNK         0.0000 
     12 S12         6.7044   55.5593   21.5319 S.3       1 UNK         0.0000 
     13 C13         5.4692   54.1456   23.4899 C.2       1 UNK         0.0000 
     14 O14         6.5613   53.6970   23.8431 O.2       1 UNK         0.0000 
     15 N15         4.4143   54.3024   24.3215 N.am      1 UNK         0.0000 
     16 C16         4.3315   54.0542   25.7018 C.ar      1 UNK         0.0000 
     17 C17         3.0745   53.6997   26.1933 C.ar      1 UNK         0.0000 
     18 C18         2.9027   53.4269   27.5472 C.ar      1 UNK         0.0000 
     19 C19         3.9885   53.5138   28.4315 C.ar      1 UNK         0.0000 
     20 C20         5.2386   53.8935   27.9385 C.ar      1 UNK         0.0000 
     21 C21         5.4174   54.1600   26.5813 C.ar      1 UNK         0.0000 
     22 O22         3.9053   53.2431   29.7854 O.3       1 UNK         0.0000 
     23 C23         2.6902   52.7191   30.3140 C.3       1 UNK         0.0000 
     24 C24         3.5465   52.6083   21.5128 C.ar      1 UNK         0.0000 
     25 C25         2.4395   53.2477   22.0835 C.ar      1 UNK         0.0000 
     26 C26         1.3225   52.5147   22.4811 C.ar      1 UNK         0.0000 
     27 C27         1.2660   51.1271   22.2746 C.ar      1 UNK         0.0000 
     28 C28         2.3509   50.5003   21.6516 C.ar      1 UNK         0.0000 
     29 C29         3.4792   51.2329   21.2819 C.ar      1 UNK         0.0000 
     30 Br30        2.3043   48.6324   21.2817 Br        1 UNK         0.0000 
     31 O31         0.1944   50.3348   22.6435 O.3       1 UNK         0.0000 
     32 C32        -0.8971   50.9160   23.3478 C.3       1 UNK         0.0000 
     33 H33         6.1157   53.5498   15.8525 H         1 UNK         0.0000 
     34 H34         5.3854   52.4966   17.0436 H         1 UNK         0.0000 
     35 H35         4.5802   53.9830   16.5785 H         1 UNK         0.0000 
     36 H36         4.3987   53.0561   19.1338 H         1 UNK         0.0000 
     37 H37         3.5365   54.5408   23.8892 H         1 UNK         0.0000 
     38 H38         2.2259   53.6161   25.5294 H         1 UNK         0.0000 
     39 H39         1.9197   53.1423   27.8894 H         1 UNK         0.0000 
     40 H40         6.0782   53.9730   28.6135 H         1 UNK         0.0000 
     41 H41         6.3960   54.4471   26.2270 H         1 UNK         0.0000 
     42 H42         2.8232   52.4970   31.3732 H         1 UNK         0.0000 
     43 H43         2.4040   51.7900   29.8181 H         1 UNK         0.0000 
     44 H44         1.8730   53.4371   30.2269 H         1 UNK         0.0000 
     45 H45         2.4260   54.3181   22.2188 H         1 UNK         0.0000 
     46 H46         0.5004   53.0456   22.9346 H         1 UNK         0.0000 
     47 H47         4.3018   50.7281   20.7971 H         1 UNK         0.0000 
     48 H48        -1.6247   50.1400   23.5852 H         1 UNK         0.0000 
     49 H49        -0.5740   51.3618   24.2900 H         1 UNK         0.0000 
     50 H50        -1.4050   51.6713   22.7465 H         1 UNK         0.0000 
@<TRIPOS>BOND
     1    1    2 1    
     2    1   33 1    
     3    1   34 1    
     4    1   35 1    
     5    2    6 ar   
     6    2    3 ar   
     7    3    4 ar   
     8    4    5 ar   
     9    5   12 1    
    10    5    6 ar   
    11    6    7 1    
    12    7    8 1    
    13    7   36 1    
    14    8    9 1    
    15    8   10 1    
    16    8   24 1    
    17   10   11 1    
    18   10   12 1    
    19   10   13 1    
    20   13   14 2    
    21   13   15 am   BACKBONE|DICT|INTERRES
    22   15   16 1    
    23   15   37 1    
    24   16   21 ar   
    25   16   17 ar   
    26   17   18 ar   
    27   17   38 1    
    28   18   19 ar   
    29   18   39 1    
    30   19   20 ar   
    31   19   22 1    
    32   20   21 ar   
    33   20   40 1    
    34   21   41 1    
    35   22   23 1    
    36   23   42 1    
    37   23   43 1    
    38   23   44 1    
    39   24   29 ar   
    40   24   25 ar   
    41   25   26 ar   
    42   25   45 1    
    43   26   27 ar   
    44   26   46 1    
    45   27   28 ar   
    46   27   31 1    
    47   28   29 ar   
    48   28   30 1    
    49   29   47 1    
    50   31   32 1    
    51   32   48 1    
    52   32   49 1    
    53   32   50 1    
@<TRIPOS>SUBSTRUCTURE
     1 UNK         1 GROUP             0       ****    0 ROOT    
