@<TRIPOS>MOLECULE
ZINC17045028_968
42   45    1
SMALL
USER_CHARGES


@<TRIPOS>ATOM
      1 C1          5.7583   53.3787   15.7254 C.ar      1 UNK         0.0000 
      2 C2          6.0717   53.8258   17.0077 C.ar      1 UNK         0.0000 
      3 C3          5.1126   53.7869   18.0238 C.ar      1 UNK         0.0000 
      4 C4          3.8336   53.2947   17.7364 C.ar      1 UNK         0.0000 
      5 C5          3.5006   52.8392   16.4513 C.ar      1 UNK         0.0000 
      6 C6          4.4824   52.8893   15.4495 C.ar      1 UNK         0.0000 
      7 N7          2.1467   52.3058   16.1630 N.pl3     1 UNK         0.0000 
      8 O8          1.8867   51.9536   15.0152 O.co2     1 UNK         0.0000 
      9 O9          1.3258   52.2566   17.0770 O.co2     1 UNK         0.0000 
     10 C10         5.4561   54.2660   19.3919 C.2       1 UNK         0.0000 
     11 C11         6.5169   54.9857   19.9188 C.2       1 UNK         0.0000 
     12 C12         6.2500   55.1555   21.2760 C.2       1 UNK         0.0000 
     13 C13         5.0560   54.4966   21.5568 C.2       1 UNK         0.0000 
     14 O14         4.5839   53.9765   20.3942 O.3       1 UNK         0.0000 
     15 C15         4.2150   54.3373   22.7400 C.2       1 UNK         0.0000 
     16 C16         4.4835   54.2022   24.0754 C.2       1 UNK         0.0000 
     17 C17         5.8475   54.1532   24.6361 C.2       1 UNK         0.0000 
     18 O18         6.8093   54.1000   23.8774 O.2       1 UNK         0.0000 
     19 N19         5.9860   54.1321   25.9473 N.2       1 UNK         0.0000 
     20 C20         5.0048   54.0433   26.8040 C.2       1 UNK         0.0000 
     21 S21         5.5044   53.9242   28.3951 S.2       1 UNK         0.0000 
     22 N22         3.6725   54.0145   26.3533 N.am      1 UNK         0.0000 
     23 C23         3.3405   54.0964   25.0065 C.2       1 UNK         0.0000 
     24 O24         2.1705   54.0962   24.5989 O.2       1 UNK         0.0000 
     25 C25         2.5758   53.8880   27.2713 C.ar      1 UNK         0.0000 
     26 C26         1.7521   52.7507   27.2732 C.ar      1 UNK         0.0000 
     27 C27         0.7280   52.6131   28.2125 C.ar      1 UNK         0.0000 
     28 C28         0.5190   53.6093   29.1667 C.ar      1 UNK         0.0000 
     29 C29         1.3239   54.7473   29.1671 C.ar      1 UNK         0.0000 
     30 C30         2.3262   54.8936   28.2145 C.ar      1 UNK         0.0000 
     31 Br31        1.1045   56.0971   30.4817 Br        1 UNK         0.0000 
     32 H32         6.5063   53.4073   14.9463 H         1 UNK         0.0000 
     33 H33         7.0657   54.1954   17.2100 H         1 UNK         0.0000 
     34 H34         3.0930   53.2595   18.5241 H         1 UNK         0.0000 
     35 H35         4.2631   52.5376   14.4517 H         1 UNK         0.0000 
     36 H36         7.3745   55.3618   19.3801 H         1 UNK         0.0000 
     37 H37         6.8651   55.6951   21.9807 H         1 UNK         0.0000 
     38 H38         3.1805   54.3249   22.4223 H         1 UNK         0.0000 
     39 H39         1.9043   51.9715   26.5444 H         1 UNK         0.0000 
     40 H40         0.1059   51.7290   28.2099 H         1 UNK         0.0000 
     41 H41        -0.2576   53.4942   29.9085 H         1 UNK         0.0000 
     42 H42         2.9544   55.7654   28.2523 H         1 UNK         0.0000 
@<TRIPOS>BOND
     1    1    6 ar   
     2    1    2 ar   
     3    1   32 1    
     4    2    3 ar   
     5    2   33 1    
     6    3    4 ar   
     7    3   10 1    
     8    4    5 ar   
     9    4   34 1    
    10    5    6 ar   
    11    5    7 1    
    12    6   35 1    
    13    7    8 2    
    14    7    9 1    
    15   10   14 1    
    16   10   11 2    
    17   11   12 1    
    18   11   36 1    
    19   12   13 2    
    20   12   37 1    
    21   13   14 1    
    22   13   15 1    
    23   15   16 2    
    24   15   38 1    
    25   16   23 1    
    26   16   17 1    
    27   17   18 2    
    28   17   19 1    
    29   19   20 1    
    30   20   21 2    
    31   20   22 am   BACKBONE|DICT|INTERRES
    32   22   23 am   BACKBONE|DICT|INTERRES
    33   22   25 1    
    34   23   24 2    
    35   25   30 ar   
    36   25   26 ar   
    37   26   27 ar   
    38   26   39 1    
    39   27   28 ar   
    40   27   40 1    
    41   28   29 ar   
    42   28   41 1    
    43   29   30 ar   
    44   29   31 1    
    45   30   42 1    
@<TRIPOS>SUBSTRUCTURE
     1 UNK         1 GROUP             0       ****    0 ROOT    
