ZINC65074876_305
                    3D
 Schrodinger Suite 2024-2.
 67 70  0  0  1  0            999 V2000
    4.3224   53.3015   20.8686 C   0  0  0  0  0  0
    3.4990   53.9196   22.0154 C   0  0  0  0  0  0
    2.3481   53.0625   22.5532 C   0  0  0  0  0  0
    2.3157   51.6710   22.3931 C   0  0  0  0  0  0
    1.2547   50.9255   22.8978 C   0  0  0  0  0  0
    0.1943   51.5743   23.5321 C   0  0  0  0  0  0
    0.2110   52.9592   23.6810 C   0  0  0  0  0  0
    1.2988   53.6955   23.2241 C   0  0  0  0  0  0
   -1.1978   50.6358   24.1611 S   0  0  0  0  0  0
   -2.4058   51.3793   23.7831 O   0  0  0  0  0  0
   -1.0001   49.2460   23.7320 O   0  0  0  0  0  0
   -1.0306   50.6846   25.9289 N   0  0  0  0  0  0
    0.1915   50.1063   26.5367 C   0  0  0  0  0  0
    1.1294   51.1952   27.1053 C   0  0  0  0  0  0
    0.4681   52.2843   27.9859 C   0  0  0  0  0  0
   -0.7153   52.8294   27.1671 C   0  0  0  0  0  0
   -1.7111   51.7463   26.7104 C   0  0  0  0  0  0
    1.4374   53.4265   28.3490 C   0  0  0  0  0  0
    1.3693   54.1019   29.5053 N   0  3  0  0  0  0
    0.5941   53.6812   30.6679 C   0  0  0  0  0  0
   -0.4302   52.6327   30.2345 C   0  0  0  0  0  0
    0.1353   51.6906   29.2830 N   0  0  0  0  0  0
    2.3562   53.7453   27.4301 N   0  0  0  0  0  0
    3.5149   54.6295   27.5714 C   0  0  0  0  0  0
    4.4547   54.0879   28.6819 C   0  0  0  0  0  0
    5.9037   54.5967   28.6689 C   0  0  0  0  0  0
    6.8547   53.8414   27.7238 C   0  0  0  0  0  0
    6.6015   54.0241   26.2185 C   0  0  0  0  0  0
    5.1612   53.7757   25.7502 C   0  0  0  0  0  0
    4.1575   54.8534   26.1767 C   0  0  0  0  0  0
    5.0609   54.0129   20.4974 H   0  0  0  0  0  0
    3.6852   53.0277   20.0256 H   0  0  0  0  0  0
    4.8672   52.4122   21.1897 H   0  0  0  0  0  0
    4.1610   54.1746   22.8391 H   0  0  0  0  0  0
    3.1039   54.8751   21.6649 H   0  0  0  0  0  0
    3.1132   51.1503   21.8846 H   0  0  0  0  0  0
    1.2544   49.8513   22.7753 H   0  0  0  0  0  0
   -0.6240   53.4690   24.1382 H   0  0  0  0  0  0
    1.3027   54.7694   23.3475 H   0  0  0  0  0  0
   -0.0952   49.3726   27.2817 H   0  0  0  0  0  0
    0.7175   49.5296   25.7741 H   0  0  0  0  0  0
    1.9374   50.7287   27.6724 H   0  0  0  0  0  0
    1.5699   51.6968   26.2435 H   0  0  0  0  0  0
   -0.2799   53.2959   26.2918 H   0  0  0  0  0  0
   -1.2119   53.6390   27.6811 H   0  0  0  0  0  0
   -2.4930   52.1918   26.0971 H   0  0  0  0  0  0
   -2.2149   51.2742   27.5539 H   0  0  0  0  0  0
    1.2920   53.2507   31.3855 H   0  0  0  0  0  0
    0.1183   54.5484   31.1257 H   0  0  0  0  0  0
   -0.8093   52.0855   31.0990 H   0  0  0  0  0  0
   -1.2956   53.1087   29.7943 H   0  0  0  0  0  0
   -0.5133   50.9245   29.1268 H   0  0  0  0  0  0
    2.3150   53.2230   26.5667 H   0  0  0  0  0  0
    3.0890   55.5781   27.8988 H   0  0  0  0  0  0
    4.0253   54.3309   29.6533 H   0  0  0  0  0  0
    4.4830   52.9964   28.6538 H   0  0  0  0  0  0
    5.9040   55.6638   28.4478 H   0  0  0  0  0  0
    6.3000   54.4973   29.6793 H   0  0  0  0  0  0
    7.8748   54.1630   27.9377 H   0  0  0  0  0  0
    6.8273   52.7784   27.9677 H   0  0  0  0  0  0
    6.9213   55.0195   25.9067 H   0  0  0  0  0  0
    7.2397   53.3251   25.6809 H   0  0  0  0  0  0
    5.1706   53.6870   24.6666 H   0  0  0  0  0  0
    4.8127   52.8275   26.1337 H   0  0  0  0  0  0
    3.3754   54.9295   25.4189 H   0  0  0  0  0  0
    4.6648   55.8131   26.1254 H   0  0  0  0  0  0
    2.0297   54.8574   29.6153 H   0  0  0  0  0  0
  1  2  1  0  0  0
  1 31  1  0  0  0
  1 32  1  0  0  0
  1 33  1  0  0  0
  2  3  1  0  0  0
  2 34  1  0  0  0
  2 35  1  0  0  0
  3  8  2  0  0  0
  3  4  1  0  0  0
  4  5  2  0  0  0
  4 36  1  0  0  0
  5  6  1  0  0  0
  5 37  1  0  0  0
  6  7  2  0  0  0
  6  9  1  0  0  0
  7  8  1  0  0  0
  7 38  1  0  0  0
  8 39  1  0  0  0
  9 10  2  0  0  0
  9 11  2  0  0  0
  9 12  1  0  0  0
 12 17  1  0  0  0
 12 13  1  0  0  0
 13 14  1  0  0  0
 13 40  1  0  0  0
 13 41  1  0  0  0
 14 15  1  0  0  0
 14 42  1  0  0  0
 14 43  1  0  0  0
 15 22  1  0  0  0
 15 16  1  0  0  0
 15 18  1  0  0  0
 16 17  1  0  0  0
 16 44  1  0  0  0
 16 45  1  0  0  0
 17 46  1  0  0  0
 17 47  1  0  0  0
 18 19  2  0  0  0
 18 23  1  0  0  0
 19 20  1  0  0  0
 19 67  1  0  0  0
 20 21  1  0  0  0
 20 48  1  0  0  0
 20 49  1  0  0  0
 21 22  1  0  0  0
 21 50  1  0  0  0
 21 51  1  0  0  0
 22 52  1  0  0  0
 23 24  1  0  0  0
 23 53  1  0  0  0
 24 30  1  0  0  0
 24 25  1  0  0  0
 24 54  1  0  0  0
 25 26  1  0  0  0
 25 55  1  0  0  0
 25 56  1  0  0  0
 26 27  1  0  0  0
 26 57  1  0  0  0
 26 58  1  0  0  0
 27 28  1  0  0  0
 27 59  1  0  0  0
 27 60  1  0  0  0
 28 29  1  0  0  0
 28 61  1  0  0  0
 28 62  1  0  0  0
 29 30  1  0  0  0
 29 63  1  0  0  0
 29 64  1  0  0  0
 30 65  1  0  0  0
 30 66  1  0  0  0
M  CHG  1  19   1
M  END
> <i_i_glide_confnum>
336

> <i_i_glide_lignum>
306

> <i_i_glide_posenum>
148

> <i_i_glide_rotatable_bonds>
5

> <i_m_Source_File_Index>
5480

> <b_m_subgroup_collapsed>
0

> <r_i_docking_score>
-4.25644

> <r_i_glide_ecoul>
-0.890283

> <r_i_glide_eff_state_penalty>
0

> <r_i_glide_einternal>
2.97577

> <r_i_glide_emodel>
-34.5619

> <r_i_glide_energy>
-27.1176

> <r_i_glide_erotb>
0.42351

> <r_i_glide_esite>
-0.0631626

> <r_i_glide_evdw>
-26.2273

> <r_i_glide_gscore>
-4.25644

> <r_i_glide_hbond>
0

> <r_i_glide_ligand_efficiency>
-0.141881

> <r_i_glide_ligand_efficiency_ln>
-0.967109

> <r_i_glide_ligand_efficiency_sa>
-0.440858

> <r_i_glide_lipo>
-2.75633

> <r_i_glide_metal>
0

> <r_i_glide_rewards>
-0.415552

> <s_i_glide_gridfile>
wee1_glide-grid

> <s_m_Source_File>
wee1_decoys_glide_SP.sdf

> <s_m_Source_Path>
/Users/zhangxujun/Desktop

> <s_m_entry_id>
5755

> <s_m_entry_name>
wee1_decoys_glide_SP.5480

> <s_m_subgroup_title>
wee1_decoys_glide_SP

> <s_m_subgroupid>
wee1_decoys_glide_SP


$$$$
