@<TRIPOS>MOLECULE
ZINC35909988_3984
70   73    1
SMALL
USER_CHARGES


@<TRIPOS>ATOM
      1 C1          2.8801   52.1162   20.7071 C.3       1 UNK         0.0000 
      2 C2          2.3328   52.5193   22.0915 C.3       1 UNK         0.0000 
      3 H3          1.3794   53.0192   21.9091 H         1 UNK         0.0000 
      4 C4          3.2877   53.4500   22.8808 C.2       1 UNK         0.0000 
      5 O5          4.4286   53.6950   22.4728 O.2       1 UNK         0.0000 
      6 N6          2.7611   53.9394   24.0412 N.am      1 UNK         0.0000 
      7 C7          1.3422   53.7414   24.4159 C.3       1 UNK         0.0000 
      8 C8          0.7937   52.3227   24.6209 C.ar      1 UNK         0.0000 
      9 C9         -0.1626   52.0829   25.6225 C.ar      1 UNK         0.0000 
     10 C10        -0.6541   50.7938   25.8693 C.ar      1 UNK         0.0000 
     11 C11        -0.1639   49.7216   25.1319 C.ar      1 UNK         0.0000 
     12 C12         0.7610   49.9450   24.1191 C.ar      1 UNK         0.0000 
     13 C13         1.2474   51.2254   23.8527 C.ar      1 UNK         0.0000 
     14 O14         2.1429   51.3040   22.8095 O.3       1 UNK         0.0000 
     15 N15        -1.5757   50.4966   26.8812 N.am      1 UNK         0.0000 
     16 C16        -2.6985   51.1625   27.2044 C.2       1 UNK         0.0000 
     17 O17        -3.1031   52.1842   26.6456 O.2       1 UNK         0.0000 
     18 N18        -3.2955   50.5378   28.2386 N.am      1 UNK         0.0000 
     19 C19        -4.4549   50.8917   28.9412 C.ar      1 UNK         0.0000 
     20 C20        -4.5096   50.4966   30.2778 C.ar      1 UNK         0.0000 
     21 C21        -5.6240   50.8034   31.0516 C.ar      1 UNK         0.0000 
     22 C22        -6.7042   51.4907   30.4882 C.ar      1 UNK         0.0000 
     23 C23        -6.6521   51.8763   29.1441 C.ar      1 UNK         0.0000 
     24 C24        -5.5343   51.5760   28.3679 C.ar      1 UNK         0.0000 
     25 C25        -7.9402   51.8121   31.3323 C.3       1 UNK         0.0000 
     26 C26        -8.5680   50.5489   31.9536 C.3       1 UNK         0.0000 
     27 C27        -7.6432   52.8777   32.4027 C.3       1 UNK         0.0000 
     28 C28         3.6328   54.8291   24.8446 C.3       1 UNK         0.0000 
     29 C29         4.3609   54.2199   26.0372 C.ar      1 UNK         0.0000 
     30 C30         5.7512   54.0991   25.9427 C.ar      1 UNK         0.0000 
     31 C31         6.5089   53.7442   27.0518 C.ar      1 UNK         0.0000 
     32 C32         5.8891   53.5416   28.2772 C.ar      1 UNK         0.0000 
     33 C33         4.5027   53.6597   28.3995 C.ar      1 UNK         0.0000 
     34 C34         3.7274   54.0210   27.2799 C.ar      1 UNK         0.0000 
     35 O35         2.3577   54.1580   27.3667 O.3       1 UNK         0.0000 
     36 C36         1.8615   55.0981   28.3165 C.3       1 UNK         0.0000 
     37 O37         3.9181   53.4523   29.6260 O.3       1 UNK         0.0000 
     38 C38         3.8869   52.0943   30.0342 C.3       1 UNK         0.0000 
     39 H39         3.0381   52.9899   20.0736 H         1 UNK         0.0000 
     40 H40         3.8303   51.5857   20.7836 H         1 UNK         0.0000 
     41 H41         2.1821   51.4590   20.1881 H         1 UNK         0.0000 
     42 H42         0.7167   54.2244   23.6637 H         1 UNK         0.0000 
     43 H43         1.1330   54.3002   25.3222 H         1 UNK         0.0000 
     44 H44        -0.5189   52.8963   26.2345 H         1 UNK         0.0000 
     45 H45        -0.5010   48.7148   25.3364 H         1 UNK         0.0000 
     46 H46         1.1272   49.1083   23.5427 H         1 UNK         0.0000 
     47 H47        -1.4403   49.6016   27.3586 H         1 UNK         0.0000 
     48 H48        -2.7783   49.7549   28.6273 H         1 UNK         0.0000 
     49 H49        -3.6858   49.9587   30.7286 H         1 UNK         0.0000 
     50 H50        -5.6412   50.5015   32.0895 H         1 UNK         0.0000 
     51 H51        -7.4811   52.3996   28.6907 H         1 UNK         0.0000 
     52 H52        -5.5178   51.8693   27.3287 H         1 UNK         0.0000 
     53 H53        -8.6970   52.2321   30.6671 H         1 UNK         0.0000 
     54 H54        -8.7715   49.7938   31.1940 H         1 UNK         0.0000 
     55 H55        -9.5143   50.7814   32.4428 H         1 UNK         0.0000 
     56 H56        -7.9162   50.0956   32.7015 H         1 UNK         0.0000 
     57 H57        -7.2834   53.8008   31.9492 H         1 UNK         0.0000 
     58 H58        -8.5426   53.1279   32.9673 H         1 UNK         0.0000 
     59 H59        -6.8928   52.5352   33.1176 H         1 UNK         0.0000 
     60 H60         4.3878   55.2968   24.2098 H         1 UNK         0.0000 
     61 H61         3.1051   55.6967   25.2188 H         1 UNK         0.0000 
     62 H62         6.2527   54.2875   25.0042 H         1 UNK         0.0000 
     63 H63         7.5779   53.6463   26.9663 H         1 UNK         0.0000 
     64 H64         6.4927   53.2974   29.1368 H         1 UNK         0.0000 
     65 H65         0.8361   55.3640   28.0629 H         1 UNK         0.0000 
     66 H66         1.8351   54.6806   29.3222 H         1 UNK         0.0000 
     67 H67         2.4430   56.0193   28.3382 H         1 UNK         0.0000 
     68 H68         3.3168   52.0088   30.9589 H         1 UNK         0.0000 
     69 H69         3.4062   51.4636   29.2833 H         1 UNK         0.0000 
     70 H70         4.8907   51.7101   30.2241 H         1 UNK         0.0000 
@<TRIPOS>BOND
     1    1    2 1    
     2    1   39 1    
     3    1   40 1    
     4    1   41 1    
     5    2    3 1    
     6    2   14 1    
     7    2    4 1    
     8    4    5 2    
     9    4    6 am   BACKBONE|DICT|INTERRES
    10    6    7 1    
    11    6   28 1    
    12    7    8 1    
    13    7   42 1    
    14    7   43 1    
    15    8   13 ar   
    16    8    9 ar   
    17    9   10 ar   
    18    9   44 1    
    19   10   11 ar   
    20   10   15 1    
    21   11   12 ar   
    22   11   45 1    
    23   12   13 ar   
    24   12   46 1    
    25   13   14 1    
    26   15   16 am   BACKBONE|DICT|INTERRES
    27   15   47 1    
    28   16   17 2    
    29   16   18 am   BACKBONE|DICT|INTERRES
    30   18   19 1    
    31   18   48 1    
    32   19   24 ar   
    33   19   20 ar   
    34   20   21 ar   
    35   20   49 1    
    36   21   22 ar   
    37   21   50 1    
    38   22   23 ar   
    39   22   25 1    
    40   23   24 ar   
    41   23   51 1    
    42   24   52 1    
    43   25   26 1    
    44   25   27 1    
    45   25   53 1    
    46   26   54 1    
    47   26   55 1    
    48   26   56 1    
    49   27   57 1    
    50   27   58 1    
    51   27   59 1    
    52   28   29 1    
    53   28   60 1    
    54   28   61 1    
    55   29   34 ar   
    56   29   30 ar   
    57   30   31 ar   
    58   30   62 1    
    59   31   32 ar   
    60   31   63 1    
    61   32   33 ar   
    62   32   64 1    
    63   33   34 ar   
    64   33   37 1    
    65   34   35 1    
    66   35   36 1    
    67   36   65 1    
    68   36   66 1    
    69   36   67 1    
    70   37   38 1    
    71   38   68 1    
    72   38   69 1    
    73   38   70 1    
@<TRIPOS>SUBSTRUCTURE
     1 UNK         1 GROUP             0       ****    0 ROOT    
