@<TRIPOS>MOLECULE
ZINC36220923_3174
64   67    1
SMALL
USER_CHARGES


@<TRIPOS>ATOM
      1 C1          6.4569   55.7137   24.8894 C.3       1 UNK         0.0000 
      2 C2          6.1003   54.3859   25.5766 C.3       1 UNK         0.0000 
      3 C3          6.6010   54.3592   27.0318 C.3       1 UNK         0.0000 
      4 C4          4.5876   54.0647   25.5191 C.3       1 UNK         0.0000 
      5 C5          3.9458   54.0933   24.1045 C.3       1 UNK         0.0000 
      6 N6          2.8680   53.1264   23.8990 N.am      1 UNK         0.0000 
      7 C7          1.7861   52.9618   24.6736 C.2       1 UNK         0.0000 
      8 O8          1.5271   53.6975   25.6140 O.2       1 UNK         0.0000 
      9 C9          0.8759   51.7683   24.3182 C.3       1 UNK         0.0000 
     10 H10         1.5262   50.9060   24.1579 H         1 UNK         0.0000 
     11 C11         0.0718   52.0894   23.0605 C.3       1 UNK         0.0000 
     12 H12         0.3457   53.0572   22.6313 H         1 UNK         0.0000 
     13 O13        -1.2561   52.2246   23.5377 O.3       1 UNK         0.0000 
     14 C14        -1.4204   51.8507   24.8302 C.2       1 UNK         0.0000 
     15 O15        -2.5151   51.8629   25.3854 O.2       1 UNK         0.0000 
     16 N16        -0.1635   51.4779   25.3055 N.am      1 UNK         0.0000 
     17 C17         0.0339   50.8231   26.6124 C.3       1 UNK         0.0000 
     18 C18         0.6319   51.6918   27.7164 C.ar      1 UNK         0.0000 
     19 C19         0.0086   52.8796   28.1134 C.ar      1 UNK         0.0000 
     20 C20         0.5786   53.6759   29.1109 C.ar      1 UNK         0.0000 
     21 C21         1.7683   53.2882   29.7198 C.ar      1 UNK         0.0000 
     22 C22         2.3811   52.0956   29.3490 C.ar      1 UNK         0.0000 
     23 C23         1.8109   51.2982   28.3574 C.ar      1 UNK         0.0000 
     24 F24         3.5162   51.6978   29.9641 F         1 UNK         0.0000 
     25 C25         0.2669   51.0528   21.9532 C.ar      1 UNK         0.0000 
     26 C26         1.2180   51.2808   20.9566 C.ar      1 UNK         0.0000 
     27 C27         1.4685   50.3067   19.9895 C.ar      1 UNK         0.0000 
     28 C28         0.7648   49.0996   20.0035 C.ar      1 UNK         0.0000 
     29 C29        -0.2054   48.8857   20.9964 C.ar      1 UNK         0.0000 
     30 C30        -0.4460   49.8541   21.9664 C.ar      1 UNK         0.0000 
     31 N31         1.0926   48.1729   18.9881 N.am      1 UNK         0.0000 
     32 C32         0.5887   46.9380   18.7501 C.2       1 UNK         0.0000 
     33 O33        -0.2432   46.3600   19.4469 O.2       1 UNK         0.0000 
     34 C34         1.1044   46.3141   17.5573 C.2       1 UNK         0.0000 
     35 C35         2.3051   46.5534   16.8812 C.2       1 UNK         0.0000 
     36 C36         2.4989   45.7173   15.7825 C.2       1 UNK         0.0000 
     37 C37         1.4765   44.7924   15.6275 C.2       1 UNK         0.0000 
     38 S38         0.2647   44.9550   16.8544 S.3       1 UNK         0.0000 
     39 H39         5.8558   56.5314   25.2814 H         1 UNK         0.0000 
     40 H40         7.5041   55.9719   25.0263 H         1 UNK         0.0000 
     41 H41         6.2977   55.6675   23.8133 H         1 UNK         0.0000 
     42 H42         6.6282   53.5946   25.0399 H         1 UNK         0.0000 
     43 H43         6.1332   55.1418   27.6311 H         1 UNK         0.0000 
     44 H44         6.3759   53.4006   27.5071 H         1 UNK         0.0000 
     45 H45         7.6779   54.4960   27.0914 H         1 UNK         0.0000 
     46 H46         4.0387   54.7593   26.1587 H         1 UNK         0.0000 
     47 H47         4.4327   53.0869   25.9786 H         1 UNK         0.0000 
     48 H48         4.7047   53.8381   23.3651 H         1 UNK         0.0000 
     49 H49         3.5929   55.0954   23.8581 H         1 UNK         0.0000 
     50 H50         2.9864   52.4928   23.1253 H         1 UNK         0.0000 
     51 H51         0.6659   49.9477   26.4550 H         1 UNK         0.0000 
     52 H52        -0.9169   50.4364   26.9849 H         1 UNK         0.0000 
     53 H53        -0.9000   53.2002   27.6324 H         1 UNK         0.0000 
     54 H54         0.1091   54.5971   29.4108 H         1 UNK         0.0000 
     55 H55         2.2101   53.9076   30.4816 H         1 UNK         0.0000 
     56 H56         2.3035   50.3802   28.0811 H         1 UNK         0.0000 
     57 H57         1.7809   52.2035   20.9342 H         1 UNK         0.0000 
     58 H58         2.2196   50.4984   19.2346 H         1 UNK         0.0000 
     59 H59        -0.7815   47.9772   21.0559 H         1 UNK         0.0000 
     60 H60        -1.1784   49.6569   22.7357 H         1 UNK         0.0000 
     61 H61         1.7791   48.5030   18.3251 H         1 UNK         0.0000 
     62 H62         3.0355   47.2969   17.1710 H         1 UNK         0.0000 
     63 H63         3.3637   45.7793   15.1426 H         1 UNK         0.0000 
     64 H64         1.3884   44.0270   14.8717 H         1 UNK         0.0000 
@<TRIPOS>BOND
     1    1    2 1    
     2    1   39 1    
     3    1   40 1    
     4    1   41 1    
     5    2    3 1    
     6    2    4 1    
     7    2   42 1    
     8    3   43 1    
     9    3   44 1    
    10    3   45 1    
    11    4    5 1    
    12    4   46 1    
    13    4   47 1    
    14    5    6 1    
    15    5   48 1    
    16    5   49 1    
    17    6    7 am   BACKBONE|DICT|INTERRES
    18    6   50 1    
    19    7    8 2    
    20    7    9 1    
    21    9   10 1    
    22    9   16 1    
    23    9   11 1    
    24   11   12 1    
    25   11   13 1    
    26   11   25 1    
    27   13   14 1    
    28   14   15 2    
    29   14   16 am   BACKBONE|DICT|INTERRES
    30   16   17 1    
    31   17   18 1    
    32   17   51 1    
    33   17   52 1    
    34   18   23 ar   
    35   18   19 ar   
    36   19   20 ar   
    37   19   53 1    
    38   20   21 ar   
    39   20   54 1    
    40   21   22 ar   
    41   21   55 1    
    42   22   23 ar   
    43   22   24 1    
    44   23   56 1    
    45   25   30 ar   
    46   25   26 ar   
    47   26   27 ar   
    48   26   57 1    
    49   27   28 ar   
    50   27   58 1    
    51   28   29 ar   
    52   28   31 1    
    53   29   30 ar   
    54   29   59 1    
    55   30   60 1    
    56   31   32 am   BACKBONE|DICT|INTERRES
    57   31   61 1    
    58   32   33 2    
    59   32   34 1    
    60   34   38 1    
    61   34   35 2    
    62   35   36 1    
    63   35   62 1    
    64   36   37 2    
    65   36   63 1    
    66   37   38 1    
    67   37   64 1    
@<TRIPOS>SUBSTRUCTURE
     1 UNK         1 GROUP             0       ****    0 ROOT    
