ZINC35686400_4947
                    3D
 Schrodinger Suite 2024-2.
 71 74  0  0  1  0            999 V2000
    5.0008   51.2356   13.6908 C   0  0  0  0  0  0
    3.4978   51.6127   13.5535 C   0  0  0  0  0  0
    3.4154   52.5663   12.3324 C   0  0  0  0  0  0
    2.7595   50.2807   13.2641 C   0  0  0  0  0  0
    2.9095   52.2988   14.8328 C   0  0  0  0  0  0
    3.7265   52.5250   15.9523 C   0  0  0  0  0  0
    3.2419   53.1132   17.1185 C   0  0  0  0  0  0
    1.8988   53.4862   17.1719 C   0  0  0  0  0  0
    1.0288   53.3133   16.0849 C   0  0  0  0  0  0
    1.5541   52.7116   14.9155 C   0  0  0  0  0  0
    0.7407   52.5299   13.8276 O   0  0  0  0  0  0
   -0.4574   53.7967   16.1825 C   0  0  0  0  0  0
   -1.4407   52.6169   15.9638 C   0  0  0  0  0  0
   -0.7310   54.9178   15.1485 C   0  0  0  0  0  0
   -0.8206   54.3964   17.5700 C   0  0  0  0  0  0
    4.1544   53.3644   18.2381 C   0  0  0  0  0  0
    3.7884   53.3543   19.4597 N   0  0  0  0  0  0
    4.6471   53.7809   20.5198 N   0  0  0  0  0  0
    5.8376   54.5699   20.2630 C   0  0  0  0  0  0
    6.3029   54.9866   21.6425 C   0  0  0  0  0  0
    7.2678   55.6963   21.9175 O   0  0  0  0  0  0
    5.3201   54.4169   22.5772 C   0  0  0  0  0  0
    4.3591   53.7693   21.8818 C   0  0  0  0  0  0
    3.2280   53.1086   22.2839 N   0  0  0  0  0  0
    5.3909   54.5360   24.0557 C   0  0  0  0  0  0
    4.4603   54.0967   24.8776 N   0  0  0  0  0  0
    4.7410   54.2536   26.1645 C   0  0  0  0  0  0
    5.9538   54.8969   26.4015 C   0  0  0  0  0  0
    6.7045   55.2962   24.8963 S   0  0  0  0  0  0
    3.8055   53.7528   27.2224 C   0  0  0  0  0  0
    4.2874   53.4929   28.5139 C   0  0  0  0  0  0
    3.4294   53.0238   29.5045 C   0  0  0  0  0  0
    2.0815   52.8069   29.2313 C   0  0  0  0  0  0
    1.5947   53.0607   27.9368 C   0  0  0  0  0  0
    2.4494   53.5286   26.9452 C   0  0  0  0  0  0
    1.3088   52.3459   30.2775 O   0  0  0  0  0  0
   -0.0715   52.0729   30.0510 C   0  0  0  0  0  0
    5.3908   50.7798   12.7795 H   0  0  0  0  0  0
    5.1674   50.5075   14.4864 H   0  0  0  0  0  0
    5.6289   52.1054   13.8916 H   0  0  0  0  0  0
    2.3999   52.7990   12.0210 H   0  0  0  0  0  0
    3.9131   53.5148   12.5429 H   0  0  0  0  0  0
    3.9035   52.1364   11.4563 H   0  0  0  0  0  0
    1.7132   50.4078   12.9965 H   0  0  0  0  0  0
    3.2195   49.7373   12.4367 H   0  0  0  0  0  0
    2.7914   49.6231   14.1364 H   0  0  0  0  0  0
    4.7647   52.2265   15.9464 H   0  0  0  0  0  0
    1.5541   53.9496   18.0818 H   0  0  0  0  0  0
    1.2252   52.1192   13.1104 H   0  0  0  0  0  0
   -1.2278   51.7933   16.6461 H   0  0  0  0  0  0
   -2.4757   52.9193   16.1293 H   0  0  0  0  0  0
   -1.4048   52.2187   14.9519 H   0  0  0  0  0  0
   -0.0454   55.7567   15.2803 H   0  0  0  0  0  0
   -0.6312   54.5776   14.1197 H   0  0  0  0  0  0
   -1.7436   55.3113   15.2412 H   0  0  0  0  0  0
   -0.2168   55.2743   17.8097 H   0  0  0  0  0  0
   -1.8612   54.7205   17.6126 H   0  0  0  0  0  0
   -0.6850   53.6650   18.3679 H   0  0  0  0  0  0
    5.1810   53.5704   17.9468 H   0  0  0  0  0  0
    6.6020   54.0007   19.7309 H   0  0  0  0  0  0
    5.5832   55.4573   19.6812 H   0  0  0  0  0  0
    2.9510   53.0757   23.2541 H   0  0  0  0  0  0
    2.6109   52.7091   21.5907 H   0  0  0  0  0  0
    6.4102   55.1571   27.3466 H   0  0  0  0  0  0
    5.3310   53.6372   28.7522 H   0  0  0  0  0  0
    3.8158   52.8237   30.4915 H   0  0  0  0  0  0
    0.5567   52.9032   27.6875 H   0  0  0  0  0  0
    2.0536   53.7188   25.9568 H   0  0  0  0  0  0
   -0.5162   51.6975   30.9715 H   0  0  0  0  0  0
   -0.6148   52.9725   29.7582 H   0  0  0  0  0  0
   -0.2113   51.3033   29.2876 H   0  0  0  0  0  0
  1  2  1  0  0  0
  1 38  1  0  0  0
  1 39  1  0  0  0
  1 40  1  0  0  0
  2  3  1  0  0  0
  2  4  1  0  0  0
  2  5  1  0  0  0
  3 41  1  0  0  0
  3 42  1  0  0  0
  3 43  1  0  0  0
  4 44  1  0  0  0
  4 45  1  0  0  0
  4 46  1  0  0  0
  5 10  2  0  0  0
  5  6  1  0  0  0
  6  7  2  0  0  0
  6 47  1  0  0  0
  7  8  1  0  0  0
  7 16  1  0  0  0
  8  9  2  0  0  0
  8 48  1  0  0  0
  9 10  1  0  0  0
  9 12  1  0  0  0
 10 11  1  0  0  0
 11 49  1  0  0  0
 12 13  1  0  0  0
 12 14  1  0  0  0
 12 15  1  0  0  0
 13 50  1  0  0  0
 13 51  1  0  0  0
 13 52  1  0  0  0
 14 53  1  0  0  0
 14 54  1  0  0  0
 14 55  1  0  0  0
 15 56  1  0  0  0
 15 57  1  0  0  0
 15 58  1  0  0  0
 16 17  2  0  0  0
 16 59  1  0  0  0
 17 18  1  0  0  0
 18 23  1  0  0  0
 18 19  1  0  0  0
 19 20  1  0  0  0
 19 60  1  0  0  0
 19 61  1  0  0  0
 20 21  2  0  0  0
 20 22  1  0  0  0
 22 23  2  0  0  0
 22 25  1  0  0  0
 23 24  1  0  0  0
 24 62  1  0  0  0
 24 63  1  0  0  0
 25 29  1  0  0  0
 25 26  2  0  0  0
 26 27  1  0  0  0
 27 28  2  0  0  0
 27 30  1  0  0  0
 28 29  1  0  0  0
 28 64  1  0  0  0
 30 35  2  0  0  0
 30 31  1  0  0  0
 31 32  2  0  0  0
 31 65  1  0  0  0
 32 33  1  0  0  0
 32 66  1  0  0  0
 33 34  2  0  0  0
 33 36  1  0  0  0
 34 35  1  0  0  0
 34 67  1  0  0  0
 35 68  1  0  0  0
 36 37  1  0  0  0
 37 69  1  0  0  0
 37 70  1  0  0  0
 37 71  1  0  0  0
M  END
> <i_i_glide_confnum>
2

> <i_i_glide_lignum>
4948

> <i_i_glide_posenum>
2

> <i_i_glide_rotatable_bonds>
8

> <i_m_Source_File_Index>
1383

> <b_m_subgroup_collapsed>
0

> <r_i_docking_score>
-5.52141

> <r_i_glide_ecoul>
-1.43916

> <r_i_glide_eff_state_penalty>
0

> <r_i_glide_einternal>
4.72319

> <r_i_glide_emodel>
-61.841

> <r_i_glide_energy>
-47.6134

> <r_i_glide_erotb>
0.305403

> <r_i_glide_esite>
-0.0529429

> <r_i_glide_evdw>
-46.1743

> <r_i_glide_gscore>
-5.52141

> <r_i_glide_hbond>
0

> <r_i_glide_ligand_efficiency>
-0.149227

> <r_i_glide_ligand_efficiency_ln>
-1.19747

> <r_i_glide_ligand_efficiency_sa>
-0.497259

> <r_i_glide_lipo>
-2.68461

> <r_i_glide_metal>
0

> <r_i_glide_rewards>
-0.564683

> <s_i_glide_gridfile>
wee1_glide-grid

> <s_m_Source_File>
wee1_decoys_glide_SP.sdf

> <s_m_Source_Path>
/Users/zhangxujun/Desktop

> <s_m_entry_id>
1658

> <s_m_entry_name>
wee1_decoys_glide_SP.1383

> <s_m_subgroup_title>
wee1_decoys_glide_SP

> <s_m_subgroupid>
wee1_decoys_glide_SP


$$$$
