@<TRIPOS>MOLECULE
ZINC36014002_325
75   77    1
SMALL
USER_CHARGES


@<TRIPOS>ATOM
      1 C1         -2.4356   48.3532   25.5815 C.3       1 UNK         0.0000 
      2 C2         -2.8350   49.2968   24.4269 C.3       1 UNK         0.0000 
      3 N3         -1.7327   49.5273   23.4475 N.am      1 UNK         0.0000 
      4 C4         -0.8815   50.6399   23.4409 C.2       1 UNK         0.0000 
      5 C5          0.2193   50.6821   22.6247 C.2       1 UNK         0.0000 
      6 C6          0.4651   49.5707   21.5802 C.3       1 UNK         0.0000 
      7 H7          1.4252   49.0855   21.7780 H         1 UNK         0.0000 
      8 N8         -0.5192   48.4967   21.7615 N.am      1 UNK         0.0000 
      9 C9         -1.6058   48.4816   22.5595 C.2       1 UNK         0.0000 
     10 O10        -2.4000   47.5549   22.3841 O.2       1 UNK         0.0000 
     11 C11         0.5138   50.0550   20.1259 C.ar      1 UNK         0.0000 
     12 C12        -0.6501   50.5293   19.5079 C.ar      1 UNK         0.0000 
     13 C13        -0.6058   51.0000   18.1988 C.ar      1 UNK         0.0000 
     14 C14         0.6039   51.0018   17.5078 C.ar      1 UNK         0.0000 
     15 C15         1.7667   50.5337   18.1162 C.ar      1 UNK         0.0000 
     16 C16         1.7241   50.0620   19.4242 C.ar      1 UNK         0.0000 
     17 Cl17        0.6605   51.5885   15.8854 Cl        1 UNK         0.0000 
     18 C18         1.2471   51.7561   22.5547 C.2       1 UNK         0.0000 
     19 O19         2.3999   51.5222   22.1804 O.2       1 UNK         0.0000 
     20 O20         0.8286   52.9920   22.8761 O.3       1 UNK         0.0000 
     21 C21         1.7049   54.1134   22.8167 C.3       1 UNK         0.0000 
     22 C22         2.5408   54.2278   24.0902 C.3       1 UNK         0.0000 
     23 C23        -1.2962   51.7496   24.4421 C.3       1 UNK         0.0000 
     24 N24        -1.0039   51.3871   25.9178 N.4       1 UNK         0.0000 
     25 C25        -1.9115   52.1557   26.9108 C.3       1 UNK         0.0000 
     26 C26        -1.8475   51.5812   28.3392 C.3       1 UNK         0.0000 
     27 C27        -0.6858   52.0902   29.2316 C.3       1 UNK         0.0000 
     28 N28         0.6609   52.0430   28.6273 N.am      1 UNK         0.0000 
     29 C29         0.8628   50.9897   27.6187 C.3       1 UNK         0.0000 
     30 C30         0.5182   51.4283   26.1931 C.3       1 UNK         0.0000 
     31 C31         1.5461   53.0594   28.8485 C.2       1 UNK         0.0000 
     32 O32         1.2455   54.0767   29.4762 O.2       1 UNK         0.0000 
     33 N33         2.8347   52.7847   28.5366 N.am      1 UNK         0.0000 
     34 C34         3.9896   53.7008   28.5106 C.3       1 UNK         0.0000 
     35 C35         3.8157   54.7268   27.3834 C.3       1 UNK         0.0000 
     36 C36         5.2633   52.8959   28.1975 C.3       1 UNK         0.0000 
     37 C37         4.2106   54.4291   29.8540 C.3       1 UNK         0.0000 
     38 H38        -3.2199   48.3069   26.3364 H         1 UNK         0.0000 
     39 H39        -2.2859   47.3325   25.2276 H         1 UNK         0.0000 
     40 H40        -1.5178   48.6655   26.0798 H         1 UNK         0.0000 
     41 H41        -3.2428   50.2107   24.8465 H         1 UNK         0.0000 
     42 H42        -3.6981   48.8550   23.9240 H         1 UNK         0.0000 
     43 H43        -0.4715   47.7290   21.1085 H         1 UNK         0.0000 
     44 H44        -1.5877   50.5374   20.0448 H         1 UNK         0.0000 
     45 H45        -1.5039   51.3645   17.7229 H         1 UNK         0.0000 
     46 H46         2.7038   50.5321   17.5788 H         1 UNK         0.0000 
     47 H47         2.6379   49.7131   19.8849 H         1 UNK         0.0000 
     48 H48         2.3451   54.0668   21.9339 H         1 UNK         0.0000 
     49 H49         1.1040   55.0140   22.7139 H         1 UNK         0.0000 
     50 H50         3.2005   55.0930   24.0415 H         1 UNK         0.0000 
     51 H51         1.8954   54.3467   24.9601 H         1 UNK         0.0000 
     52 H52         3.1622   53.3449   24.2392 H         1 UNK         0.0000 
     53 H53        -2.3664   51.9305   24.3454 H         1 UNK         0.0000 
     54 H54        -0.8668   52.7370   24.3310 H         1 UNK         0.0000 
     55 H55        -2.9222   52.0087   26.5238 H         1 UNK         0.0000 
     56 H56        -1.6574   53.2146   26.8499 H         1 UNK         0.0000 
     57 H57        -1.8028   50.4970   28.2728 H         1 UNK         0.0000 
     58 H58        -2.7964   51.7309   28.8533 H         1 UNK         0.0000 
     59 H59        -0.6662   51.4131   30.0880 H         1 UNK         0.0000 
     60 H60        -0.9060   53.0929   29.5977 H         1 UNK         0.0000 
     61 H61         1.9041   50.6715   27.6342 H         1 UNK         0.0000 
     62 H62         0.3058   50.0969   27.8770 H         1 UNK         0.0000 
     63 H63         0.8744   52.4297   25.9483 H         1 UNK         0.0000 
     64 H64         0.9474   50.7255   25.4770 H         1 UNK         0.0000 
     65 H65         3.0407   51.8514   28.2183 H         1 UNK         0.0000 
     66 H66         4.7088   55.3386   27.2827 H         1 UNK         0.0000 
     67 H67         2.9540   55.3738   27.5486 H         1 UNK         0.0000 
     68 H68         3.6789   54.2272   26.4290 H         1 UNK         0.0000 
     69 H69         5.3874   52.0574   28.8797 H         1 UNK         0.0000 
     70 H70         5.2422   52.4968   27.1837 H         1 UNK         0.0000 
     71 H71         6.1630   53.5091   28.2705 H         1 UNK         0.0000 
     72 H72         4.2929   53.7236   30.6808 H         1 UNK         0.0000 
     73 H73         5.1281   55.0186   29.8377 H         1 UNK         0.0000 
     74 H74         3.4020   55.1241   30.0757 H         1 UNK         0.0000 
     75 H75        -1.2868   50.4199   26.0255 H         1 UNK         0.0000 
@<TRIPOS>BOND
     1    1    2 1    
     2    1   38 1    
     3    1   39 1    
     4    1   40 1    
     5    2    3 1    
     6    2   41 1    
     7    2   42 1    
     8    3    9 am   BACKBONE|DICT|INTERRES
     9    3    4 1    
    10    4    5 2    
    11    4   23 1    
    12    5    6 1    
    13    5   18 1    
    14    6    7 1    
    15    6    8 1    
    16    6   11 1    
    17    8    9 am   BACKBONE|DICT|INTERRES
    18    8   43 1    
    19    9   10 2    
    20   11   16 ar   
    21   11   12 ar   
    22   12   13 ar   
    23   12   44 1    
    24   13   14 ar   
    25   13   45 1    
    26   14   15 ar   
    27   14   17 1    
    28   15   16 ar   
    29   15   46 1    
    30   16   47 1    
    31   18   19 2    
    32   18   20 1    
    33   20   21 1    
    34   21   22 1    
    35   21   48 1    
    36   21   49 1    
    37   22   50 1    
    38   22   51 1    
    39   22   52 1    
    40   23   24 1    
    41   23   53 1    
    42   23   54 1    
    43   24   30 1    
    44   24   25 1    
    45   24   75 1    
    46   25   26 1    
    47   25   55 1    
    48   25   56 1    
    49   26   27 1    
    50   26   57 1    
    51   26   58 1    
    52   27   28 1    
    53   27   59 1    
    54   27   60 1    
    55   28   29 1    
    56   28   31 am   BACKBONE|DICT|INTERRES
    57   29   30 1    
    58   29   61 1    
    59   29   62 1    
    60   30   63 1    
    61   30   64 1    
    62   31   32 2    
    63   31   33 am   BACKBONE|DICT|INTERRES
    64   33   34 1    
    65   33   65 1    
    66   34   35 1    
    67   34   36 1    
    68   34   37 1    
    69   35   66 1    
    70   35   67 1    
    71   35   68 1    
    72   36   69 1    
    73   36   70 1    
    74   36   71 1    
    75   37   72 1    
    76   37   73 1    
    77   37   74 1    
@<TRIPOS>SUBSTRUCTURE
     1 UNK         1 GROUP             0       ****    0 ROOT    
