ZINC15835556_1389
                    3D
 Schrodinger Suite 2024-2.
 43 45  0  0  1  0            999 V2000
    6.1330   54.0964   27.9588 C   0  0  0  0  0  0
    5.6648   54.2895   26.5281 C   0  0  0  0  0  0
    6.4238   54.4621   25.3837 C   0  0  0  0  0  0
    5.5818   54.4862   24.2682 C   0  0  0  0  0  0
    4.2748   54.3529   24.7569 C   0  0  0  0  0  0
    4.3257   54.2504   26.1494 N   0  0  0  0  0  0
    3.2157   54.0920   27.0318 C   0  0  0  0  0  0
    2.2461   53.1174   26.7694 C   0  0  0  0  0  0
    1.1669   52.9448   27.6327 C   0  0  0  0  0  0
    1.0444   53.7572   28.7571 C   0  0  0  0  0  0
    1.9971   54.7352   29.0288 C   0  0  0  0  0  0
    3.0852   54.8957   28.1741 C   0  0  0  0  0  0
    2.9622   54.3292   23.9807 C   0  0  0  0  0  0
    5.9921   54.4967   22.8805 C   0  0  0  0  0  0
    5.3455   53.8905   22.0237 O   0  0  0  0  0  0
    7.1044   55.2269   22.6264 N   0  0  0  0  0  0
    7.6266   55.2967   21.3264 N   0  0  0  0  0  0
    7.1377   56.1609   20.4183 C   0  0  0  0  0  0
    6.3046   57.0260   20.6780 O   0  0  0  0  0  0
    7.7367   56.0609   19.1099 C   0  0  0  0  0  0
    8.7673   55.2268   18.6640 C   0  0  0  0  0  0
    9.0982   55.4284   17.3203 C   0  0  0  0  0  0
    8.3362   56.4236   16.7097 C   0  0  0  0  0  0
    7.1931   57.1128   17.8293 S   0  0  0  0  0  0
    8.4285   56.8725   15.3549 N   0  3  0  0  0  0
    9.2652   56.3330   14.6376 O   0  0  0  0  0  0
    7.6769   57.7685   14.9867 O   0  5  0  0  0  0
    7.2081   53.9224   28.0105 H   0  0  0  0  0  0
    5.9273   54.9626   28.5853 H   0  0  0  0  0  0
    5.6585   53.2338   28.4292 H   0  0  0  0  0  0
    7.5033   54.4963   25.3521 H   0  0  0  0  0  0
    2.3267   52.4801   25.9028 H   0  0  0  0  0  0
    0.4267   52.1836   27.4296 H   0  0  0  0  0  0
    0.2019   53.6260   29.4220 H   0  0  0  0  0  0
    1.8917   55.3664   29.8996 H   0  0  0  0  0  0
    3.8107   55.6583   28.4082 H   0  0  0  0  0  0
    3.0608   54.8172   23.0102 H   0  0  0  0  0  0
    2.6263   53.3126   23.7806 H   0  0  0  0  0  0
    2.1559   54.8538   24.4891 H   0  0  0  0  0  0
    7.6725   55.6957   23.3169 H   0  0  0  0  0  0
    8.3070   54.5796   21.1267 H   0  0  0  0  0  0
    9.2750   54.4986   19.2804 H   0  0  0  0  0  0
    9.8704   54.8697   16.8090 H   0  0  0  0  0  0
  1  2  1  0  0  0
  1 28  1  0  0  0
  1 29  1  0  0  0
  1 30  1  0  0  0
  2  6  1  0  0  0
  2  3  2  0  0  0
  3  4  1  0  0  0
  3 31  1  0  0  0
  4  5  2  0  0  0
  4 14  1  0  0  0
  5  6  1  0  0  0
  5 13  1  0  0  0
  6  7  1  0  0  0
  7 12  2  0  0  0
  7  8  1  0  0  0
  8  9  2  0  0  0
  8 32  1  0  0  0
  9 10  1  0  0  0
  9 33  1  0  0  0
 10 11  2  0  0  0
 10 34  1  0  0  0
 11 12  1  0  0  0
 11 35  1  0  0  0
 12 36  1  0  0  0
 13 37  1  0  0  0
 13 38  1  0  0  0
 13 39  1  0  0  0
 14 15  2  0  0  0
 14 16  1  0  0  0
 16 17  1  0  0  0
 16 40  1  0  0  0
 17 18  1  0  0  0
 17 41  1  0  0  0
 18 19  2  0  0  0
 18 20  1  0  0  0
 20 24  1  0  0  0
 20 21  2  0  0  0
 21 22  1  0  0  0
 21 42  1  0  0  0
 22 23  2  0  0  0
 22 43  1  0  0  0
 23 24  1  0  0  0
 23 25  1  0  0  0
 25 26  2  0  0  0
 25 27  1  0  0  0
M  CHG  2  25   1  27  -1
M  END
> <i_i_glide_confnum>
24

> <i_i_glide_lignum>
1390

> <i_i_glide_posenum>
154

> <i_i_glide_rotatable_bonds>
7

> <i_m_Source_File_Index>
4830

> <b_m_subgroup_collapsed>
0

> <r_i_docking_score>
-6.80485

> <r_i_glide_ecoul>
-3.02152

> <r_i_glide_eff_state_penalty>
0

> <r_i_glide_einternal>
1.16315

> <r_i_glide_emodel>
-65.6839

> <r_i_glide_energy>
-43.8741

> <r_i_glide_erotb>
0.789422

> <r_i_glide_esite>
0

> <r_i_glide_evdw>
-40.8526

> <r_i_glide_gscore>
-6.80485

> <r_i_glide_hbond>
-0.403357

> <r_i_glide_ligand_efficiency>
-0.252031

> <r_i_glide_ligand_efficiency_ln>
-1.58406

> <r_i_glide_ligand_efficiency_sa>
-0.756094

> <r_i_glide_lipo>
-3.17698

> <r_i_glide_metal>
0

> <r_i_glide_rewards>
-1.51807

> <s_i_glide_gridfile>
wee1_glide-grid

> <s_m_Source_File>
wee1_decoys_glide_SP.sdf

> <s_m_Source_Path>
/Users/zhangxujun/Desktop

> <s_m_entry_id>
5105

> <s_m_entry_name>
wee1_decoys_glide_SP.4830

> <s_m_subgroup_title>
wee1_decoys_glide_SP

> <s_m_subgroupid>
wee1_decoys_glide_SP


$$$$
