ZINC02727077_4527
                    3D
 Schrodinger Suite 2024-2.
 52 55  0  0  1  0            999 V2000
    1.1682   43.8263   13.9429 C   0  0  0  0  0  0
    1.2441   44.7448   15.1488 C   0  0  0  0  0  0
    0.3337   44.5992   16.1937 C   0  0  0  0  0  0
    0.4135   45.4338   17.3048 C   0  0  0  0  0  0
    1.4074   46.4206   17.3870 C   0  0  0  0  0  0
    2.3172   46.5551   16.3273 C   0  0  0  0  0  0
    2.2364   45.7202   15.2188 C   0  0  0  0  0  0
    1.5035   47.2873   18.6249 C   0  0  0  0  0  0
    0.9813   46.9159   19.6797 O   0  0  0  0  0  0
    2.1405   48.4677   18.4761 N   0  0  0  0  0  0
    2.3040   49.2858   19.5846 N   0  0  0  0  0  0
    1.6505   50.4773   19.7204 C   0  0  0  0  0  0
    0.1516   50.8368   19.0177 S   0  0  0  0  0  0
    2.3817   51.3280   20.5061 N   0  0  0  0  0  0
    2.0087   52.3538   21.3050 C   0  0  0  0  0  0
    0.8627   52.5472   21.7249 O   0  0  0  0  0  0
    3.1636   53.1735   21.8185 C   0  0  0  0  0  0
    3.2512   53.3807   23.1960 C   0  0  0  0  0  0
    4.3585   54.0262   23.7509 C   0  0  0  0  0  0
    5.3671   54.4966   22.9722 N   0  0  0  0  0  0
    5.2780   54.3957   21.6195 C   0  0  0  0  0  0
    4.1917   53.7239   20.9753 C   0  0  0  0  0  0
    4.1966   53.6663   19.5493 C   0  0  0  0  0  0
    5.2282   54.2451   18.8152 C   0  0  0  0  0  0
    6.2710   54.9012   19.4563 C   0  0  0  0  0  0
    6.3042   54.9866   20.8452 C   0  0  0  0  0  0
    4.5214   54.1756   25.2326 C   0  0  0  0  0  0
    5.7844   54.3918   25.8122 C   0  0  0  0  0  0
    5.9226   54.5443   27.1886 C   0  0  0  0  0  0
    4.7917   54.4968   27.9968 C   0  0  0  0  0  0
    3.5359   54.2623   27.4527 C   0  0  0  0  0  0
    3.4058   54.1006   26.0809 C   0  0  0  0  0  0
    4.9293   54.8021   29.6816 Cl  0  0  0  0  0  0
    2.1539   43.6701   13.4995 H   0  0  0  0  0  0
    0.7939   42.8400   14.2234 H   0  0  0  0  0  0
    0.5063   44.2474   13.1842 H   0  0  0  0  0  0
   -0.4377   43.8448   16.1465 H   0  0  0  0  0  0
   -0.3002   45.3043   18.1061 H   0  0  0  0  0  0
    3.1044   47.2966   16.3482 H   0  0  0  0  0  0
    2.9522   45.8395   14.4205 H   0  0  0  0  0  0
    2.8703   48.6227   17.7856 H   0  0  0  0  0  0
    3.2353   49.1817   19.9646 H   0  0  0  0  0  0
    3.3802   51.2529   20.3832 H   0  0  0  0  0  0
    2.4862   52.9660   23.8308 H   0  0  0  0  0  0
    3.3863   53.1921   19.0169 H   0  0  0  0  0  0
    5.2111   54.1907   17.7390 H   0  0  0  0  0  0
    7.0592   55.3489   18.8707 H   0  0  0  0  0  0
    7.1229   55.4905   21.3383 H   0  0  0  0  0  0
    6.6702   54.4396   25.1965 H   0  0  0  0  0  0
    6.8924   54.7251   27.6262 H   0  0  0  0  0  0
    2.6625   54.2326   28.0877 H   0  0  0  0  0  0
    2.4113   53.9570   25.6896 H   0  0  0  0  0  0
  1  2  1  0  0  0
  1 34  1  0  0  0
  1 35  1  0  0  0
  1 36  1  0  0  0
  2  7  2  0  0  0
  2  3  1  0  0  0
  3  4  2  0  0  0
  3 37  1  0  0  0
  4  5  1  0  0  0
  4 38  1  0  0  0
  5  6  2  0  0  0
  5  8  1  0  0  0
  6  7  1  0  0  0
  6 39  1  0  0  0
  7 40  1  0  0  0
  8  9  2  0  0  0
  8 10  1  0  0  0
 10 11  1  0  0  0
 10 41  1  0  0  0
 11 12  1  0  0  0
 11 42  1  0  0  0
 12 13  2  0  0  0
 12 14  1  0  0  0
 14 15  1  0  0  0
 14 43  1  0  0  0
 15 16  2  0  0  0
 15 17  1  0  0  0
 17 22  2  0  0  0
 17 18  1  0  0  0
 18 19  2  0  0  0
 18 44  1  0  0  0
 19 20  1  0  0  0
 19 27  1  0  0  0
 20 21  2  0  0  0
 21 26  1  0  0  0
 21 22  1  0  0  0
 22 23  1  0  0  0
 23 24  2  0  0  0
 23 45  1  0  0  0
 24 25  1  0  0  0
 24 46  1  0  0  0
 25 26  2  0  0  0
 25 47  1  0  0  0
 26 48  1  0  0  0
 27 32  2  0  0  0
 27 28  1  0  0  0
 28 29  2  0  0  0
 28 49  1  0  0  0
 29 30  1  0  0  0
 29 50  1  0  0  0
 30 31  2  0  0  0
 30 33  1  0  0  0
 31 32  1  0  0  0
 31 51  1  0  0  0
 32 52  1  0  0  0
M  END
> <i_i_glide_confnum>
173

> <i_i_glide_lignum>
4528

> <i_i_glide_posenum>
226

> <i_i_glide_rotatable_bonds>
8

> <i_m_Source_File_Index>
3912

> <b_m_subgroup_collapsed>
0

> <r_i_docking_score>
-5.45109

> <r_i_glide_ecoul>
-5.77602

> <r_i_glide_eff_state_penalty>
0

> <r_i_glide_einternal>
8.00062

> <r_i_glide_emodel>
-60.6378

> <r_i_glide_energy>
-46.1621

> <r_i_glide_erotb>
0.717723

> <r_i_glide_esite>
-0.255463

> <r_i_glide_evdw>
-40.3861

> <r_i_glide_gscore>
-5.45109

> <r_i_glide_hbond>
-0.34761

> <r_i_glide_ligand_efficiency>
-0.165184

> <r_i_glide_ligand_efficiency_ln>
-1.21229

> <r_i_glide_ligand_efficiency_sa>
-0.529835

> <r_i_glide_lipo>
-2.49193

> <r_i_glide_metal>
0

> <r_i_glide_rewards>
-0.1881

> <s_i_glide_gridfile>
wee1_glide-grid

> <s_m_Source_File>
wee1_decoys_glide_SP.sdf

> <s_m_Source_Path>
/Users/zhangxujun/Desktop

> <s_m_entry_id>
4187

> <s_m_entry_name>
wee1_decoys_glide_SP.3912

> <s_m_subgroup_title>
wee1_decoys_glide_SP

> <s_m_subgroupid>
wee1_decoys_glide_SP


$$$$
