@<TRIPOS>MOLECULE
ZINC09331020_263
50   54    1
SMALL
USER_CHARGES


@<TRIPOS>ATOM
      1 C1          1.4411   52.9194   29.6588 C.3       1 UNK         0.0000 
      2 C2          0.4258   51.8437   29.2274 C.3       1 UNK         0.0000 
      3 C3         -0.6952   51.7586   30.2688 C.3       1 UNK         0.0000 
      4 C4         -0.1625   52.0461   27.8040 C.3       1 UNK         0.0000 
      5 H5         -0.7950   52.9374   27.7833 H         1 UNK         0.0000 
      6 C6          0.8420   52.0828   26.6528 C.3       1 UNK         0.0000 
      7 H7          1.5044   51.2388   26.8432 H         1 UNK         0.0000 
      8 C8         -0.0176   51.9774   25.4720 C.3       1 UNK         0.0000 
      9 H9         -0.7129   52.8149   25.3398 H         1 UNK         0.0000 
     10 C10         1.0089   52.1381   24.3687 C.2       1 UNK         0.0000 
     11 O11         0.9508   51.5860   23.2705 O.2       1 UNK         0.0000 
     12 N12         1.9369   53.0325   24.8684 N.am      1 UNK         0.0000 
     13 C13         1.7285   53.2352   26.2181 C.2       1 UNK         0.0000 
     14 O14         2.1957   54.0965   26.9602 O.2       1 UNK         0.0000 
     15 C15         3.0170   53.6082   24.1106 C.ar      1 UNK         0.0000 
     16 C16         4.2035   54.0353   24.7439 C.ar      1 UNK         0.0000 
     17 C17         5.3003   54.4657   24.0041 C.ar      1 UNK         0.0000 
     18 C18         5.2275   54.4965   22.6168 C.ar      1 UNK         0.0000 
     19 C19         4.0580   54.1199   21.9654 C.ar      1 UNK         0.0000 
     20 C20         2.9588   53.6948   22.7054 C.ar      1 UNK         0.0000 
     21 Br21        6.7081   55.1519   21.6170 Br        1 UNK         0.0000 
     22 C22        -0.9105   50.7509   25.7456 C.3       1 UNK         0.0000 
     23 C23        -2.1836   50.6292   24.9644 C.ar      1 UNK         0.0000 
     24 C24        -3.2792   51.4851   24.8272 C.ar      1 UNK         0.0000 
     25 C25        -4.3217   51.1298   23.9671 C.ar      1 UNK         0.0000 
     26 C26        -4.2606   49.9356   23.2415 C.ar      1 UNK         0.0000 
     27 C27        -3.1601   49.0851   23.3776 C.ar      1 UNK         0.0000 
     28 C28        -2.1311   49.4484   24.2455 C.ar      1 UNK         0.0000 
     29 N29        -0.9756   48.7538   24.5760 N.am      1 UNK         0.0000 
     30 C30        -0.2386   49.3772   25.5100 C.2       1 UNK         0.0000 
     31 O31         0.7618   48.9458   26.0743 O.2       1 UNK         0.0000 
     32 H32         1.0511   53.9273   29.5110 H         1 UNK         0.0000 
     33 H33         1.7046   52.8206   30.7126 H         1 UNK         0.0000 
     34 H34         2.3756   52.8273   29.1067 H         1 UNK         0.0000 
     35 H35         0.9608   50.8967   29.2408 H         1 UNK         0.0000 
     36 H36        -1.2954   52.6610   30.2269 H         1 UNK         0.0000 
     37 H37        -1.3481   50.8972   30.1182 H         1 UNK         0.0000 
     38 H38        -0.3003   51.6967   31.2817 H         1 UNK         0.0000 
     39 H39         4.3274   53.9822   25.8146 H         1 UNK         0.0000 
     40 H40         6.2073   54.7704   24.5051 H         1 UNK         0.0000 
     41 H41         3.9930   54.1718   20.8879 H         1 UNK         0.0000 
     42 H42         2.0710   53.4233   22.1541 H         1 UNK         0.0000 
     43 H43        -3.3317   52.4179   25.3693 H         1 UNK         0.0000 
     44 H44        -5.1761   51.7820   23.8568 H         1 UNK         0.0000 
     45 H45        -5.0691   49.6686   22.5764 H         1 UNK         0.0000 
     46 H46        -3.1248   48.1608   22.8203 H         1 UNK         0.0000 
     47 H47        -0.7512   47.8253   24.2564 H         1 UNK         0.0000 
     48 N48        -1.0923   50.8968   27.2826 N.4       1 UNK         0.0000 
     49 H49        -2.0600   51.0706   27.5104 H         1 UNK         0.0000 
     50 H50        -0.8957   49.9921   27.7142 H         1 UNK         0.0000 
@<TRIPOS>BOND
     1    1    2 1    
     2    1   32 1    
     3    1   33 1    
     4    1   34 1    
     5    2    3 1    
     6    2    4 1    
     7    2   35 1    
     8    3   36 1    
     9    3   37 1    
    10    3   38 1    
    11    4    5 1    
    12    4    6 1    
    13    4   48 1    
    14    6    7 1    
    15    6   13 1    
    16    6    8 1    
    17    8    9 1    
    18    8   10 1    
    19    8   22 1    
    20   10   11 2    
    21   10   12 am   BACKBONE|DICT|INTERRES
    22   12   13 am   BACKBONE|DICT|INTERRES
    23   12   15 1    
    24   13   14 2    
    25   15   20 ar   
    26   15   16 ar   
    27   16   17 ar   
    28   16   39 1    
    29   17   18 ar   
    30   17   40 1    
    31   18   19 ar   
    32   18   21 1    
    33   19   20 ar   
    34   19   41 1    
    35   20   42 1    
    36   22   30 1    
    37   22   23 1    
    38   22   48 1    
    39   23   28 ar   
    40   23   24 ar   
    41   24   25 ar   
    42   24   43 1    
    43   25   26 ar   
    44   25   44 1    
    45   26   27 ar   
    46   26   45 1    
    47   27   28 ar   
    48   27   46 1    
    49   28   29 1    
    50   29   30 am   BACKBONE|DICT|INTERRES
    51   29   47 1    
    52   30   31 2    
    53   48   49 1    
    54   48   50 1    
@<TRIPOS>SUBSTRUCTURE
     1 UNK         1 GROUP             0       ****    0 ROOT    
