@<TRIPOS>MOLECULE
ZINC16517861_3236
62   65    1
SMALL
USER_CHARGES


@<TRIPOS>ATOM
      1 C1         -2.4013   56.0636   14.3365 C.3       1 UNK         0.0000 
      2 C2         -2.0365   55.0780   15.4315 C.ar      1 UNK         0.0000 
      3 C3         -3.0332   54.3572   16.0872 C.ar      1 UNK         0.0000 
      4 C4         -2.6982   53.4443   17.0851 C.ar      1 UNK         0.0000 
      5 C5         -1.3562   53.2411   17.4538 C.ar      1 UNK         0.0000 
      6 C6         -0.3490   53.9487   16.7670 C.ar      1 UNK         0.0000 
      7 C7         -0.6996   54.8625   15.7671 C.ar      1 UNK         0.0000 
      8 C8          1.1316   53.7462   17.0745 C.3       1 UNK         0.0000 
      9 N9         -0.9623   52.3576   18.4849 N.am      1 UNK         0.0000 
     10 C10        -1.6895   51.8779   19.5174 C.2       1 UNK         0.0000 
     11 O11        -2.8932   52.0962   19.6810 O.2       1 UNK         0.0000 
     12 N12        -0.8996   51.2084   20.3864 N.am      1 UNK         0.0000 
     13 C13        -1.2705   50.6277   21.5535 C.2       1 UNK         0.0000 
     14 O14        -2.4347   50.3540   21.8645 O.2       1 UNK         0.0000 
     15 C15        -0.1018   50.2877   22.5124 C.3       1 UNK         0.0000 
     16 N16        -0.4646   50.3637   23.9454 N.3       1 UNK         0.0000 
     17 C17         0.6837   49.8962   24.7571 C.3       1 UNK         0.0000 
     18 C18         0.3224   49.9082   26.2601 C.3       1 UNK         0.0000 
     19 N19        -0.0735   51.2716   26.6504 N.pl3     1 UNK         0.0000 
     20 C20        -1.2173   51.7933   25.8772 C.3       1 UNK         0.0000 
     21 C21        -0.9300   51.7141   24.3533 C.3       1 UNK         0.0000 
     22 S22         0.7759   52.2191   27.8990 S.o2      1 UNK         0.0000 
     23 O23        -0.0955   53.3180   28.3267 O.2       1 UNK         0.0000 
     24 O24         1.3784   51.2968   28.8694 O.2       1 UNK         0.0000 
     25 C25         2.1530   53.0182   27.0788 C.ar      1 UNK         0.0000 
     26 C26         2.0076   53.5269   25.7919 C.ar      1 UNK         0.0000 
     27 C27         3.0829   54.0965   25.1202 C.ar      1 UNK         0.0000 
     28 C28         4.3354   54.2216   25.7621 C.ar      1 UNK         0.0000 
     29 C29         5.4510   54.7909   25.1039 C.ar      1 UNK         0.0000 
     30 C30         6.6667   54.9145   25.7657 C.ar      1 UNK         0.0000 
     31 C31         6.7961   54.4938   27.0863 C.ar      1 UNK         0.0000 
     32 C32         5.7237   53.9176   27.7592 C.ar      1 UNK         0.0000 
     33 C33         4.4762   53.7639   27.1082 C.ar      1 UNK         0.0000 
     34 C34         3.3676   53.1603   27.7508 C.ar      1 UNK         0.0000 
     35 H35        -3.3022   55.7460   13.8098 H         1 UNK         0.0000 
     36 H36        -1.6096   56.1290   13.5887 H         1 UNK         0.0000 
     37 H37        -2.5715   57.0561   14.7551 H         1 UNK         0.0000 
     38 H38        -4.0713   54.4992   15.8233 H         1 UNK         0.0000 
     39 H39        -3.5040   52.8965   17.5467 H         1 UNK         0.0000 
     40 H40         0.0722   55.4105   15.2453 H         1 UNK         0.0000 
     41 H41         1.3919   52.6886   17.0166 H         1 UNK         0.0000 
     42 H42         1.7787   54.2781   16.3754 H         1 UNK         0.0000 
     43 H43         1.3616   54.0899   18.0816 H         1 UNK         0.0000 
     44 H44         0.0255   52.1540   18.4865 H         1 UNK         0.0000 
     45 H45         0.0897   51.2230   20.1956 H         1 UNK         0.0000 
     46 H46         0.2046   49.2678   22.2724 H         1 UNK         0.0000 
     47 H47         0.7573   50.9308   22.3060 H         1 UNK         0.0000 
     48 H48         1.0106   48.8974   24.4627 H         1 UNK         0.0000 
     49 H49         1.4859   50.6155   24.5773 H         1 UNK         0.0000 
     50 H50         1.1757   49.6104   26.8688 H         1 UNK         0.0000 
     51 H51        -0.4880   49.2115   26.4818 H         1 UNK         0.0000 
     52 H52        -1.4090   52.8236   26.1764 H         1 UNK         0.0000 
     53 H53        -2.1008   51.2064   26.1328 H         1 UNK         0.0000 
     54 H54        -0.0838   52.3523   24.1142 H         1 UNK         0.0000 
     55 H55        -1.8141   52.0333   23.8010 H         1 UNK         0.0000 
     56 H56         1.0528   53.4901   25.3031 H         1 UNK         0.0000 
     57 H57         2.9603   54.4651   24.1116 H         1 UNK         0.0000 
     58 H58         5.3544   55.1257   24.0816 H         1 UNK         0.0000 
     59 H59         7.5041   55.3446   25.2378 H         1 UNK         0.0000 
     60 H60         7.7392   54.6024   27.6013 H         1 UNK         0.0000 
     61 H61         5.8425   53.5820   28.7795 H         1 UNK         0.0000 
     62 H62         3.4796   52.7947   28.7615 H         1 UNK         0.0000 
@<TRIPOS>BOND
     1    1    2 1    
     2    1   35 1    
     3    1   36 1    
     4    1   37 1    
     5    2    7 ar   
     6    2    3 ar   
     7    3    4 ar   
     8    3   38 1    
     9    4    5 ar   
    10    4   39 1    
    11    5    6 ar   
    12    5    9 1    
    13    6    7 ar   
    14    6    8 1    
    15    7   40 1    
    16    8   41 1    
    17    8   42 1    
    18    8   43 1    
    19    9   10 am   BACKBONE|DICT|INTERRES
    20    9   44 1    
    21   10   11 2    
    22   10   12 am   BACKBONE|DICT|INTERRES
    23   12   13 am   BACKBONE|DICT|INTERRES
    24   12   45 1    
    25   13   14 2    
    26   13   15 1    
    27   15   16 1    
    28   15   46 1    
    29   15   47 1    
    30   16   21 1    
    31   16   17 1    
    32   17   18 1    
    33   17   48 1    
    34   17   49 1    
    35   18   19 1    
    36   18   50 1    
    37   18   51 1    
    38   19   20 1    
    39   19   22 1    
    40   20   21 1    
    41   20   52 1    
    42   20   53 1    
    43   21   54 1    
    44   21   55 1    
    45   22   23 2    
    46   22   24 2    
    47   22   25 1    
    48   25   34 ar   
    49   25   26 ar   
    50   26   27 ar   
    51   26   56 1    
    52   27   28 ar   
    53   27   57 1    
    54   28   33 ar   
    55   28   29 ar   
    56   29   30 ar   
    57   29   58 1    
    58   30   31 ar   
    59   30   59 1    
    60   31   32 ar   
    61   31   60 1    
    62   32   33 ar   
    63   32   61 1    
    64   33   34 ar   
    65   34   62 1    
@<TRIPOS>SUBSTRUCTURE
     1 UNK         1 GROUP             0       ****    0 ROOT    
