@<TRIPOS>MOLECULE
ZINC39467574_776
60   64    1
SMALL
USER_CHARGES


@<TRIPOS>ATOM
      1 C1          0.0942   53.2954   31.7185 C.3       1 UNK         0.0000 
      2 S2          0.6216   54.2845   30.3046 S.3       1 UNK         0.0000 
      3 C3          0.5684   53.1326   28.9350 C.2       1 UNK         0.0000 
      4 C4         -0.4841   52.2959   28.7493 C.2       1 UNK         0.0000 
      5 C5         -0.5632   51.2893   27.5967 C.3       1 UNK         0.0000 
      6 H6         -0.0967   50.3988   28.0184 H         1 UNK         0.0000 
      7 C7         -1.9623   50.8572   27.1049 C.3       1 UNK         0.0000 
      8 N8         -1.8006   49.6980   26.0813 N.4       1 UNK         0.0000 
      9 C9         -0.8452   50.0158   24.8922 C.3       1 UNK         0.0000 
     10 H10        -1.3704   50.7894   24.3291 H         1 UNK         0.0000 
     11 C11         0.5039   50.5423   25.4394 C.3       1 UNK         0.0000 
     12 C12         0.2808   51.7462   26.3740 C.3       1 UNK         0.0000 
     13 H13        -0.2851   52.4952   25.8137 H         1 UNK         0.0000 
     14 C14         1.5443   52.4948   26.7858 C.2       1 UNK         0.0000 
     15 C15         1.6752   53.1108   27.9783 C.2       1 UNK         0.0000 
     16 S16         3.2640   53.8554   28.4572 S.3       1 UNK         0.0000 
     17 O17         3.1387   55.2965   28.2528 O.2       1 UNK         0.0000 
     18 O18         3.6622   53.3110   29.7620 O.2       1 UNK         0.0000 
     19 O19         4.2864   53.2068   27.3017 O.3       1 UNK         0.0000 
     20 C20         4.8829   53.9981   26.3517 C.ar      1 UNK         0.0000 
     21 C21         4.4889   53.8833   25.0162 C.ar      1 UNK         0.0000 
     22 C22         5.2222   54.4968   24.0105 C.ar      1 UNK         0.0000 
     23 C23         6.3108   55.2931   24.3499 C.ar      1 UNK         0.0000 
     24 C24         6.6763   55.4633   25.6811 C.ar      1 UNK         0.0000 
     25 C25         5.9751   54.8003   26.6873 C.ar      1 UNK         0.0000 
     26 C26        -0.6697   48.7418   24.0244 C.3       1 UNK         0.0000 
     27 O27        -1.9229   48.2460   23.5733 O.3       1 UNK         0.0000 
     28 P28        -3.0200   47.7501   24.6737 P.3       1 UNK         0.0000 
     29 O29        -2.6634   46.4645   25.3343 O.2       1 UNK         0.0000 
     30 N30        -3.0699   49.1262   25.6517 N.pl3     1 UNK         0.0000 
     31 C31        -4.6139   47.7043   23.8151 C.ar      1 UNK         0.0000 
     32 C32        -4.8460   48.6087   22.7738 C.ar      1 UNK         0.0000 
     33 C33        -6.0684   48.6057   22.1015 C.ar      1 UNK         0.0000 
     34 C34        -7.0636   47.7006   22.4680 C.ar      1 UNK         0.0000 
     35 C35        -6.8361   46.7974   23.5062 C.ar      1 UNK         0.0000 
     36 C36        -5.6161   46.7962   24.1822 C.ar      1 UNK         0.0000 
     37 O37        -5.4251   45.9010   25.2026 O.3       1 UNK         0.0000 
     38 H38         0.0537   53.9004   32.6236 H         1 UNK         0.0000 
     39 H39        -0.8956   52.8968   31.5365 H         1 UNK         0.0000 
     40 H40         0.7741   52.4610   31.8901 H         1 UNK         0.0000 
     41 H41        -1.2965   52.3163   29.4578 H         1 UNK         0.0000 
     42 H42        -2.5644   50.4594   27.9228 H         1 UNK         0.0000 
     43 H43        -2.5223   51.6599   26.6245 H         1 UNK         0.0000 
     44 H44         0.9961   49.7354   25.9888 H         1 UNK         0.0000 
     45 H45         1.1539   50.8219   24.6077 H         1 UNK         0.0000 
     46 H46         2.3760   52.4860   26.1098 H         1 UNK         0.0000 
     47 H47         3.6653   53.2573   24.7243 H         1 UNK         0.0000 
     48 H48         4.9406   54.3694   22.9754 H         1 UNK         0.0000 
     49 H49         6.8770   55.7871   23.5736 H         1 UNK         0.0000 
     50 H50         7.5034   56.1103   25.9150 H         1 UNK         0.0000 
     51 H51         6.2837   54.8921   27.7191 H         1 UNK         0.0000 
     52 H52        -0.0550   48.9597   23.1496 H         1 UNK         0.0000 
     53 H53        -0.1486   47.9559   24.5790 H         1 UNK         0.0000 
     54 H54        -3.7927   49.1211   26.3723 H         1 UNK         0.0000 
     55 H55        -4.0828   49.3158   22.4839 H         1 UNK         0.0000 
     56 H56        -6.2441   49.3053   21.2965 H         1 UNK         0.0000 
     57 H57        -8.0112   47.6973   21.9490 H         1 UNK         0.0000 
     58 H58        -7.6082   46.0982   23.7912 H         1 UNK         0.0000 
     59 H59        -4.5571   46.0119   25.6036 H         1 UNK         0.0000 
     60 H60        -1.3668   48.9502   26.6108 H         1 UNK         0.0000 
@<TRIPOS>BOND
     1    1    2 1    
     2    1   38 1    
     3    1   39 1    
     4    1   40 1    
     5    2    3 1    
     6    3   15 1    
     7    3    4 2    
     8    4    5 1    
     9    4   41 1    
    10    5    6 1    
    11    5   12 1    
    12    5    7 1    
    13    7    8 1    
    14    7   42 1    
    15    7   43 1    
    16    8   30 1    
    17    8    9 1    
    18    8   60 1    
    19    9   10 1    
    20    9   11 1    
    21    9   26 1    
    22   11   12 1    
    23   11   44 1    
    24   11   45 1    
    25   12   13 1    
    26   12   14 1    
    27   14   15 2    
    28   14   46 1    
    29   15   16 1    
    30   16   17 2    
    31   16   18 2    
    32   16   19 1    
    33   19   20 1    
    34   20   25 ar   
    35   20   21 ar   
    36   21   22 ar   
    37   21   47 1    
    38   22   23 ar   
    39   22   48 1    
    40   23   24 ar   
    41   23   49 1    
    42   24   25 ar   
    43   24   50 1    
    44   25   51 1    
    45   26   27 1    
    46   26   52 1    
    47   26   53 1    
    48   27   28 1    
    49   28   29 2    
    50   28   30 1    
    51   28   31 1    
    52   30   54 1    
    53   31   36 ar   
    54   31   32 ar   
    55   32   33 ar   
    56   32   55 1    
    57   33   34 ar   
    58   33   56 1    
    59   34   35 ar   
    60   34   57 1    
    61   35   36 ar   
    62   35   58 1    
    63   36   37 1    
    64   37   59 1    
@<TRIPOS>SUBSTRUCTURE
     1 UNK         1 GROUP             0       ****    0 ROOT    
