@<TRIPOS>MOLECULE
ZINC39600880_3660
64   66    1
SMALL
USER_CHARGES


@<TRIPOS>ATOM
      1 C1          1.7413   54.7943   28.4019 C.3       1 UNK         0.0000 
      2 C2          3.2124   54.7516   28.8467 C.3       1 UNK         0.0000 
      3 C3          4.0168   53.5654   28.2707 C.3       1 UNK         0.0000 
      4 C4          4.2762   53.6107   26.7435 C.3       1 UNK         0.0000 
      5 C5          5.1682   54.7676   26.1899 C.3       1 UNK         0.0000 
      6 H6          4.5971   55.6932   26.2432 H         1 UNK         0.0000 
      7 C7          6.4107   54.9535   27.1083 C.3       1 UNK         0.0000 
      8 C8          5.5904   54.6948   24.6754 C.2       1 UNK         0.0000 
      9 O9          6.7052   55.1286   24.3775 O.2       1 UNK         0.0000 
     10 N10         4.7830   54.2239   23.6817 N.am      1 UNK         0.0000 
     11 C11         3.3891   53.8315   23.8138 C.3       1 UNK         0.0000 
     12 C12         2.8746   53.6231   22.3628 C.3       1 UNK         0.0000 
     13 H13         2.3555   54.5494   22.1189 H         1 UNK         0.0000 
     14 C14         4.1549   53.4293   21.4721 C.3       1 UNK         0.0000 
     15 C15         5.2002   54.2418   22.2759 C.3       1 UNK         0.0000 
     16 C16         4.7327   51.9919   21.2815 C.3       1 UNK         0.0000 
     17 C17         3.8169   51.0460   20.4729 C.3       1 UNK         0.0000 
     18 N18         3.5037   51.6980   19.1173 N.4       1 UNK         0.0000 
     19 C19         3.1313   53.1992   19.1166 C.3       1 UNK         0.0000 
     20 C20         4.1083   53.9666   20.0184 C.3       1 UNK         0.0000 
     21 C21         1.7760   52.5167   22.3692 C.2       1 UNK         0.0000 
     22 O22         0.9458   52.4966   21.4632 O.2       1 UNK         0.0000 
     23 N23         1.7674   51.5802   23.3407 N.am      1 UNK         0.0000 
     24 C24         0.8943   50.4016   23.4325 C.3       1 UNK         0.0000 
     25 C25        -0.6228   50.6085   23.4384 C.ar      1 UNK         0.0000 
     26 C26        -1.2076   51.8461   23.7401 C.ar      1 UNK         0.0000 
     27 C27        -2.5922   52.0016   23.7082 C.ar      1 UNK         0.0000 
     28 C28        -3.4096   50.9156   23.3929 C.ar      1 UNK         0.0000 
     29 C29        -2.8394   49.6785   23.1008 C.ar      1 UNK         0.0000 
     30 C30        -1.4527   49.5241   23.1197 C.ar      1 UNK         0.0000 
     31 F31        -0.9187   48.3154   22.8251 F         1 UNK         0.0000 
     32 Br32       -3.3684   53.6966   24.0815 Br        1 UNK         0.0000 
     33 H33         1.2251   55.6414   28.8529 H         1 UNK         0.0000 
     34 H34         1.2116   53.8906   28.6978 H         1 UNK         0.0000 
     35 H35         1.6505   54.8964   27.3204 H         1 UNK         0.0000 
     36 H36         3.6964   55.6929   28.5930 H         1 UNK         0.0000 
     37 H37         3.2434   54.6940   29.9374 H         1 UNK         0.0000 
     38 H38         4.9643   53.4690   28.8034 H         1 UNK         0.0000 
     39 H39         3.4823   52.6405   28.5021 H         1 UNK         0.0000 
     40 H40         4.7497   52.6681   26.4814 H         1 UNK         0.0000 
     41 H41         3.2877   53.6145   26.2914 H         1 UNK         0.0000 
     42 H42         7.1044   55.7005   26.7345 H         1 UNK         0.0000 
     43 H43         6.1286   55.2983   28.1034 H         1 UNK         0.0000 
     44 H44         6.9713   54.0236   27.2166 H         1 UNK         0.0000 
     45 H45         3.4543   52.8969   24.3589 H         1 UNK         0.0000 
     46 H46         2.7944   54.5927   24.3216 H         1 UNK         0.0000 
     47 H47         5.1351   55.2914   21.9726 H         1 UNK         0.0000 
     48 H48         6.2378   53.9638   22.0783 H         1 UNK         0.0000 
     49 H49         5.6937   52.0425   20.7681 H         1 UNK         0.0000 
     50 H50         4.9907   51.5365   22.2265 H         1 UNK         0.0000 
     51 H51         4.3042   50.1199   20.1985 H         1 UNK         0.0000 
     52 H52         2.8736   50.7636   20.9219 H         1 UNK         0.0000 
     53 H53         4.3387   51.5223   18.5470 H         1 UNK         0.0000 
     54 H54         3.1852   53.5243   18.0772 H         1 UNK         0.0000 
     55 H55         2.0957   53.2897   19.4371 H         1 UNK         0.0000 
     56 H56         3.8184   55.0112   20.0157 H         1 UNK         0.0000 
     57 H57         5.1009   53.9611   19.5630 H         1 UNK         0.0000 
     58 H58         2.4754   51.6391   24.0542 H         1 UNK         0.0000 
     59 H59         1.1667   49.7156   22.6263 H         1 UNK         0.0000 
     60 H60         1.1478   49.8708   24.3516 H         1 UNK         0.0000 
     61 H61        -0.5927   52.6973   23.9956 H         1 UNK         0.0000 
     62 H62        -4.4839   51.0351   23.3726 H         1 UNK         0.0000 
     63 H63        -3.4672   48.8351   22.8559 H         1 UNK         0.0000 
     64 H64         2.7894   51.1639   18.6449 H         1 UNK         0.0000 
@<TRIPOS>BOND
     1    1    2 1    
     2    1   33 1    
     3    1   34 1    
     4    1   35 1    
     5    2    3 1    
     6    2   36 1    
     7    2   37 1    
     8    3    4 1    
     9    3   38 1    
    10    3   39 1    
    11    4    5 1    
    12    4   40 1    
    13    4   41 1    
    14    5    6 1    
    15    5    7 1    
    16    5    8 1    
    17    7   42 1    
    18    7   43 1    
    19    7   44 1    
    20    8    9 2    
    21    8   10 am   BACKBONE|DICT|INTERRES
    22   10   15 1    
    23   10   11 1    
    24   11   12 1    
    25   11   45 1    
    26   11   46 1    
    27   12   13 1    
    28   12   14 1    
    29   12   21 1    
    30   14   20 1    
    31   14   15 1    
    32   14   16 1    
    33   15   47 1    
    34   15   48 1    
    35   16   17 1    
    36   16   49 1    
    37   16   50 1    
    38   17   18 1    
    39   17   51 1    
    40   17   52 1    
    41   18   19 1    
    42   18   53 1    
    43   18   64 1    
    44   19   20 1    
    45   19   54 1    
    46   19   55 1    
    47   20   56 1    
    48   20   57 1    
    49   21   22 2    
    50   21   23 am   BACKBONE|DICT|INTERRES
    51   23   24 1    
    52   23   58 1    
    53   24   25 1    
    54   24   59 1    
    55   24   60 1    
    56   25   30 ar   
    57   25   26 ar   
    58   26   27 ar   
    59   26   61 1    
    60   27   28 ar   
    61   27   32 1    
    62   28   29 ar   
    63   28   62 1    
    64   29   30 ar   
    65   29   63 1    
    66   30   31 1    
@<TRIPOS>SUBSTRUCTURE
     1 UNK         1 GROUP             0       ****    0 ROOT    
