@<TRIPOS>MOLECULE
ZINC06445466_3115
63   67    1
SMALL
USER_CHARGES


@<TRIPOS>ATOM
      1 C1         -0.8574   51.2471   25.1208 C.ar      1 UNK         0.0000 
      2 C2          0.5326   51.3035   25.1158 C.ar      1 UNK         0.0000 
      3 C3          1.1843   52.3803   24.4570 C.ar      1 UNK         0.0000 
      4 C4          2.5778   52.4967   24.3345 C.ar      1 UNK         0.0000 
      5 C5          3.2247   53.4592   23.5491 C.ar      1 UNK         0.0000 
      6 C6          2.4501   54.4967   23.1638 C.ar      1 UNK         0.0000 
      7 C7          1.1042   54.4955   23.3153 C.ar      1 UNK         0.0000 
      8 C8          0.3987   53.3900   23.8687 C.ar      1 UNK         0.0000 
      9 N9         -0.9651   53.2969   23.8508 N.ar      1 UNK         0.0000 
     10 C10        -1.5642   52.2508   24.4698 C.ar      1 UNK         0.0000 
     11 C11         4.7228   53.5779   23.2201 C.3       1 UNK         0.0000 
     12 H12         5.1823   52.5930   23.1766 H         1 UNK         0.0000 
     13 C13         5.3305   54.3037   24.4718 C.2       1 UNK         0.0000 
     14 O14         5.9053   55.3873   24.4238 O.2       1 UNK         0.0000 
     15 N15         5.0251   53.7394   25.6459 N.am      1 UNK         0.0000 
     16 C16         4.9882   54.4843   26.8814 C.3       1 UNK         0.0000 
     17 C17         4.1383   53.7126   27.9064 C.3       1 UNK         0.0000 
     18 C18         5.1462   53.0532   28.8324 C.3       1 UNK         0.0000 
     19 C19         6.2634   54.0952   28.8842 C.3       1 UNK         0.0000 
     20 C20         6.3907   54.6514   27.4803 C.3       1 UNK         0.0000 
     21 N21         4.9757   54.0943   21.7845 N.am      1 UNK         0.0000 
     22 C22         3.9354   53.8546   20.7242 C.3       1 UNK         0.0000 
     23 C23         3.2274   52.5141   20.6705 C.2       1 UNK         0.0000 
     24 C24         1.9019   52.1276   20.8298 C.2       1 UNK         0.0000 
     25 C25         1.8174   50.7799   20.4993 C.2       1 UNK         0.0000 
     26 C26         3.0934   50.4097   20.1260 C.2       1 UNK         0.0000 
     27 O27         3.9594   51.4435   20.2845 O.3       1 UNK         0.0000 
     28 C28         6.1395   54.7245   21.3950 C.2       1 UNK         0.0000 
     29 O29         7.1069   54.8967   22.1287 O.2       1 UNK         0.0000 
     30 C30         6.3042   55.2398   20.0466 C.2       1 UNK         0.0000 
     31 C31         6.3839   54.6401   18.7839 C.2       1 UNK         0.0000 
     32 C32         6.6224   55.5978   17.7627 C.2       1 UNK         0.0000 
     33 N33         6.7883   56.8450   18.1726 N.2       1 UNK         0.0000 
     34 S34         6.6631   56.9114   19.8661 S.3       1 UNK         0.0000 
     35 C35         6.7332   55.3210   16.3259 C.2       1 UNK         0.0000 
     36 O36         6.7338   54.1790   15.8728 O.2       1 UNK         0.0000 
     37 N37         6.8197   56.3694   15.4968 N.am      1 UNK         0.0000 
     38 N38         6.2359   53.2967   18.5624 N.pl3     1 UNK         0.0000 
     39 H39        -1.3726   50.4318   25.6095 H         1 UNK         0.0000 
     40 H40         1.1034   50.5173   25.5842 H         1 UNK         0.0000 
     41 H41         3.1012   51.7653   24.8716 H         1 UNK         0.0000 
     42 H42         2.9364   55.2967   22.6668 H         1 UNK         0.0000 
     43 H43         0.6461   55.3449   22.8818 H         1 UNK         0.0000 
     44 H44        -2.6438   52.2328   24.4441 H         1 UNK         0.0000 
     45 H45         4.5873   52.8293   25.6545 H         1 UNK         0.0000 
     46 H46         4.4770   55.4349   26.7288 H         1 UNK         0.0000 
     47 H47         3.4179   53.0179   27.4705 H         1 UNK         0.0000 
     48 H48         3.5589   54.4241   28.4973 H         1 UNK         0.0000 
     49 H49         5.5143   52.1215   28.4069 H         1 UNK         0.0000 
     50 H50         4.7047   52.8283   29.8052 H         1 UNK         0.0000 
     51 H51         7.2064   53.7050   29.2720 H         1 UNK         0.0000 
     52 H52         5.9454   54.8928   29.5604 H         1 UNK         0.0000 
     53 H53         6.7033   55.6945   27.4877 H         1 UNK         0.0000 
     54 H54         7.1423   54.0733   26.9392 H         1 UNK         0.0000 
     55 H55         3.1945   54.6256   20.8520 H         1 UNK         0.0000 
     56 H56         4.2321   54.0758   19.7094 H         1 UNK         0.0000 
     57 H57         1.0813   52.7697   21.1096 H         1 UNK         0.0000 
     58 H58         0.9304   50.1644   20.4821 H         1 UNK         0.0000 
     59 H59         3.5040   49.4975   19.7219 H         1 UNK         0.0000 
     60 H60         6.8099   57.3106   15.8607 H         1 UNK         0.0000 
     61 H61         6.8862   56.2060   14.5042 H         1 UNK         0.0000 
     62 H62         6.3116   52.9176   17.6251 H         1 UNK         0.0000 
     63 H63         5.9126   52.6447   19.2649 H         1 UNK         0.0000 
@<TRIPOS>BOND
     1    1   10 ar   
     2    1    2 ar   
     3    1   39 1    
     4    2    3 ar   
     5    2   40 1    
     6    3    8 ar   
     7    3    4 ar   
     8    4    5 ar   
     9    4   41 1    
    10    5    6 ar   
    11    5   11 1    
    12    6    7 ar   
    13    6   42 1    
    14    7    8 ar   
    15    7   43 1    
    16    8    9 ar   
    17    9   10 ar   
    18   10   44 1    
    19   11   12 1    
    20   11   13 1    
    21   11   21 1    
    22   13   14 2    
    23   13   15 am   BACKBONE|DICT|INTERRES
    24   15   16 1    
    25   15   45 1    
    26   16   20 1    
    27   16   17 1    
    28   16   46 1    
    29   17   18 1    
    30   17   47 1    
    31   17   48 1    
    32   18   19 1    
    33   18   49 1    
    34   18   50 1    
    35   19   20 1    
    36   19   51 1    
    37   19   52 1    
    38   20   53 1    
    39   20   54 1    
    40   21   22 1    
    41   21   28 am   BACKBONE|DICT|INTERRES
    42   22   23 1    
    43   22   55 1    
    44   22   56 1    
    45   23   27 1    
    46   23   24 2    
    47   24   25 1    
    48   24   57 1    
    49   25   26 2    
    50   25   58 1    
    51   26   27 1    
    52   26   59 1    
    53   28   29 2    
    54   28   30 1    
    55   30   34 1    
    56   30   31 2    
    57   31   32 1    
    58   31   38 1    
    59   32   33 2    
    60   32   35 1    
    61   33   34 1    
    62   35   36 2    
    63   35   37 am   BACKBONE|DICT|INTERRES
    64   37   60 1    
    65   37   61 1    
    66   38   62 1    
    67   38   63 1    
@<TRIPOS>SUBSTRUCTURE
     1 UNK         1 GROUP             0       ****    0 ROOT    
