ZINC32091766_1921
                    3D
 Schrodinger Suite 2024-2.
 28 30  0  0  1  0            999 V2000
    5.3382   54.0412   27.6417 C   0  0  0  0  0  0
    6.1602   54.0955   26.5189 C   0  0  0  0  0  0
    5.5951   54.2709   25.2571 C   0  0  0  0  0  0
    4.2176   54.3995   25.1091 C   0  0  0  0  0  0
    3.3993   54.3481   26.2315 C   0  0  0  0  0  0
    3.9504   54.1584   27.5018 C   0  0  0  0  0  0
    3.0599   54.2131   28.7440 C   0  0  1  0  0  0
    3.6636   53.8482   29.5776 H   0  0  0  0  0  0
    2.6252   55.6965   29.0285 C   0  0  0  0  0  0
    1.5094   55.7703   30.0818 C   0  0  0  0  0  0
    0.6466   54.8714   30.3258 N   0  0  0  0  0  0
    0.6975   53.7642   29.5383 C   0  0  0  0  0  0
    1.7654   53.3880   28.7105 C   0  0  0  0  0  0
    1.3118   51.9896   27.7819 S   0  0  0  0  0  0
   -0.2462   52.0858   28.5468 C   0  0  0  0  0  0
   -0.3677   52.9989   29.4693 N   0  0  0  0  0  0
   -1.2780   51.2966   28.1489 N   0  0  0  0  0  0
    1.5044   56.8966   30.8523 O   0  0  0  0  0  0
    6.7042   54.3312   23.7143 Br  0  0  0  0  0  0
    5.7868   53.9233   28.6177 H   0  0  0  0  0  0
    7.2290   53.9946   26.6292 H   0  0  0  0  0  0
    3.7872   54.5462   24.1290 H   0  0  0  0  0  0
    2.3344   54.4868   26.1178 H   0  0  0  0  0  0
    3.4970   56.2523   29.3581 H   0  0  0  0  0  0
    2.2612   56.1705   28.1174 H   0  0  0  0  0  0
   -1.1308   50.2972   28.0112 H   0  0  0  0  0  0
   -2.1917   51.4728   28.5371 H   0  0  0  0  0  0
    2.1563   57.5254   30.5321 H   0  0  0  0  0  0
  1  6  2  0  0  0
  1  2  1  0  0  0
  1 20  1  0  0  0
  2  3  2  0  0  0
  2 21  1  0  0  0
  3  4  1  0  0  0
  3 19  1  0  0  0
  4  5  2  0  0  0
  4 22  1  0  0  0
  5  6  1  0  0  0
  5 23  1  0  0  0
  6  7  1  0  0  0
  7  8  1  0  0  0
  7 13  1  0  0  0
  7  9  1  0  0  0
  9 10  1  0  0  0
  9 24  1  0  0  0
  9 25  1  0  0  0
 10 11  2  0  0  0
 10 18  1  0  0  0
 11 12  1  0  0  0
 12 16  1  0  0  0
 12 13  2  0  0  0
 13 14  1  0  0  0
 14 15  1  0  0  0
 15 16  2  0  0  0
 15 17  1  0  0  0
 17 26  1  0  0  0
 17 27  1  0  0  0
 18 28  1  0  0  0
M  END
> <i_i_glide_confnum>
1

> <i_i_glide_lignum>
1922

> <i_i_glide_posenum>
15

> <i_i_glide_rotatable_bonds>
2

> <i_m_Source_File_Index>
2698

> <b_m_subgroup_collapsed>
0

> <r_i_docking_score>
-7.26035

> <r_i_glide_ecoul>
-2.57762

> <r_i_glide_eff_state_penalty>
0

> <r_i_glide_einternal>
0.713271

> <r_i_glide_emodel>
-56.6318

> <r_i_glide_energy>
-39.0998

> <r_i_glide_erotb>
0.178151

> <r_i_glide_esite>
-0.1

> <r_i_glide_evdw>
-36.5222

> <r_i_glide_gscore>
-7.26035

> <r_i_glide_hbond>
-0.406901

> <r_i_glide_ligand_efficiency>
-0.403353

> <r_i_glide_ligand_efficiency_ln>
-1.86624

> <r_i_glide_ligand_efficiency_sa>
-1.05708

> <r_i_glide_lipo>
-2.99345

> <r_i_glide_metal>
0

> <r_i_glide_rewards>
-1.7254

> <s_i_glide_gridfile>
wee1_glide-grid

> <s_m_Source_File>
wee1_decoys_glide_SP.sdf

> <s_m_Source_Path>
/Users/zhangxujun/Desktop

> <s_m_entry_id>
2973

> <s_m_entry_name>
wee1_decoys_glide_SP.2698

> <s_m_subgroup_title>
wee1_decoys_glide_SP

> <s_m_subgroupid>
wee1_decoys_glide_SP


$$$$
