ZINC40844483_2069
                    3D
 Schrodinger Suite 2024-2.
 48 50  0  0  1  0            999 V2000
   -8.2123   52.9639   28.2360 C   0  0  0  0  0  0
   -6.9132   53.4659   27.9539 O   0  0  0  0  0  0
   -6.1559   52.6367   27.1647 C   0  0  0  0  0  0
   -6.1605   52.8154   25.7813 C   0  0  0  0  0  0
   -5.3735   52.0036   24.9644 C   0  0  0  0  0  0
   -4.5545   51.0078   25.5137 C   0  0  0  0  0  0
   -4.5739   50.8266   26.9065 C   0  0  0  0  0  0
   -5.3539   51.6386   27.7282 C   0  0  0  0  0  0
   -5.2908   51.3793   29.6164 Br  0  0  0  0  0  0
   -3.7370   50.1712   24.6099 C   0  0  0  0  0  0
   -2.6318   49.5530   24.8381 N   0  0  0  0  0  0
   -1.8584   49.8437   25.9355 N   0  0  0  0  0  0
   -1.2979   51.0406   26.2377 C   0  0  0  0  0  0
   -1.6089   52.1199   25.7225 O   0  0  0  0  0  0
   -0.3561   50.8976   27.1884 N   0  0  0  0  0  0
    0.1540   51.9778   27.8876 C   0  0  0  0  0  0
    1.0655   52.9886   27.4953 C   0  0  0  0  0  0
    1.2021   53.9260   28.5763 C   0  0  0  0  0  0
    0.4755   53.5551   29.7239 C   0  0  0  0  0  0
   -0.4048   52.0969   29.5133 S   0  0  0  0  0  0
    0.4870   54.2751   31.0639 C   0  0  0  0  0  0
    1.0392   55.7005   30.8812 C   0  0  0  0  0  0
    2.3043   55.7048   30.0263 C   0  0  0  0  0  0
    2.0427   55.2152   28.5957 C   0  0  0  0  0  0
    1.7219   53.0361   26.1628 C   0  0  0  0  0  0
    1.4802   52.2408   25.2521 O   0  0  0  0  0  0
    2.6247   54.0343   26.0486 O   0  0  0  0  0  0
    3.3508   54.2275   24.8422 C   0  0  0  0  0  0
   -8.7540   53.6841   28.8485 H   0  0  0  0  0  0
   -8.7893   52.8006   27.3245 H   0  0  0  0  0  0
   -8.1696   52.0243   28.7901 H   0  0  0  0  0  0
   -6.7754   53.5862   25.3411 H   0  0  0  0  0  0
   -5.3993   52.1679   23.8960 H   0  0  0  0  0  0
   -3.9796   50.0530   27.3730 H   0  0  0  0  0  0
   -4.1782   50.0671   23.6226 H   0  0  0  0  0  0
   -1.3474   49.0410   26.2793 H   0  0  0  0  0  0
   -0.2627   49.9821   27.6105 H   0  0  0  0  0  0
    1.1045   53.7119   31.7607 H   0  0  0  0  0  0
   -0.4955   54.3126   31.5223 H   0  0  0  0  0  0
    1.2267   56.1598   31.8502 H   0  0  0  0  0  0
    0.3044   56.3457   30.4088 H   0  0  0  0  0  0
    3.0668   55.0723   30.4801 H   0  0  0  0  0  0
    2.7044   56.7187   29.9849 H   0  0  0  0  0  0
    1.5024   56.0036   28.0791 H   0  0  0  0  0  0
    3.0124   55.1085   28.1144 H   0  0  0  0  0  0
    4.0354   55.0676   24.9532 H   0  0  0  0  0  0
    3.9379   53.3430   24.5914 H   0  0  0  0  0  0
    2.6778   54.4440   24.0114 H   0  0  0  0  0  0
  1  2  1  0  0  0
  1 29  1  0  0  0
  1 30  1  0  0  0
  1 31  1  0  0  0
  2  3  1  0  0  0
  3  8  2  0  0  0
  3  4  1  0  0  0
  4  5  2  0  0  0
  4 32  1  0  0  0
  5  6  1  0  0  0
  5 33  1  0  0  0
  6  7  2  0  0  0
  6 10  1  0  0  0
  7  8  1  0  0  0
  7 34  1  0  0  0
  8  9  1  0  0  0
 10 11  2  0  0  0
 10 35  1  0  0  0
 11 12  1  0  0  0
 12 13  1  0  0  0
 12 36  1  0  0  0
 13 14  2  0  0  0
 13 15  1  0  0  0
 15 16  1  0  0  0
 15 37  1  0  0  0
 16 20  1  0  0  0
 16 17  2  0  0  0
 17 18  1  0  0  0
 17 25  1  0  0  0
 18 24  1  0  0  0
 18 19  2  0  0  0
 19 20  1  0  0  0
 19 21  1  0  0  0
 21 22  1  0  0  0
 21 38  1  0  0  0
 21 39  1  0  0  0
 22 23  1  0  0  0
 22 40  1  0  0  0
 22 41  1  0  0  0
 23 24  1  0  0  0
 23 42  1  0  0  0
 23 43  1  0  0  0
 24 44  1  0  0  0
 24 45  1  0  0  0
 25 26  2  0  0  0
 25 27  1  0  0  0
 27 28  1  0  0  0
 28 46  1  0  0  0
 28 47  1  0  0  0
 28 48  1  0  0  0
M  END
> <i_i_glide_confnum>
85

> <i_i_glide_lignum>
2070

> <i_i_glide_posenum>
145

> <i_i_glide_rotatable_bonds>
8

> <i_m_Source_File_Index>
4307

> <b_m_subgroup_collapsed>
0

> <r_i_docking_score>
-4.01172

> <r_i_glide_ecoul>
-4.17453

> <r_i_glide_eff_state_penalty>
0

> <r_i_glide_einternal>
18.7863

> <r_i_glide_emodel>
-38.3502

> <r_i_glide_energy>
-35.962

> <r_i_glide_erotb>
0.556571

> <r_i_glide_esite>
-0.228993

> <r_i_glide_evdw>
-31.7875

> <r_i_glide_gscore>
-4.01172

> <r_i_glide_hbond>
-0.136922

> <r_i_glide_ligand_efficiency>
-0.143276

> <r_i_glide_ligand_efficiency_ln>
-0.926022

> <r_i_glide_ligand_efficiency_sa>
-0.435069

> <r_i_glide_lipo>
-1.54838

> <r_i_glide_metal>
0

> <r_i_glide_rewards>
-0.43844

> <s_i_glide_gridfile>
wee1_glide-grid

> <s_m_Source_File>
wee1_decoys_glide_SP.sdf

> <s_m_Source_Path>
/Users/zhangxujun/Desktop

> <s_m_entry_id>
4582

> <s_m_entry_name>
wee1_decoys_glide_SP.4307

> <s_m_subgroup_title>
wee1_decoys_glide_SP

> <s_m_subgroupid>
wee1_decoys_glide_SP


$$$$
