@<TRIPOS>MOLECULE
ZINC37351700_3824
31   33    1
SMALL
USER_CHARGES


@<TRIPOS>ATOM
      1 C1          1.1729   52.4962   32.0622 C.3       1 UNK         0.0000 
      2 N2          1.2386   52.5839   30.6074 N.pl3     1 UNK         0.0000 
      3 C3          0.2913   52.2335   29.6811 C.ar      1 UNK         0.0000 
      4 C4          0.8438   52.5023   28.4227 C.ar      1 UNK         0.0000 
      5 C5          2.1110   53.0704   28.7470 C.ar      1 UNK         0.0000 
      6 N6          2.3263   53.1010   30.0458 N.2       1 UNK         0.0000 
      7 C7          3.1530   53.5983   27.8723 C.2       1 UNK         0.0000 
      8 C8          3.1655   54.2512   26.6469 C.2       1 UNK         0.0000 
      9 C9          4.4944   54.4980   26.3130 C.2       1 UNK         0.0000 
     10 C10         5.2451   54.0078   27.3619 C.2       1 UNK         0.0000 
     11 O11         4.4363   53.4619   28.3018 O.3       1 UNK         0.0000 
     12 Br12        7.1101   53.9667   27.6815 Br        1 UNK         0.0000 
     13 C13         0.2079   52.2568   27.0702 C.ar      1 UNK         0.0000 
     14 C14        -1.1856   52.1878   26.9346 C.ar      1 UNK         0.0000 
     15 C15        -1.7822   52.0167   25.6879 C.ar      1 UNK         0.0000 
     16 C16        -0.9866   51.8970   24.5543 C.ar      1 UNK         0.0000 
     17 C17         0.3987   51.9258   24.6661 C.ar      1 UNK         0.0000 
     18 C18         0.9856   52.0967   25.9174 C.ar      1 UNK         0.0000 
     19 F19        -1.5624   51.7501   23.3395 F         1 UNK         0.0000 
     20 N20        -0.8956   51.6965   30.0815 N.pl3     1 UNK         0.0000 
     21 H21         0.6845   53.3865   32.4586 H         1 UNK         0.0000 
     22 H22         0.6055   51.6171   32.3622 H         1 UNK         0.0000 
     23 H23         2.1745   52.4044   32.4814 H         1 UNK         0.0000 
     24 H24         2.3024   54.4965   26.0491 H         1 UNK         0.0000 
     25 H25         4.8653   54.9791   25.4200 H         1 UNK         0.0000 
     26 H26        -1.8286   52.2796   27.7904 H         1 UNK         0.0000 
     27 H27        -2.8575   51.9780   25.5996 H         1 UNK         0.0000 
     28 H28         1.0147   51.8140   23.7863 H         1 UNK         0.0000 
     29 H29         2.0593   52.0967   25.9746 H         1 UNK         0.0000 
     30 H30        -1.4125   51.0746   29.4734 H         1 UNK         0.0000 
     31 H31        -1.1415   51.6316   31.0678 H         1 UNK         0.0000 
@<TRIPOS>BOND
     1    1    2 1    
     2    1   21 1    
     3    1   22 1    
     4    1   23 1    
     5    2    6 ar   
     6    2    3 ar   
     7    3    4 ar   
     8    3   20 1    
     9    4    5 ar   
    10    4   13 1    
    11    5    6 ar   
    12    5    7 1    
    13    7   11 1    
    14    7    8 2    
    15    8    9 1    
    16    8   24 1    
    17    9   10 2    
    18    9   25 1    
    19   10   11 1    
    20   10   12 1    
    21   13   18 ar   
    22   13   14 ar   
    23   14   15 ar   
    24   14   26 1    
    25   15   16 ar   
    26   15   27 1    
    27   16   17 ar   
    28   16   19 1    
    29   17   18 ar   
    30   17   28 1    
    31   18   29 1    
    32   20   30 1    
    33   20   31 1    
@<TRIPOS>SUBSTRUCTURE
     1 UNK         1 GROUP             0       ****    0 ROOT    
