ZINC14907932_2451
                    3D
 Schrodinger Suite 2024-2.
 49 51  0  0  1  0            999 V2000
    5.9665   54.0976   28.2364 C   0  0  0  0  0  0
    6.1322   54.1486   26.8529 C   0  0  0  0  0  0
    5.0253   54.3155   26.0100 C   0  0  0  0  0  0
    3.7516   54.4223   26.5800 C   0  0  0  0  0  0
    3.5868   54.3941   27.9654 C   0  0  0  0  0  0
    4.6957   54.2289   28.7940 C   0  0  0  0  0  0
    1.8521   54.6058   28.7202 Br  0  0  0  0  0  0
    5.1626   54.3999   24.5445 C   0  0  0  0  0  0
    6.2697   54.7944   23.8790 C   0  0  0  0  0  0
    6.3273   54.8264   22.4364 C   0  0  0  0  0  0
    5.4052   54.4296   21.7189 O   0  0  0  0  0  0
    7.5035   55.2967   21.9659 N   0  0  0  0  0  0
    7.7496   55.3829   20.5850 N   0  0  0  0  0  0
    7.2277   56.4036   19.8695 C   0  0  0  0  0  0
    6.5518   57.2967   20.3772 O   0  0  0  0  0  0
    7.5401   56.4377   18.3921 C   0  0  0  0  0  0
    6.7540   57.2207   17.5325 C   0  0  0  0  0  0
    7.0163   57.2584   16.1632 C   0  0  0  0  0  0
    8.0655   56.5119   15.6313 C   0  0  0  0  0  0
    8.8683   55.7424   16.4750 C   0  0  0  0  0  0
    8.6146   55.7154   17.8485 C   0  0  0  0  0  0
   10.1760   54.7313   15.7936 S   0  0  0  0  0  0
   10.5941   55.3421   14.5263 O   0  0  0  0  0  0
   11.1486   54.4777   16.8635 O   0  0  0  0  0  0
    9.3933   53.1936   15.4114 N   0  0  0  0  0  0
    8.6870   52.4726   16.5003 C   0  0  0  0  0  0
    9.5787   51.2695   16.7076 C   0  0  0  0  0  0
    9.9374   50.8913   15.2876 C   0  0  0  0  0  0
   10.1444   52.2252   14.5524 C   0  0  0  0  0  0
    6.8265   53.9741   28.8788 H   0  0  0  0  0  0
    7.1247   54.0454   26.4433 H   0  0  0  0  0  0
    2.8827   54.5401   25.9495 H   0  0  0  0  0  0
    4.5747   54.2093   29.8659 H   0  0  0  0  0  0
    4.2884   54.0962   23.9819 H   0  0  0  0  0  0
    7.1575   55.1059   24.4116 H   0  0  0  0  0  0
    8.2510   55.6665   22.5399 H   0  0  0  0  0  0
    8.0182   54.4969   20.1831 H   0  0  0  0  0  0
    5.9294   57.8060   17.9165 H   0  0  0  0  0  0
    6.3991   57.8621   15.5137 H   0  0  0  0  0  0
    8.2506   56.5326   14.5670 H   0  0  0  0  0  0
    9.2592   55.1205   18.4807 H   0  0  0  0  0  0
    8.4503   53.0876   17.3671 H   0  0  0  0  0  0
    7.7123   52.1434   16.1347 H   0  0  0  0  0  0
   10.4673   51.5459   17.2801 H   0  0  0  0  0  0
    9.0713   50.4871   17.2630 H   0  0  0  0  0  0
    9.1123   50.3351   14.8353 H   0  0  0  0  0  0
   10.8188   50.2497   15.2372 H   0  0  0  0  0  0
    9.6998   52.0876   13.5658 H   0  0  0  0  0  0
   11.2218   52.4005   14.5730 H   0  0  0  0  0  0
  1  6  2  0  0  0
  1  2  1  0  0  0
  1 30  1  0  0  0
  2  3  2  0  0  0
  2 31  1  0  0  0
  3  4  1  0  0  0
  3  8  1  0  0  0
  4  5  2  0  0  0
  4 32  1  0  0  0
  5  6  1  0  0  0
  5  7  1  0  0  0
  6 33  1  0  0  0
  8  9  2  0  0  0
  8 34  1  0  0  0
  9 10  1  0  0  0
  9 35  1  0  0  0
 10 11  2  0  0  0
 10 12  1  0  0  0
 12 13  1  0  0  0
 12 36  1  0  0  0
 13 14  1  0  0  0
 13 37  1  0  0  0
 14 15  2  0  0  0
 14 16  1  0  0  0
 16 21  2  0  0  0
 16 17  1  0  0  0
 17 18  2  0  0  0
 17 38  1  0  0  0
 18 19  1  0  0  0
 18 39  1  0  0  0
 19 20  2  0  0  0
 19 40  1  0  0  0
 20 21  1  0  0  0
 20 22  1  0  0  0
 21 41  1  0  0  0
 22 23  2  0  0  0
 22 24  2  0  0  0
 22 25  1  0  0  0
 25 29  1  0  0  0
 25 26  1  0  0  0
 26 27  1  0  0  0
 26 42  1  0  0  0
 26 43  1  0  0  0
 27 28  1  0  0  0
 27 44  1  0  0  0
 27 45  1  0  0  0
 28 29  1  0  0  0
 28 46  1  0  0  0
 28 47  1  0  0  0
 29 48  1  0  0  0
 29 49  1  0  0  0
M  END
> <i_i_glide_confnum>
223

> <i_i_glide_lignum>
2452

> <i_i_glide_posenum>
376

> <i_i_glide_rotatable_bonds>
8

> <i_m_Source_File_Index>
3168

> <b_m_subgroup_collapsed>
0

> <r_i_docking_score>
-4.44031

> <r_i_glide_ecoul>
-4.58033

> <r_i_glide_eff_state_penalty>
0

> <r_i_glide_einternal>
3.08331

> <r_i_glide_emodel>
-49.5408

> <r_i_glide_energy>
-41.1884

> <r_i_glide_erotb>
0.619884

> <r_i_glide_esite>
-0.0135816

> <r_i_glide_evdw>
-36.6081

> <r_i_glide_gscore>
-4.44031

> <r_i_glide_hbond>
-0.571073

> <r_i_glide_ligand_efficiency>
-0.153114

> <r_i_glide_ligand_efficiency_ln>
-1.01672

> <r_i_glide_ligand_efficiency_sa>
-0.470415

> <r_i_glide_lipo>
-2.70356

> <r_i_glide_metal>
0

> <r_i_glide_rewards>
0.74548

> <s_i_glide_gridfile>
wee1_glide-grid

> <s_m_Source_File>
wee1_decoys_glide_SP.sdf

> <s_m_Source_Path>
/Users/zhangxujun/Desktop

> <s_m_entry_id>
3443

> <s_m_entry_name>
wee1_decoys_glide_SP.3168

> <s_m_subgroup_title>
wee1_decoys_glide_SP

> <s_m_subgroupid>
wee1_decoys_glide_SP


$$$$
