@<TRIPOS>MOLECULE
ZINC15087238_4376
49   53    1
SMALL
USER_CHARGES


@<TRIPOS>ATOM
      1 C1         -0.5533   49.7039   25.1388 C.3       1 UNK         0.0000 
      2 C2         -0.4774   51.1152   25.7556 C.3       1 UNK         0.0000 
      3 C3          0.6529   51.9423   25.1064 C.2       1 UNK         0.0000 
      4 C4          1.4639   52.7808   25.7744 C.2       1 UNK         0.0000 
      5 C5          2.5736   53.3016   24.9924 C.2       1 UNK         0.0000 
      6 S6          3.9062   54.1138   25.6247 S.2       1 UNK         0.0000 
      7 N7          2.3979   52.9491   23.6588 N.pl3     1 UNK         0.0000 
      8 S8          1.0231   51.9190   23.4008 S.3       1 UNK         0.0000 
      9 C9          3.2610   53.2167   22.5453 C.ar      1 UNK         0.0000 
     10 C10         3.8257   54.4817   22.3451 C.ar      1 UNK         0.0000 
     11 C11         4.6927   54.7174   21.2816 C.ar      1 UNK         0.0000 
     12 C12         4.9141   53.7322   20.3272 C.ar      1 UNK         0.0000 
     13 C13         4.3402   52.4716   20.4849 C.ar      1 UNK         0.0000 
     14 C14         3.5379   52.2104   21.5987 C.ar      1 UNK         0.0000 
     15 S15         5.9001   54.1364   18.8831 S.o2      1 UNK         0.0000 
     16 O16         6.7267   55.2986   19.2315 O.2       1 UNK         0.0000 
     17 O17         6.5102   52.8976   18.4030 O.2       1 UNK         0.0000 
     18 N18         4.7377   54.6141   17.6316 N.pl3     1 UNK         0.0000 
     19 C19         4.3435   55.8890   17.3022 C.2       1 UNK         0.0000 
     20 N20         3.1350   56.1755   16.8752 N.2       1 UNK         0.0000 
     21 C21         3.0209   57.4436   16.5265 C.2       1 UNK         0.0000 
     22 C22         4.1614   58.2297   16.6755 C.2       1 UNK         0.0000 
     23 S23         5.4464   57.2369   17.2895 S.3       1 UNK         0.0000 
     24 C24         1.1951   52.9417   27.2514 C.ar      1 UNK         0.0000 
     25 C25         1.5618   54.0722   28.0077 C.ar      1 UNK         0.0000 
     26 C26         1.2413   54.1833   29.3617 C.ar      1 UNK         0.0000 
     27 C27         0.5221   53.1740   29.9926 C.ar      1 UNK         0.0000 
     28 C28         0.1047   52.0644   29.2627 C.ar      1 UNK         0.0000 
     29 C29         0.4340   51.9520   27.9118 C.ar      1 UNK         0.0000 
     30 N30        -0.1340   50.8971   27.1747 N.pl3     1 UNK         0.0000 
     31 C31        -1.7939   51.9209   25.7029 C.3       1 UNK         0.0000 
     32 H32        -0.8406   49.7421   24.0874 H         1 UNK         0.0000 
     33 H33         0.4027   49.1802   25.1985 H         1 UNK         0.0000 
     34 H34        -1.2949   49.0845   25.6474 H         1 UNK         0.0000 
     35 H35         3.5929   55.2949   23.0161 H         1 UNK         0.0000 
     36 H36         5.1288   55.6968   21.1622 H         1 UNK         0.0000 
     37 H37         4.5094   51.7000   19.7443 H         1 UNK         0.0000 
     38 H38         3.1198   51.2201   21.7063 H         1 UNK         0.0000 
     39 H39         4.3211   53.8153   17.1765 H         1 UNK         0.0000 
     40 H40         2.0654   57.8101   16.1704 H         1 UNK         0.0000 
     41 H41         4.3036   59.2867   16.4777 H         1 UNK         0.0000 
     42 H42         2.0773   54.9020   27.5549 H         1 UNK         0.0000 
     43 H43         1.5354   55.0636   29.9143 H         1 UNK         0.0000 
     44 H44         0.2580   53.2571   31.0399 H         1 UNK         0.0000 
     45 H45        -0.4940   51.3047   29.7452 H         1 UNK         0.0000 
     46 H46        -0.7315   50.2250   27.6481 H         1 UNK         0.0000 
     47 H47        -2.1079   52.0930   24.6721 H         1 UNK         0.0000 
     48 H48        -2.6057   51.3889   26.2027 H         1 UNK         0.0000 
     49 H49        -1.7008   52.8975   26.1852 H         1 UNK         0.0000 
@<TRIPOS>BOND
     1    1    2 1    
     2    1   32 1    
     3    1   33 1    
     4    1   34 1    
     5    2   30 1    
     6    2    3 1    
     7    2   31 1    
     8    3    8 1    
     9    3    4 2    
    10    4    5 1    
    11    4   24 1    
    12    5    6 2    
    13    5    7 1    
    14    7    8 1    
    15    7    9 1    
    16    9   14 ar   
    17    9   10 ar   
    18   10   11 ar   
    19   10   35 1    
    20   11   12 ar   
    21   11   36 1    
    22   12   13 ar   
    23   12   15 1    
    24   13   14 ar   
    25   13   37 1    
    26   14   38 1    
    27   15   16 2    
    28   15   17 2    
    29   15   18 1    
    30   18   19 1    
    31   18   39 1    
    32   19   23 1    
    33   19   20 2    
    34   20   21 1    
    35   21   22 2    
    36   21   40 1    
    37   22   23 1    
    38   22   41 1    
    39   24   29 ar   
    40   24   25 ar   
    41   25   26 ar   
    42   25   42 1    
    43   26   27 ar   
    44   26   43 1    
    45   27   28 ar   
    46   27   44 1    
    47   28   29 ar   
    48   28   45 1    
    49   29   30 1    
    50   30   46 1    
    51   31   47 1    
    52   31   48 1    
    53   31   49 1    
@<TRIPOS>SUBSTRUCTURE
     1 UNK         1 GROUP             0       ****    0 ROOT    
