@<TRIPOS>MOLECULE
ZINC38687909_6012
48   51    1
SMALL
USER_CHARGES


@<TRIPOS>ATOM
      1 C1          0.5914   54.2642   30.5075 C.3       1 UNK         0.0000 
      2 O2          1.8518   53.6022   30.4814 O.3       1 UNK         0.0000 
      3 C3          2.7189   53.8117   29.4246 C.ar      1 UNK         0.0000 
      4 C4          2.4434   54.6665   28.3477 C.ar      1 UNK         0.0000 
      5 C5          3.3579   54.8097   27.3062 C.ar      1 UNK         0.0000 
      6 C6          4.5759   54.1153   27.3148 C.ar      1 UNK         0.0000 
      7 C7          4.8691   53.2950   28.4104 C.ar      1 UNK         0.0000 
      8 C8          3.9383   53.1227   29.4398 C.ar      1 UNK         0.0000 
      9 Cl9         4.3028   52.0253   30.7263 Cl        1 UNK         0.0000 
     10 C10         5.5394   54.2362   26.1747 C.2       1 UNK         0.0000 
     11 O11         6.7575   54.0957   26.2949 O.2       1 UNK         0.0000 
     12 O12         4.8739   54.3849   24.9907 O.3       1 UNK         0.0000 
     13 C13         5.4563   54.4968   23.7406 C.ar      1 UNK         0.0000 
     14 C14         6.6997   55.0948   23.4623 C.ar      1 UNK         0.0000 
     15 C15         7.1046   55.2968   22.1386 C.ar      1 UNK         0.0000 
     16 C16         6.3074   54.8965   21.0575 C.ar      1 UNK         0.0000 
     17 C17         5.0698   54.2964   21.3578 C.ar      1 UNK         0.0000 
     18 C18         4.6541   54.1016   22.6713 C.ar      1 UNK         0.0000 
     19 O19         4.2045   53.8392   20.3870 O.3       1 UNK         0.0000 
     20 C20         4.6008   53.8507   19.0941 C.2       1 UNK         0.0000 
     21 C21         5.7772   54.3316   18.6473 C.2       1 UNK         0.0000 
     22 C22         6.8158   54.9278   19.6009 C.3       1 UNK         0.0000 
     23 H23         7.6512   54.2292   19.5397 H         1 UNK         0.0000 
     24 C24         7.3915   56.2687   19.1405 C.ar      1 UNK         0.0000 
     25 C25         6.5423   57.3199   18.7780 C.ar      1 UNK         0.0000 
     26 C26         7.0719   58.4927   18.2468 C.ar      1 UNK         0.0000 
     27 C27         8.4509   58.6191   18.0837 C.ar      1 UNK         0.0000 
     28 C28         9.3050   57.5856   18.4635 C.ar      1 UNK         0.0000 
     29 C29         8.7751   56.4106   18.9859 C.ar      1 UNK         0.0000 
     30 Br30        9.1814   60.2243   17.3707 Br        1 UNK         0.0000 
     31 C31         6.0993   54.2540   17.2573 C.1       1 UNK         0.0000 
     32 N32         6.3526   54.2093   16.1295 N.1       1 UNK         0.0000 
     33 N33         3.6147   53.2673   18.3478 N.pl3     1 UNK         0.0000 
     34 H34         0.0493   53.9700   31.4067 H         1 UNK         0.0000 
     35 H35         0.7064   55.3486   30.5341 H         1 UNK         0.0000 
     36 H36        -0.0230   53.9894   29.6495 H         1 UNK         0.0000 
     37 H37         1.5170   55.2170   28.2922 H         1 UNK         0.0000 
     38 H38         3.1047   55.4463   26.4758 H         1 UNK         0.0000 
     39 H39         5.8007   52.7471   28.4438 H         1 UNK         0.0000 
     40 H40         7.3421   55.4405   24.2578 H         1 UNK         0.0000 
     41 H41         8.0748   55.7375   21.9567 H         1 UNK         0.0000 
     42 H42         3.6864   53.6580   22.8573 H         1 UNK         0.0000 
     43 H43         5.4708   57.2170   18.8778 H         1 UNK         0.0000 
     44 H44         6.4106   59.2941   17.9482 H         1 UNK         0.0000 
     45 H45        10.3736   57.6867   18.3443 H         1 UNK         0.0000 
     46 H46         9.4496   55.6068   19.2511 H         1 UNK         0.0000 
     47 H47         3.7801   53.0774   17.3698 H         1 UNK         0.0000 
     48 H48         2.9335   52.6839   18.8111 H         1 UNK         0.0000 
@<TRIPOS>BOND
     1    1    2 1    
     2    1   34 1    
     3    1   35 1    
     4    1   36 1    
     5    2    3 1    
     6    3    8 ar   
     7    3    4 ar   
     8    4    5 ar   
     9    4   37 1    
    10    5    6 ar   
    11    5   38 1    
    12    6    7 ar   
    13    6   10 1    
    14    7    8 ar   
    15    7   39 1    
    16    8    9 1    
    17   10   11 2    
    18   10   12 1    
    19   12   13 1    
    20   13   18 ar   
    21   13   14 ar   
    22   14   15 ar   
    23   14   40 1    
    24   15   16 ar   
    25   15   41 1    
    26   16   22 1    
    27   16   17 ar   
    28   17   18 ar   
    29   17   19 1    
    30   18   42 1    
    31   19   20 1    
    32   20   21 2    
    33   20   33 1    
    34   21   22 1    
    35   21   31 1    
    36   22   23 1    
    37   22   24 1    
    38   24   29 ar   
    39   24   25 ar   
    40   25   26 ar   
    41   25   43 1    
    42   26   27 ar   
    43   26   44 1    
    44   27   28 ar   
    45   27   30 1    
    46   28   29 ar   
    47   28   45 1    
    48   29   46 1    
    49   31   32 3    
    50   33   47 1    
    51   33   48 1    
@<TRIPOS>SUBSTRUCTURE
     1 UNK         1 GROUP             0       ****    0 ROOT    
