@<TRIPOS>MOLECULE
ZINC58849665_6023
62   66    1
SMALL
USER_CHARGES


@<TRIPOS>ATOM
      1 C1         -3.1391   54.3148   16.2050 C.3       1 UNK         0.0000 
      2 C2         -3.3520   52.8095   16.4276 C.3       1 UNK         0.0000 
      3 O3         -3.0519   52.4250   17.7682 O.3       1 UNK         0.0000 
      4 C4         -1.7397   52.2886   18.1811 C.ar      1 UNK         0.0000 
      5 C5         -1.5539   51.9563   19.5200 C.ar      1 UNK         0.0000 
      6 C6         -0.2729   51.8291   20.0456 C.ar      1 UNK         0.0000 
      7 C7          0.8536   52.0127   19.2341 C.ar      1 UNK         0.0000 
      8 C8          0.6674   52.3154   17.8822 C.ar      1 UNK         0.0000 
      9 C9         -0.6158   52.4563   17.3583 C.ar      1 UNK         0.0000 
     10 C10         2.2910   51.9071   19.7874 C.3       1 UNK         0.0000 
     11 H11         2.9401   52.1594   18.9470 H         1 UNK         0.0000 
     12 C12         2.7428   50.4924   20.2748 C.3       1 UNK         0.0000 
     13 H13         3.8345   50.5164   20.2913 H         1 UNK         0.0000 
     14 C14         2.3054   49.3345   19.3637 C.3       1 UNK         0.0000 
     15 C15         1.1690   48.7033   20.1385 C.2       1 UNK         0.0000 
     16 C16         1.1219   49.1609   21.4024 C.2       1 UNK         0.0000 
     17 C17         2.2630   50.1144   21.6921 C.3       1 UNK         0.0000 
     18 H18         3.0485   49.5707   22.2205 H         1 UNK         0.0000 
     19 C19         1.9066   51.3199   22.5688 C.ar      1 UNK         0.0000 
     20 C20         1.3606   51.1564   23.8517 C.ar      1 UNK         0.0000 
     21 C21         0.9965   52.2604   24.6294 C.ar      1 UNK         0.0000 
     22 C22         1.1491   53.5442   24.1158 C.ar      1 UNK         0.0000 
     23 C23         1.7363   53.7297   22.8752 C.ar      1 UNK         0.0000 
     24 C24         2.1317   52.6348   22.1127 C.ar      1 UNK         0.0000 
     25 N25         2.6056   52.8958   20.8181 N.pl3     1 UNK         0.0000 
     26 S26         0.3050   52.0623   26.2664 S.o2      1 UNK         0.0000 
     27 O27        -1.1064   52.4464   26.1622 O.2       1 UNK         0.0000 
     28 O28         0.7043   50.7521   26.7885 O.2       1 UNK         0.0000 
     29 N29         1.0688   53.2965   27.2818 N.pl3     1 UNK         0.0000 
     30 C30         2.3735   53.1623   27.7587 C.ar      1 UNK         0.0000 
     31 C31         2.5457   52.5445   28.9991 C.ar      1 UNK         0.0000 
     32 C32         3.8131   52.4495   29.5653 C.ar      1 UNK         0.0000 
     33 C33         4.9100   52.9687   28.8817 C.ar      1 UNK         0.0000 
     34 C34         4.7472   53.5971   27.6544 C.ar      1 UNK         0.0000 
     35 C35         3.4762   53.7072   27.0737 C.ar      1 UNK         0.0000 
     36 O36         3.2697   54.3380   25.8624 O.3       1 UNK         0.0000 
     37 C37         4.3862   54.5900   25.0122 C.3       1 UNK         0.0000 
     38 Cl38        4.0153   51.6970   31.1057 Cl        1 UNK         0.0000 
     39 H39        -3.4054   54.5952   15.1857 H         1 UNK         0.0000 
     40 H40        -2.1046   54.6131   16.3683 H         1 UNK         0.0000 
     41 H41        -3.7629   54.8977   16.8812 H         1 UNK         0.0000 
     42 H42        -4.4026   52.5752   16.2539 H         1 UNK         0.0000 
     43 H43        -2.7971   52.2116   15.7029 H         1 UNK         0.0000 
     44 H44        -2.4094   51.8012   20.1602 H         1 UNK         0.0000 
     45 H45        -0.1766   51.5891   21.0903 H         1 UNK         0.0000 
     46 H46         1.5198   52.4538   17.2324 H         1 UNK         0.0000 
     47 H47        -0.7135   52.6990   16.3125 H         1 UNK         0.0000 
     48 H48         1.9920   49.6801   18.3778 H         1 UNK         0.0000 
     49 H49         3.1075   48.6152   19.1989 H         1 UNK         0.0000 
     50 H50         0.5006   47.9824   19.6912 H         1 UNK         0.0000 
     51 H51         0.4232   48.8524   22.1663 H         1 UNK         0.0000 
     52 H52         1.2115   50.1590   24.2427 H         1 UNK         0.0000 
     53 H53         0.8543   54.4088   24.6882 H         1 UNK         0.0000 
     54 H54         1.8645   54.7323   22.4950 H         1 UNK         0.0000 
     55 H55         2.4975   53.8449   20.4760 H         1 UNK         0.0000 
     56 H56         0.7414   54.2330   27.1094 H         1 UNK         0.0000 
     57 H57         1.6898   52.1437   29.5240 H         1 UNK         0.0000 
     58 H58         5.9042   52.8969   29.2816 H         1 UNK         0.0000 
     59 H59         5.6252   53.9950   27.1705 H         1 UNK         0.0000 
     60 H60         4.0323   54.8975   24.0295 H         1 UNK         0.0000 
     61 H61         5.0128   55.3911   25.4063 H         1 UNK         0.0000 
     62 H62         4.9951   53.6965   24.8653 H         1 UNK         0.0000 
@<TRIPOS>BOND
     1    1    2 1    
     2    1   39 1    
     3    1   40 1    
     4    1   41 1    
     5    2    3 1    
     6    2   42 1    
     7    2   43 1    
     8    3    4 1    
     9    4    9 ar   
    10    4    5 ar   
    11    5    6 ar   
    12    5   44 1    
    13    6    7 ar   
    14    6   45 1    
    15    7    8 ar   
    16    7   10 1    
    17    8    9 ar   
    18    8   46 1    
    19    9   47 1    
    20   10   11 1    
    21   10   25 1    
    22   10   12 1    
    23   12   13 1    
    24   12   17 1    
    25   12   14 1    
    26   14   15 1    
    27   14   48 1    
    28   14   49 1    
    29   15   16 2    
    30   15   50 1    
    31   16   17 1    
    32   16   51 1    
    33   17   18 1    
    34   17   19 1    
    35   19   24 ar   
    36   19   20 ar   
    37   20   21 ar   
    38   20   52 1    
    39   21   22 ar   
    40   21   26 1    
    41   22   23 ar   
    42   22   53 1    
    43   23   24 ar   
    44   23   54 1    
    45   24   25 1    
    46   25   55 1    
    47   26   27 2    
    48   26   28 2    
    49   26   29 1    
    50   29   30 1    
    51   29   56 1    
    52   30   35 ar   
    53   30   31 ar   
    54   31   32 ar   
    55   31   57 1    
    56   32   33 ar   
    57   32   38 1    
    58   33   34 ar   
    59   33   58 1    
    60   34   35 ar   
    61   34   59 1    
    62   35   36 1    
    63   36   37 1    
    64   37   60 1    
    65   37   61 1    
    66   37   62 1    
@<TRIPOS>SUBSTRUCTURE
     1 UNK         1 GROUP             0       ****    0 ROOT    
