@<TRIPOS>MOLECULE
ZINC00719919_5441
80   86    1
SMALL
USER_CHARGES


@<TRIPOS>ATOM
      1 C1          2.0118   56.1011   29.3078 C.3       1 UNK         0.0000 
      2 O2          2.7847   54.9729   28.9184 O.3       1 UNK         0.0000 
      3 C3          2.0689   53.9345   28.3683 C.ar      1 UNK         0.0000 
      4 C4          2.2050   53.6959   27.0017 C.ar      1 UNK         0.0000 
      5 C5          1.5158   52.6456   26.3997 C.ar      1 UNK         0.0000 
      6 C6          0.7092   51.7855   27.1557 C.ar      1 UNK         0.0000 
      7 C7          0.5856   52.0278   28.5308 C.ar      1 UNK         0.0000 
      8 C8          1.2501   53.1053   29.1486 C.ar      1 UNK         0.0000 
      9 O9          1.1656   53.4124   30.4923 O.3       1 UNK         0.0000 
     10 C10         0.3028   52.6684   31.3374 C.3       1 UNK         0.0000 
     11 C11        -0.0662   50.6073   26.5236 C.3       1 UNK         0.0000 
     12 H12        -0.0980   49.8237   27.2817 H         1 UNK         0.0000 
     13 C13        -1.5104   51.0276   26.1685 C.3       1 UNK         0.0000 
     14 C14        -1.5650   52.0413   24.9937 C.3       1 UNK         0.0000 
     15 H15        -1.1357   52.9761   25.3442 H         1 UNK         0.0000 
     16 N16        -0.6567   51.5366   23.9410 N.pl3     1 UNK         0.0000 
     17 C17         0.3656   50.6226   24.1268 C.ar      1 UNK         0.0000 
     18 C18         0.9880   50.5095   22.8981 C.ar      1 UNK         0.0000 
     19 C19         0.3788   51.4597   22.0512 C.ar      1 UNK         0.0000 
     20 N20        -0.6120   52.0508   22.6991 N.2       1 UNK         0.0000 
     21 C21         0.6236   51.6585   20.6260 C.2       1 UNK         0.0000 
     22 O22        -0.3129   52.0349   19.9105 O.2       1 UNK         0.0000 
     23 N23         1.8569   51.3694   20.1088 N.am      1 UNK         0.0000 
     24 C24         3.1323   51.5240   20.8384 C.3       1 UNK         0.0000 
     25 C25         3.8379   52.8250   20.3600 C.3       1 UNK         0.0000 
     26 N26         3.9883   52.8967   18.8114 N.4       1 UNK         0.0000 
     27 C27         2.5950   52.6575   18.1786 C.3       1 UNK         0.0000 
     28 C28         2.0338   51.3038   18.6496 C.3       1 UNK         0.0000 
     29 C29         4.6194   54.2736   18.4005 C.3       1 UNK         0.0000 
     30 C30         4.4560   54.5724   16.8720 C.3       1 UNK         0.0000 
     31 C31         4.9990   55.9997   16.5905 C.3       1 UNK         0.0000 
     32 C32         6.5035   56.0752   16.9554 C.3       1 UNK         0.0000 
     33 C33         7.2830   55.0499   16.0906 C.3       1 UNK         0.0000 
     34 C34         6.7580   53.6169   16.3753 C.3       1 UNK         0.0000 
     35 C35         5.2502   53.5409   16.0205 C.3       1 UNK         0.0000 
     36 C36         6.9602   53.2955   17.8791 C.3       1 UNK         0.0000 
     37 C37         6.1493   54.3039   18.7486 C.3       1 UNK         0.0000 
     38 C38         6.6904   55.7318   18.4580 C.3       1 UNK         0.0000 
     39 N39         0.5252   49.9723   25.3334 N.pl3     1 UNK         0.0000 
     40 C40        -3.0009   52.3714   24.5256 C.3       1 UNK         0.0000 
     41 F41        -3.5797   51.3256   23.9281 F         1 UNK         0.0000 
     42 F42        -3.7720   52.7079   25.5588 F         1 UNK         0.0000 
     43 F43        -3.0193   53.3975   23.6772 F         1 UNK         0.0000 
     44 H44         2.6820   56.8959   29.6319 H         1 UNK         0.0000 
     45 H45         1.4131   56.4860   28.4816 H         1 UNK         0.0000 
     46 H46         1.3455   55.8860   30.1437 H         1 UNK         0.0000 
     47 H47         2.8434   54.3283   26.4020 H         1 UNK         0.0000 
     48 H48         1.6408   52.5054   25.3383 H         1 UNK         0.0000 
     49 H49        -0.0369   51.3649   29.1157 H         1 UNK         0.0000 
     50 H50         0.2007   53.1973   32.2860 H         1 UNK         0.0000 
     51 H51        -0.6981   52.5507   30.9178 H         1 UNK         0.0000 
     52 H52         0.7289   51.6969   31.5587 H         1 UNK         0.0000 
     53 H53        -2.0073   51.4412   27.0474 H         1 UNK         0.0000 
     54 H54        -2.1033   50.1412   25.9297 H         1 UNK         0.0000 
     55 H55         1.7803   49.8204   22.6533 H         1 UNK         0.0000 
     56 H56         3.7745   50.6656   20.6254 H         1 UNK         0.0000 
     57 H57         3.0036   51.5663   21.9200 H         1 UNK         0.0000 
     58 H58         4.8463   52.8279   20.7673 H         1 UNK         0.0000 
     59 H59         3.3088   53.7142   20.7030 H         1 UNK         0.0000 
     60 H60         1.9475   53.5059   18.4164 H         1 UNK         0.0000 
     61 H61         2.7332   52.5770   17.1021 H         1 UNK         0.0000 
     62 H62         1.1255   51.0030   18.1245 H         1 UNK         0.0000 
     63 H63         2.7643   50.5201   18.4174 H         1 UNK         0.0000 
     64 H64         4.0800   55.0321   18.9750 H         1 UNK         0.0000 
     65 H65         3.4061   54.5794   16.5790 H         1 UNK         0.0000 
     66 H66         4.4335   56.7409   17.1592 H         1 UNK         0.0000 
     67 H67         4.8535   56.2585   15.5397 H         1 UNK         0.0000 
     68 H68         6.8764   57.0809   16.7591 H         1 UNK         0.0000 
     69 H69         8.3519   55.1095   16.3047 H         1 UNK         0.0000 
     70 H70         7.1745   55.2879   15.0307 H         1 UNK         0.0000 
     71 H71         7.3108   52.8940   15.7701 H         1 UNK         0.0000 
     72 H72         5.1047   53.7426   14.9583 H         1 UNK         0.0000 
     73 H73         4.8824   52.5274   16.1821 H         1 UNK         0.0000 
     74 H74         6.6885   52.2648   18.0954 H         1 UNK         0.0000 
     75 H75         8.0241   53.3608   18.1144 H         1 UNK         0.0000 
     76 H76         6.3184   54.0931   19.8038 H         1 UNK         0.0000 
     77 H77         7.7454   55.8025   18.7273 H         1 UNK         0.0000 
     78 H78         6.1736   56.4657   19.0788 H         1 UNK         0.0000 
     79 H79         1.3770   49.4718   25.5395 H         1 UNK         0.0000 
     80 H80         4.5948   52.1448   18.4912 H         1 UNK         0.0000 
@<TRIPOS>BOND
     1    1    2 1    
     2    1   44 1    
     3    1   45 1    
     4    1   46 1    
     5    2    3 1    
     6    3    8 ar   
     7    3    4 ar   
     8    4    5 ar   
     9    4   47 1    
    10    5    6 ar   
    11    5   48 1    
    12    6    7 ar   
    13    6   11 1    
    14    7    8 ar   
    15    7   49 1    
    16    8    9 1    
    17    9   10 1    
    18   10   50 1    
    19   10   51 1    
    20   10   52 1    
    21   11   12 1    
    22   11   39 1    
    23   11   13 1    
    24   13   14 1    
    25   13   53 1    
    26   13   54 1    
    27   14   15 1    
    28   14   16 1    
    29   14   40 1    
    30   16   20 ar   
    31   16   17 ar   
    32   17   18 ar   
    33   17   39 1    
    34   18   19 ar   
    35   18   55 1    
    36   19   20 ar   
    37   19   21 1    
    38   21   22 2    
    39   21   23 am   BACKBONE|DICT|INTERRES
    40   23   28 1    
    41   23   24 1    
    42   24   25 1    
    43   24   56 1    
    44   24   57 1    
    45   25   26 1    
    46   25   58 1    
    47   25   59 1    
    48   26   27 1    
    49   26   29 1    
    50   26   80 1    
    51   27   28 1    
    52   27   60 1    
    53   27   61 1    
    54   28   62 1    
    55   28   63 1    
    56   29   37 1    
    57   29   30 1    
    58   29   64 1    
    59   30   35 1    
    60   30   31 1    
    61   30   65 1    
    62   31   32 1    
    63   31   66 1    
    64   31   67 1    
    65   32   38 1    
    66   32   33 1    
    67   32   68 1    
    68   33   34 1    
    69   33   69 1    
    70   33   70 1    
    71   34   35 1    
    72   34   36 1    
    73   34   71 1    
    74   35   72 1    
    75   35   73 1    
    76   36   37 1    
    77   36   74 1    
    78   36   75 1    
    79   37   38 1    
    80   37   76 1    
    81   38   77 1    
    82   38   78 1    
    83   39   79 1    
    84   40   41 1    
    85   40   42 1    
    86   40   43 1    
@<TRIPOS>SUBSTRUCTURE
     1 UNK         1 GROUP             0       ****    0 ROOT    
