@<TRIPOS>MOLECULE
ZINC03522808_409
52   55    1
SMALL
USER_CHARGES


@<TRIPOS>ATOM
      1 C1          7.0705   55.6968   24.9378 C.3       1 UNK         0.0000 
      2 C2          5.7275   55.2482   25.5256 C.3       1 UNK         0.0000 
      3 H3          5.0996   56.1340   25.5879 H         1 UNK         0.0000 
      4 C4          5.0657   54.1934   24.6261 C.3       1 UNK         0.0000 
      5 C5          3.6197   53.8892   25.0592 C.3       1 UNK         0.0000 
      6 C6          3.5506   53.6978   26.5791 C.2       1 UNK         0.0000 
      7 C7          4.5908   54.0965   27.4254 C.2       1 UNK         0.0000 
      8 S8          4.2844   53.7891   29.1167 S.3       1 UNK         0.0000 
      9 C9          2.7273   53.0986   28.7238 C.ar      1 UNK         0.0000 
     10 C10         2.4592   53.1217   27.3196 C.ar      1 UNK         0.0000 
     11 C11         1.2091   52.5627   26.9460 C.ar      1 UNK         0.0000 
     12 N12         0.3642   52.0394   27.8715 N.ar      1 UNK         0.0000 
     13 C13         0.7499   52.0972   29.1670 C.ar      1 UNK         0.0000 
     14 N14         1.9064   52.6069   29.6574 N.ar      1 UNK         0.0000 
     15 S15         0.7045   52.4967   25.2457 S.3       1 UNK         0.0000 
     16 C16        -0.7306   51.3945   25.0289 C.3       1 UNK         0.0000 
     17 H17        -0.5070   50.4699   25.5655 H         1 UNK         0.0000 
     18 C18        -2.0418   51.9743   25.6106 C.3       1 UNK         0.0000 
     19 C19        -0.8571   51.0252   23.5336 C.2       1 UNK         0.0000 
     20 O20        -1.7548   51.5205   22.8471 O.2       1 UNK         0.0000 
     21 N21         0.1013   50.2035   23.0455 N.am      1 UNK         0.0000 
     22 C22         0.2380   49.6942   21.7401 C.ar      1 UNK         0.0000 
     23 C23         1.5200   49.2970   21.3483 C.ar      1 UNK         0.0000 
     24 C24         1.7327   48.7663   20.0766 C.ar      1 UNK         0.0000 
     25 C25         0.6586   48.6145   19.1981 C.ar      1 UNK         0.0000 
     26 C26        -0.6250   49.0029   19.5852 C.ar      1 UNK         0.0000 
     27 C27        -0.8370   49.5385   20.8522 C.ar      1 UNK         0.0000 
     28 S28         0.9295   47.9132   17.5705 S.o2      1 UNK         0.0000 
     29 O29         2.0164   46.9367   17.6826 O.2       1 UNK         0.0000 
     30 O30        -0.3808   47.5266   17.0375 O.2       1 UNK         0.0000 
     31 N31         1.5044   49.2404   16.6021 N.pl3     1 UNK         0.0000 
     32 C32         5.9189   54.6800   26.9513 C.3       1 UNK         0.0000 
     33 H33         7.7769   54.8688   24.8825 H         1 UNK         0.0000 
     34 H34         6.9502   56.0905   23.9281 H         1 UNK         0.0000 
     35 H35         7.5043   56.4926   25.5407 H         1 UNK         0.0000 
     36 H36         5.0474   54.5465   23.5939 H         1 UNK         0.0000 
     37 H37         5.6835   53.2969   24.5883 H         1 UNK         0.0000 
     38 H38         3.2958   52.9964   24.5266 H         1 UNK         0.0000 
     39 H39         2.9537   54.6960   24.7503 H         1 UNK         0.0000 
     40 H40         0.0571   51.6880   29.8899 H         1 UNK         0.0000 
     41 H41        -2.8833   51.2977   25.4512 H         1 UNK         0.0000 
     42 H42        -1.9725   52.1394   26.6848 H         1 UNK         0.0000 
     43 H43        -2.2947   52.9300   25.1496 H         1 UNK         0.0000 
     44 H44         0.8758   50.0081   23.6617 H         1 UNK         0.0000 
     45 H45         2.3610   49.4003   22.0196 H         1 UNK         0.0000 
     46 H46         2.7271   48.4693   19.7749 H         1 UNK         0.0000 
     47 H47        -1.4621   48.8866   18.9118 H         1 UNK         0.0000 
     48 H48        -1.8434   49.8089   21.1326 H         1 UNK         0.0000 
     49 H49         2.5371   49.2721   16.4972 H         1 UNK         0.0000 
     50 H50         0.9928   49.3676   15.7281 H         1 UNK         0.0000 
     51 H51         6.2823   55.4493   27.6352 H         1 UNK         0.0000 
     52 H52         6.6721   53.8903   26.9449 H         1 UNK         0.0000 
@<TRIPOS>BOND
     1    1    2 1    
     2    1   33 1    
     3    1   34 1    
     4    1   35 1    
     5    2    3 1    
     6    2   32 1    
     7    2    4 1    
     8    4    5 1    
     9    4   36 1    
    10    4   37 1    
    11    5    6 1    
    12    5   38 1    
    13    5   39 1    
    14    6   10 1    
    15    6    7 2    
    16    7    8 1    
    17    7   32 1    
    18    8    9 1    
    19    9   14 ar   
    20    9   10 ar   
    21   10   11 ar   
    22   11   12 ar   
    23   11   15 1    
    24   12   13 ar   
    25   13   14 ar   
    26   13   40 1    
    27   15   16 1    
    28   16   17 1    
    29   16   18 1    
    30   16   19 1    
    31   18   41 1    
    32   18   42 1    
    33   18   43 1    
    34   19   20 2    
    35   19   21 am   BACKBONE|DICT|INTERRES
    36   21   22 1    
    37   21   44 1    
    38   22   27 ar   
    39   22   23 ar   
    40   23   24 ar   
    41   23   45 1    
    42   24   25 ar   
    43   24   46 1    
    44   25   26 ar   
    45   25   28 1    
    46   26   27 ar   
    47   26   47 1    
    48   27   48 1    
    49   28   29 2    
    50   28   30 2    
    51   28   31 1    
    52   31   49 1    
    53   31   50 1    
    54   32   51 1    
    55   32   52 1    
@<TRIPOS>SUBSTRUCTURE
     1 UNK         1 GROUP             0       ****    0 ROOT    
