@<TRIPOS>MOLECULE
ZINC13729225_3496
67   71    1
SMALL
USER_CHARGES


@<TRIPOS>ATOM
      1 C1          5.9162   55.1603   25.7271 C.3       1 UNK         0.0000 
      2 C2          4.5778   54.4286   25.8721 C.3       1 UNK         0.0000 
      3 O3          3.9673   54.3555   24.5901 O.3       1 UNK         0.0000 
      4 C4          2.8220   53.5985   24.4019 C.ar      1 UNK         0.0000 
      5 C5          2.1650   52.8971   25.4208 C.ar      1 UNK         0.0000 
      6 C6          1.0270   52.1201   25.1718 C.ar      1 UNK         0.0000 
      7 C7          0.5364   52.0651   23.8629 C.ar      1 UNK         0.0000 
      8 C8          1.1961   52.7235   22.8260 C.ar      1 UNK         0.0000 
      9 C9          2.3393   53.4897   23.0963 C.ar      1 UNK         0.0000 
     10 O10         3.0309   54.1033   22.0816 O.3       1 UNK         0.0000 
     11 C11         4.1584   53.3672   21.6164 C.3       1 UNK         0.0000 
     12 C12         5.1043   54.2870   20.8643 C.ar      1 UNK         0.0000 
     13 C13         6.1704   54.8972   21.5318 C.ar      1 UNK         0.0000 
     14 C14         7.0760   55.6879   20.8240 C.ar      1 UNK         0.0000 
     15 C15         6.9027   55.8816   19.4509 C.ar      1 UNK         0.0000 
     16 C16         5.8155   55.3018   18.7930 C.ar      1 UNK         0.0000 
     17 C17         4.9191   54.5033   19.4976 C.ar      1 UNK         0.0000 
     18 C18         7.8932   56.7112   18.6541 C.3       1 UNK         0.0000 
     19 Br19        0.5695   52.4963   21.0413 Br        1 UNK         0.0000 
     20 C20         0.4067   51.2150   26.2463 C.3       1 UNK         0.0000 
     21 N21        -0.2817   51.8644   27.4656 N.4       1 UNK         0.0000 
     22 C22         0.5352   52.5278   28.6042 C.3       1 UNK         0.0000 
     23 C23         0.7260   54.0346   28.2760 C.3       1 UNK         0.0000 
     24 C24         1.4635   54.7253   29.4530 C.3       1 UNK         0.0000 
     25 H25         1.6099   55.7826   29.2253 H         1 UNK         0.0000 
     26 C26         0.6096   54.5890   30.7411 C.3       1 UNK         0.0000 
     27 C27         0.4021   53.0897   31.0734 C.3       1 UNK         0.0000 
     28 H28        -0.1822   52.9962   31.9856 H         1 UNK         0.0000 
     29 C29        -0.3287   52.4016   29.8918 C.3       1 UNK         0.0000 
     30 C30         1.7790   52.4191   31.2881 C.3       1 UNK         0.0000 
     31 C31         2.6438   52.5289   30.0071 C.3       1 UNK         0.0000 
     32 C32         2.8405   54.0370   29.6719 C.3       1 UNK         0.0000 
     33 C33         1.8889   51.7977   28.8673 C.3       1 UNK         0.0000 
     34 O34         3.8908   51.9176   30.2536 O.3       1 UNK         0.0000 
     35 H35         6.3971   55.2872   26.6979 H         1 UNK         0.0000 
     36 H36         6.5968   54.5991   25.0888 H         1 UNK         0.0000 
     37 H37         5.7795   56.1425   25.2798 H         1 UNK         0.0000 
     38 H38         3.9266   54.9633   26.5648 H         1 UNK         0.0000 
     39 H39         4.7599   53.4315   26.2771 H         1 UNK         0.0000 
     40 H40         2.5948   52.9243   26.3997 H         1 UNK         0.0000 
     41 H41        -0.3194   51.4500   23.6312 H         1 UNK         0.0000 
     42 H42         3.8259   52.5644   20.9553 H         1 UNK         0.0000 
     43 H43         4.7110   52.8852   22.4255 H         1 UNK         0.0000 
     44 H44         6.3165   54.7325   22.5884 H         1 UNK         0.0000 
     45 H45         7.9244   56.1136   21.3415 H         1 UNK         0.0000 
     46 H46         5.6758   55.4547   17.7335 H         1 UNK         0.0000 
     47 H47         4.0897   54.0421   18.9759 H         1 UNK         0.0000 
     48 H48         8.5707   57.2906   19.2833 H         1 UNK         0.0000 
     49 H49         8.4893   56.0679   18.0024 H         1 UNK         0.0000 
     50 H50         7.3630   57.4207   18.0168 H         1 UNK         0.0000 
     51 H51        -0.4083   50.6254   25.8193 H         1 UNK         0.0000 
     52 H52         1.1044   50.4918   26.6601 H         1 UNK         0.0000 
     53 H53        -0.9688   52.5273   27.1380 H         1 UNK         0.0000 
     54 H54         1.2901   54.2103   27.3696 H         1 UNK         0.0000 
     55 H55        -0.2395   54.4963   28.0829 H         1 UNK         0.0000 
     56 H56         1.0873   55.1149   31.5701 H         1 UNK         0.0000 
     57 H57        -0.3594   55.0655   30.6106 H         1 UNK         0.0000 
     58 H58        -1.2951   52.8729   29.7413 H         1 UNK         0.0000 
     59 H59        -0.5314   51.3555   30.1358 H         1 UNK         0.0000 
     60 H60         1.6529   51.3821   31.6038 H         1 UNK         0.0000 
     61 H61         2.2875   52.8960   32.1191 H         1 UNK         0.0000 
     62 H62         3.3907   54.5336   30.4740 H         1 UNK         0.0000 
     63 H63         3.4579   54.1483   28.7778 H         1 UNK         0.0000 
     64 H64         1.7084   50.7601   29.1364 H         1 UNK         0.0000 
     65 H65         2.5289   51.7453   27.9964 H         1 UNK         0.0000 
     66 H66         4.4742   52.0933   29.5091 H         1 UNK         0.0000 
     67 H67        -0.8010   51.1151   27.9082 H         1 UNK         0.0000 
@<TRIPOS>BOND
     1    1    2 1    
     2    1   35 1    
     3    1   36 1    
     4    1   37 1    
     5    2    3 1    
     6    2   38 1    
     7    2   39 1    
     8    3    4 1    
     9    4    9 ar   
    10    4    5 ar   
    11    5    6 ar   
    12    5   40 1    
    13    6    7 ar   
    14    6   20 1    
    15    7    8 ar   
    16    7   41 1    
    17    8    9 ar   
    18    8   19 1    
    19    9   10 1    
    20   10   11 1    
    21   11   12 1    
    22   11   42 1    
    23   11   43 1    
    24   12   17 ar   
    25   12   13 ar   
    26   13   14 ar   
    27   13   44 1    
    28   14   15 ar   
    29   14   45 1    
    30   15   16 ar   
    31   15   18 1    
    32   16   17 ar   
    33   16   46 1    
    34   17   47 1    
    35   18   48 1    
    36   18   49 1    
    37   18   50 1    
    38   20   21 1    
    39   20   51 1    
    40   20   52 1    
    41   21   22 1    
    42   21   53 1    
    43   21   67 1    
    44   22   29 1    
    45   22   33 1    
    46   22   23 1    
    47   23   24 1    
    48   23   54 1    
    49   23   55 1    
    50   24   25 1    
    51   24   32 1    
    52   24   26 1    
    53   26   27 1    
    54   26   56 1    
    55   26   57 1    
    56   27   28 1    
    57   27   29 1    
    58   27   30 1    
    59   29   58 1    
    60   29   59 1    
    61   30   31 1    
    62   30   60 1    
    63   30   61 1    
    64   31   32 1    
    65   31   33 1    
    66   31   34 1    
    67   32   62 1    
    68   32   63 1    
    69   33   64 1    
    70   33   65 1    
    71   34   66 1    
@<TRIPOS>SUBSTRUCTURE
     1 UNK         1 GROUP             0       ****    0 ROOT    
