@<TRIPOS>MOLECULE
ZINC12556453_567
70   72    1
SMALL
USER_CHARGES


@<TRIPOS>ATOM
      1 C1         -1.2441   51.4571   14.9301 C.3       1 UNK         0.0000 
      2 C2         -0.0339   52.1929   15.4759 C.ar      1 UNK         0.0000 
      3 C3          1.2478   51.7388   15.1588 C.ar      1 UNK         0.0000 
      4 C4          2.3651   52.4074   15.6508 C.ar      1 UNK         0.0000 
      5 C5          2.1944   53.5281   16.4677 C.ar      1 UNK         0.0000 
      6 C6          0.9143   53.9865   16.7845 C.ar      1 UNK         0.0000 
      7 C7         -0.2008   53.3184   16.2859 C.ar      1 UNK         0.0000 
      8 S8          3.6138   54.3740   17.1511 S.o2      1 UNK         0.0000 
      9 O9          4.8271   53.7227   16.6456 O.2       1 UNK         0.0000 
     10 O10         3.3801   55.8064   16.9415 O.2       1 UNK         0.0000 
     11 N11         3.5093   54.0942   18.8824 N.pl3     1 UNK         0.0000 
     12 C12         3.9205   52.7789   19.4540 C.3       1 UNK         0.0000 
     13 H13         4.8616   52.4961   18.9788 H         1 UNK         0.0000 
     14 C14         2.8335   51.6968   19.1585 C.3       1 UNK         0.0000 
     15 C15         2.8571   50.3629   19.9568 C.3       1 UNK         0.0000 
     16 C16         2.2223   50.4747   21.3614 C.3       1 UNK         0.0000 
     17 C17         2.2267   49.2041   19.1564 C.3       1 UNK         0.0000 
     18 C18         4.2504   52.9502   20.9582 C.2       1 UNK         0.0000 
     19 O19         5.0821   52.1870   21.4573 O.2       1 UNK         0.0000 
     20 N20         3.5444   53.8669   21.6574 N.am      1 UNK         0.0000 
     21 C21         3.4812   53.9267   23.0518 C.ar      1 UNK         0.0000 
     22 C22         2.2171   53.7428   23.6104 C.ar      1 UNK         0.0000 
     23 C23         2.0616   53.6916   24.9912 C.ar      1 UNK         0.0000 
     24 C24         3.1601   53.8440   25.8455 C.ar      1 UNK         0.0000 
     25 C25         4.4156   54.0970   25.2742 C.ar      1 UNK         0.0000 
     26 C26         4.5954   54.1368   23.8886 C.ar      1 UNK         0.0000 
     27 C27         5.9896   54.4396   23.3501 C.3       1 UNK         0.0000 
     28 N28         3.0259   53.7066   27.2231 N.pl3     1 UNK         0.0000 
     29 C29         3.7457   54.5619   28.1782 C.3       1 UNK         0.0000 
     30 C30         4.3052   53.7860   29.3805 C.3       1 UNK         0.0000 
     31 C31         2.4366   52.0995   29.0913 C.3       1 UNK         0.0000 
     32 C32         1.9670   52.9014   27.8589 C.3       1 UNK         0.0000 
     33 C33         3.7052   52.2299   31.2878 C.3       1 UNK         0.0000 
     34 H34        -2.1796   51.9642   15.1706 H         1 UNK         0.0000 
     35 H35        -1.2823   50.4437   15.3315 H         1 UNK         0.0000 
     36 H36        -1.1746   51.3758   13.8445 H         1 UNK         0.0000 
     37 H37         1.3826   50.8651   14.5371 H         1 UNK         0.0000 
     38 H38         3.3544   52.0379   15.4160 H         1 UNK         0.0000 
     39 H39         0.7867   54.8539   17.4167 H         1 UNK         0.0000 
     40 H40        -1.1896   53.6763   16.5316 H         1 UNK         0.0000 
     41 H41         2.6411   54.4740   19.2830 H         1 UNK         0.0000 
     42 H42         1.8319   52.1267   19.2125 H         1 UNK         0.0000 
     43 H43         2.9777   51.4378   18.1107 H         1 UNK         0.0000 
     44 H44         3.9047   50.0972   20.0825 H         1 UNK         0.0000 
     45 H45         1.7736   51.4518   21.5315 H         1 UNK         0.0000 
     46 H46         1.4424   49.7331   21.5303 H         1 UNK         0.0000 
     47 H47         2.9730   50.3222   22.1356 H         1 UNK         0.0000 
     48 H48         1.1718   49.0628   19.3922 H         1 UNK         0.0000 
     49 H49         2.2962   49.3569   18.0795 H         1 UNK         0.0000 
     50 H50         2.7414   48.2663   19.3682 H         1 UNK         0.0000 
     51 H51         2.8537   54.4018   21.1475 H         1 UNK         0.0000 
     52 H52         1.3540   53.5960   22.9772 H         1 UNK         0.0000 
     53 H53         1.0748   53.5172   25.3896 H         1 UNK         0.0000 
     54 H54         5.2825   54.2130   25.9074 H         1 UNK         0.0000 
     55 H55         6.5246   55.1211   24.0123 H         1 UNK         0.0000 
     56 H56         6.5744   53.5241   23.2579 H         1 UNK         0.0000 
     57 H57         5.9466   54.9323   22.3786 H         1 UNK         0.0000 
     58 H58         4.5361   55.1416   27.7018 H         1 UNK         0.0000 
     59 H59         3.0143   55.2970   28.5195 H         1 UNK         0.0000 
     60 H60         4.7043   54.4920   30.1097 H         1 UNK         0.0000 
     61 H61         5.0725   53.0630   29.0934 H         1 UNK         0.0000 
     62 H62         1.5746   51.6977   29.6282 H         1 UNK         0.0000 
     63 H63         3.1240   51.2977   28.8234 H         1 UNK         0.0000 
     64 H64         1.2072   53.6232   28.1631 H         1 UNK         0.0000 
     65 H65         1.4911   52.2259   27.1470 H         1 UNK         0.0000 
     66 H66         4.3378   51.4280   30.9056 H         1 UNK         0.0000 
     67 H67         4.2973   52.8971   31.9175 H         1 UNK         0.0000 
     68 H68         2.8489   51.8385   31.8417 H         1 UNK         0.0000 
     69 N69         3.1585   53.0319   30.0825 N.4       1 UNK         0.0000 
     70 H70         2.4731   53.7117   30.3823 H         1 UNK         0.0000 
@<TRIPOS>BOND
     1    1    2 1    
     2    1   34 1    
     3    1   35 1    
     4    1   36 1    
     5    2    7 ar   
     6    2    3 ar   
     7    3    4 ar   
     8    3   37 1    
     9    4    5 ar   
    10    4   38 1    
    11    5    6 ar   
    12    5    8 1    
    13    6    7 ar   
    14    6   39 1    
    15    7   40 1    
    16    8    9 2    
    17    8   10 2    
    18    8   11 1    
    19   11   12 1    
    20   11   41 1    
    21   12   13 1    
    22   12   14 1    
    23   12   18 1    
    24   14   15 1    
    25   14   42 1    
    26   14   43 1    
    27   15   16 1    
    28   15   17 1    
    29   15   44 1    
    30   16   45 1    
    31   16   46 1    
    32   16   47 1    
    33   17   48 1    
    34   17   49 1    
    35   17   50 1    
    36   18   19 2    
    37   18   20 am   BACKBONE|DICT|INTERRES
    38   20   21 1    
    39   20   51 1    
    40   21   26 ar   
    41   21   22 ar   
    42   22   23 ar   
    43   22   52 1    
    44   23   24 ar   
    45   23   53 1    
    46   24   25 ar   
    47   24   28 1    
    48   25   26 ar   
    49   25   54 1    
    50   26   27 1    
    51   27   55 1    
    52   27   56 1    
    53   27   57 1    
    54   28   32 1    
    55   28   29 1    
    56   29   30 1    
    57   29   58 1    
    58   29   59 1    
    59   30   60 1    
    60   30   61 1    
    61   30   69 1    
    62   31   32 1    
    63   31   62 1    
    64   31   63 1    
    65   31   69 1    
    66   32   64 1    
    67   32   65 1    
    68   33   66 1    
    69   33   67 1    
    70   33   68 1    
    71   33   69 1    
    72   69   70 1    
@<TRIPOS>SUBSTRUCTURE
     1 UNK         1 GROUP             0       ****    0 ROOT    
