@<TRIPOS>MOLECULE
ZINC03007119_1064
66   69    1
SMALL
USER_CHARGES


@<TRIPOS>ATOM
      1 C1          2.0486   52.7228   14.3364 C.3       1 UNK         0.0000 
      2 C2          3.0092   51.6556   14.8986 C.3       1 UNK         0.0000 
      3 C3          4.4197   51.7183   14.2880 C.3       1 UNK         0.0000 
      4 C4          1.7816   51.3059   17.1332 C.3       1 UNK         0.0000 
      5 C5          2.1209   50.8929   18.5789 C.3       1 UNK         0.0000 
      6 C6          2.9184   51.9939   19.2852 C.2       1 UNK         0.0000 
      7 C7          3.6206   52.9542   18.5413 C.2       1 UNK         0.0000 
      8 S8          4.3799   54.1370   19.5531 S.3       1 UNK         0.0000 
      9 C9          3.6901   53.3993   20.9557 C.2       1 UNK         0.0000 
     10 C10         2.9672   52.2239   20.6865 C.2       1 UNK         0.0000 
     11 C11         2.3370   51.3923   21.7191 C.2       1 UNK         0.0000 
     12 O12         1.9052   51.8335   22.7872 O.2       1 UNK         0.0000 
     13 O13         2.3622   50.0900   21.3796 O.3       1 UNK         0.0000 
     14 C14         1.9279   49.0996   22.2948 C.3       1 UNK         0.0000 
     15 N15         3.8112   54.0230   22.1827 N.am      1 UNK         0.0000 
     16 C16         4.8040   53.7722   23.0581 C.2       1 UNK         0.0000 
     17 O17         5.9037   53.3104   22.7440 O.2       1 UNK         0.0000 
     18 C18         4.4803   54.0963   24.5032 C.ar      1 UNK         0.0000 
     19 C19         5.5041   54.3071   25.4381 C.ar      1 UNK         0.0000 
     20 C20         5.2083   54.4091   26.7996 C.ar      1 UNK         0.0000 
     21 C21         3.8841   54.3041   27.2362 C.ar      1 UNK         0.0000 
     22 C22         2.8627   54.1104   26.3135 C.ar      1 UNK         0.0000 
     23 C23         3.1541   54.0215   24.9599 C.ar      1 UNK         0.0000 
     24 S24         3.4638   54.4723   28.9735 S.o2      1 UNK         0.0000 
     25 O25         4.7047   54.8006   29.6817 O.2       1 UNK         0.0000 
     26 O26         2.3043   55.3685   29.0471 O.2       1 UNK         0.0000 
     27 N27         2.9115   52.8674   29.5574 N.pl3     1 UNK         0.0000 
     28 C28         3.6151   52.2084   30.6547 C.3       1 UNK         0.0000 
     29 C29         1.6648   52.3386   29.1911 C.ar      1 UNK         0.0000 
     30 C30         1.5057   51.7642   27.9308 C.ar      1 UNK         0.0000 
     31 C31         0.2704   51.2768   27.5233 C.ar      1 UNK         0.0000 
     32 C32        -0.7926   51.2973   28.4166 C.ar      1 UNK         0.0000 
     33 C33        -0.6283   51.8059   29.7032 C.ar      1 UNK         0.0000 
     34 C34         0.5891   52.3642   30.0816 C.ar      1 UNK         0.0000 
     35 C35         3.6748   53.0311   17.0185 C.3       1 UNK         0.0000 
     36 H36         1.9243   52.5917   13.2602 H         1 UNK         0.0000 
     37 H37         2.4195   53.7352   14.4882 H         1 UNK         0.0000 
     38 H38         1.0555   52.6549   14.7805 H         1 UNK         0.0000 
     39 H39         2.6109   50.6560   14.7054 H         1 UNK         0.0000 
     40 H40         4.3875   51.5129   13.2176 H         1 UNK         0.0000 
     41 H41         4.8823   52.6962   14.4131 H         1 UNK         0.0000 
     42 H42         5.0776   50.9746   14.7395 H         1 UNK         0.0000 
     43 H43         1.1026   52.1578   17.0641 H         1 UNK         0.0000 
     44 H44         1.3725   50.4477   16.5969 H         1 UNK         0.0000 
     45 H45         1.1982   50.6590   19.1092 H         1 UNK         0.0000 
     46 H46         2.7143   49.9760   18.5718 H         1 UNK         0.0000 
     47 H47         2.3046   48.1275   21.9752 H         1 UNK         0.0000 
     48 H48         2.3145   49.2963   23.2987 H         1 UNK         0.0000 
     49 H49         0.8374   49.0607   22.3443 H         1 UNK         0.0000 
     50 H50         3.0274   54.5797   22.4888 H         1 UNK         0.0000 
     51 H51         6.5370   54.3469   25.1199 H         1 UNK         0.0000 
     52 H52         6.0094   54.5622   27.5096 H         1 UNK         0.0000 
     53 H53         1.8329   54.0594   26.6387 H         1 UNK         0.0000 
     54 H54         2.3286   53.8444   24.2872 H         1 UNK         0.0000 
     55 H55         2.9266   51.8460   31.4205 H         1 UNK         0.0000 
     56 H56         4.1835   51.3576   30.2773 H         1 UNK         0.0000 
     57 H57         4.3043   52.8857   31.1531 H         1 UNK         0.0000 
     58 H58         2.3453   51.6970   27.2632 H         1 UNK         0.0000 
     59 H59         0.1519   50.8368   26.5428 H         1 UNK         0.0000 
     60 H60        -1.7389   50.8575   28.1302 H         1 UNK         0.0000 
     61 H61        -1.4319   51.7270   30.4182 H         1 UNK         0.0000 
     62 H62         0.6985   52.7725   31.0768 H         1 UNK         0.0000 
     63 H63         4.6983   53.1060   16.6494 H         1 UNK         0.0000 
     64 H64         3.0570   53.8459   16.6411 H         1 UNK         0.0000 
     65 N65         3.1046   51.7017   16.4492 N.4       1 UNK         0.0000 
     66 H66         3.7469   50.9423   16.6796 H         1 UNK         0.0000 
@<TRIPOS>BOND
     1    1    2 1    
     2    1   36 1    
     3    1   37 1    
     4    1   38 1    
     5    2    3 1    
     6    2   39 1    
     7    2   65 1    
     8    3   40 1    
     9    3   41 1    
    10    3   42 1    
    11    4    5 1    
    12    4   43 1    
    13    4   44 1    
    14    4   65 1    
    15    5    6 1    
    16    5   45 1    
    17    5   46 1    
    18    6   10 1    
    19    6    7 2    
    20    7    8 1    
    21    7   35 1    
    22    8    9 1    
    23    9   10 2    
    24    9   15 am   BACKBONE|DICT|INTERRES
    25   10   11 1    
    26   11   12 2    
    27   11   13 1    
    28   13   14 1    
    29   14   47 1    
    30   14   48 1    
    31   14   49 1    
    32   15   16 am   BACKBONE|DICT|INTERRES
    33   15   50 1    
    34   16   17 2    
    35   16   18 1    
    36   18   23 ar   
    37   18   19 ar   
    38   19   20 ar   
    39   19   51 1    
    40   20   21 ar   
    41   20   52 1    
    42   21   22 ar   
    43   21   24 1    
    44   22   23 ar   
    45   22   53 1    
    46   23   54 1    
    47   24   25 2    
    48   24   26 2    
    49   24   27 1    
    50   27   28 1    
    51   27   29 1    
    52   28   55 1    
    53   28   56 1    
    54   28   57 1    
    55   29   34 ar   
    56   29   30 ar   
    57   30   31 ar   
    58   30   58 1    
    59   31   32 ar   
    60   31   59 1    
    61   32   33 ar   
    62   32   60 1    
    63   33   34 ar   
    64   33   61 1    
    65   34   62 1    
    66   35   63 1    
    67   35   64 1    
    68   35   65 1    
    69   65   66 1    
@<TRIPOS>SUBSTRUCTURE
     1 UNK         1 GROUP             0       ****    0 ROOT    
