@<TRIPOS>MOLECULE
ZINC39608935_631
76   80    1
SMALL
USER_CHARGES


@<TRIPOS>ATOM
      1 C1         -4.4115   45.1586   26.4762 C.3       1 UNK         0.0000 
      2 C2         -3.0789   45.9068   26.6261 C.3       1 UNK         0.0000 
      3 C3         -2.9457   47.0751   25.6623 C.ar      1 UNK         0.0000 
      4 C4         -2.4646   46.8733   24.3669 C.ar      1 UNK         0.0000 
      5 C5         -2.3008   47.9544   23.5080 C.ar      1 UNK         0.0000 
      6 C6         -2.5760   49.2564   23.9463 C.ar      1 UNK         0.0000 
      7 C7         -3.0997   49.4439   25.2322 C.ar      1 UNK         0.0000 
      8 C8         -3.2909   48.3591   26.0815 C.ar      1 UNK         0.0000 
      9 C9         -2.3927   50.4554   23.0459 C.2       1 UNK         0.0000 
     10 O10        -3.2940   51.2966   22.9980 O.2       1 UNK         0.0000 
     11 N11        -1.2472   50.5956   22.3275 N.am      1 UNK         0.0000 
     12 C12        -1.0526   51.7727   21.4733 C.3       1 UNK         0.0000 
     13 C13         0.4553   51.7873   21.1671 C.3       1 UNK         0.0000 
     14 H14         0.6527   52.1779   20.1706 H         1 UNK         0.0000 
     15 C15         0.8547   50.2794   21.2352 C.3       1 UNK         0.0000 
     16 C16        -0.0224   49.7773   22.4052 C.3       1 UNK         0.0000 
     17 C17         2.3620   49.9282   21.4081 C.3       1 UNK         0.0000 
     18 C18         3.1804   50.4628   20.2098 C.3       1 UNK         0.0000 
     19 N19         2.7033   49.7143   18.9479 N.4       1 UNK         0.0000 
     20 C20         1.1905   49.8832   18.6869 C.3       1 UNK         0.0000 
     21 C21         0.4272   49.4668   19.9664 C.3       1 UNK         0.0000 
     22 C22         1.2642   52.6275   22.1959 C.2       1 UNK         0.0000 
     23 O23         0.9123   52.7397   23.3697 O.2       1 UNK         0.0000 
     24 N24         2.3038   53.2965   21.6818 N.am      1 UNK         0.0000 
     25 C25         3.2545   54.1685   22.3586 C.3       1 UNK         0.0000 
     26 H26         2.6900   55.0079   22.7567 H         1 UNK         0.0000 
     27 C27         4.2642   54.6800   21.3265 C.3       1 UNK         0.0000 
     28 C28         5.3553   53.6338   21.2536 C.3       1 UNK         0.0000 
     29 C29         5.3741   52.9692   22.6343 C.3       1 UNK         0.0000 
     30 C30         4.1139   53.4502   23.4120 C.3       1 UNK         0.0000 
     31 H31         3.5044   52.6759   23.8723 H         1 UNK         0.0000 
     32 O32         4.4941   54.3968   24.4147 O.3       1 UNK         0.0000 
     33 C33         3.5044   54.6439   25.4206 C.3       1 UNK         0.0000 
     34 C34         3.8035   53.9218   26.7254 C.ar      1 UNK         0.0000 
     35 C35         5.1044   53.8930   27.2327 C.ar      1 UNK         0.0000 
     36 C36         5.3547   53.3113   28.4734 C.ar      1 UNK         0.0000 
     37 C37         4.3038   52.7549   29.2000 C.ar      1 UNK         0.0000 
     38 C38         3.0046   52.7731   28.6969 C.ar      1 UNK         0.0000 
     39 C39         2.7549   53.3582   27.4587 C.ar      1 UNK         0.0000 
     40 H40        -4.4661   44.3133   27.1635 H         1 UNK         0.0000 
     41 H41        -4.5502   44.7766   25.4659 H         1 UNK         0.0000 
     42 H42        -5.2537   45.8149   26.6967 H         1 UNK         0.0000 
     43 H43        -2.9673   46.2684   27.6507 H         1 UNK         0.0000 
     44 H44        -2.2356   45.2339   26.4823 H         1 UNK         0.0000 
     45 H45        -2.2106   45.8841   24.0213 H         1 UNK         0.0000 
     46 H46        -1.9701   47.7650   22.4974 H         1 UNK         0.0000 
     47 H47        -3.3478   50.4343   25.5863 H         1 UNK         0.0000 
     48 H48        -3.6589   48.5244   27.0845 H         1 UNK         0.0000 
     49 H49        -1.5891   51.6450   20.5331 H         1 UNK         0.0000 
     50 H50        -1.3606   52.7152   21.9277 H         1 UNK         0.0000 
     51 H51         0.4748   50.0094   23.3500 H         1 UNK         0.0000 
     52 H52        -0.1315   48.6954   22.3966 H         1 UNK         0.0000 
     53 H53         2.7556   50.3624   22.3274 H         1 UNK         0.0000 
     54 H54         2.5102   48.8541   21.5366 H         1 UNK         0.0000 
     55 H55         3.0360   51.5184   19.9887 H         1 UNK         0.0000 
     56 H56         4.2506   50.2927   20.2996 H         1 UNK         0.0000 
     57 H57         3.2607   49.9964   18.1411 H         1 UNK         0.0000 
     58 H58         1.0364   50.9219   18.3909 H         1 UNK         0.0000 
     59 H59         0.9604   49.2427   17.8338 H         1 UNK         0.0000 
     60 H60         0.5525   48.3938   20.1352 H         1 UNK         0.0000 
     61 H61        -0.6399   49.5900   19.7765 H         1 UNK         0.0000 
     62 H62         2.2999   53.4151   20.6778 H         1 UNK         0.0000 
     63 H63         3.8287   54.8963   20.3507 H         1 UNK         0.0000 
     64 H64         4.7117   55.6042   21.6810 H         1 UNK         0.0000 
     65 H65         6.3043   54.0971   20.9914 H         1 UNK         0.0000 
     66 H66         5.1252   52.9008   20.4793 H         1 UNK         0.0000 
     67 H67         6.2796   53.2785   23.1601 H         1 UNK         0.0000 
     68 H68         5.4173   51.8903   22.4817 H         1 UNK         0.0000 
     69 H69         3.5299   55.6972   25.6754 H         1 UNK         0.0000 
     70 H70         2.4888   54.4368   25.0744 H         1 UNK         0.0000 
     71 H71         5.9162   54.3357   26.6742 H         1 UNK         0.0000 
     72 H72         6.3598   53.2975   28.8685 H         1 UNK         0.0000 
     73 H73         4.5000   52.2985   30.1588 H         1 UNK         0.0000 
     74 H74         2.1920   52.3376   29.2606 H         1 UNK         0.0000 
     75 H75         1.7446   53.3836   27.0761 H         1 UNK         0.0000 
     76 H76         2.9133   48.7310   19.0548 H         1 UNK         0.0000 
@<TRIPOS>BOND
     1    1    2 1    
     2    1   40 1    
     3    1   41 1    
     4    1   42 1    
     5    2    3 1    
     6    2   43 1    
     7    2   44 1    
     8    3    8 ar   
     9    3    4 ar   
    10    4    5 ar   
    11    4   45 1    
    12    5    6 ar   
    13    5   46 1    
    14    6    7 ar   
    15    6    9 1    
    16    7    8 ar   
    17    7   47 1    
    18    8   48 1    
    19    9   10 2    
    20    9   11 am   BACKBONE|DICT|INTERRES
    21   11   16 1    
    22   11   12 1    
    23   12   13 1    
    24   12   49 1    
    25   12   50 1    
    26   13   14 1    
    27   13   15 1    
    28   13   22 1    
    29   15   21 1    
    30   15   16 1    
    31   15   17 1    
    32   16   51 1    
    33   16   52 1    
    34   17   18 1    
    35   17   53 1    
    36   17   54 1    
    37   18   19 1    
    38   18   55 1    
    39   18   56 1    
    40   19   20 1    
    41   19   57 1    
    42   19   76 1    
    43   20   21 1    
    44   20   58 1    
    45   20   59 1    
    46   21   60 1    
    47   21   61 1    
    48   22   23 2    
    49   22   24 am   BACKBONE|DICT|INTERRES
    50   24   25 1    
    51   24   62 1    
    52   25   26 1    
    53   25   30 1    
    54   25   27 1    
    55   27   28 1    
    56   27   63 1    
    57   27   64 1    
    58   28   29 1    
    59   28   65 1    
    60   28   66 1    
    61   29   30 1    
    62   29   67 1    
    63   29   68 1    
    64   30   31 1    
    65   30   32 1    
    66   32   33 1    
    67   33   34 1    
    68   33   69 1    
    69   33   70 1    
    70   34   39 ar   
    71   34   35 ar   
    72   35   36 ar   
    73   35   71 1    
    74   36   37 ar   
    75   36   72 1    
    76   37   38 ar   
    77   37   73 1    
    78   38   39 ar   
    79   38   74 1    
    80   39   75 1    
@<TRIPOS>SUBSTRUCTURE
     1 UNK         1 GROUP             0       ****    0 ROOT    
