@<TRIPOS>MOLECULE
ZINC12547053_672
57   62    1
SMALL
USER_CHARGES


@<TRIPOS>ATOM
      1 C1          0.3042   50.6107   26.5960 C.ar      1 UNK         0.0000 
      2 C2         -0.3255   51.6101   25.8527 C.ar      1 UNK         0.0000 
      3 C3         -0.8921   51.2653   24.6267 C.ar      1 UNK         0.0000 
      4 C4         -0.8545   49.9767   24.1569 C.ar      1 UNK         0.0000 
      5 C5         -0.2574   48.9621   24.9003 C.ar      1 UNK         0.0000 
      6 C6          0.3431   49.2968   26.1104 C.ar      1 UNK         0.0000 
      7 N7         -0.2508   47.6366   24.4817 N.pl3     1 UNK         0.0000 
      8 C8         -1.5195   49.9513   22.8325 C.2       1 UNK         0.0000 
      9 O9         -1.6860   48.9877   22.0830 O.2       1 UNK         0.0000 
     10 N10        -1.8922   51.2383   22.6097 N.am      1 UNK         0.0000 
     11 C11        -1.5957   52.0934   23.6225 C.2       1 UNK         0.0000 
     12 O12        -1.8480   53.2966   23.6818 O.2       1 UNK         0.0000 
     13 C13        -2.4929   51.7077   21.3511 C.3       1 UNK         0.0000 
     14 C14        -1.5623   51.6967   20.1059 C.2       1 UNK         0.0000 
     15 O15        -2.1417   51.7941   19.0231 O.2       1 UNK         0.0000 
     16 N16        -0.2041   51.5943   20.1842 N.am      1 UNK         0.0000 
     17 C17         0.6768   51.4172   19.0244 C.3       1 UNK         0.0000 
     18 H18         0.2203   51.7841   18.1031 H         1 UNK         0.0000 
     19 C19         1.8538   52.3137   19.3931 C.3       1 UNK         0.0000 
     20 H20         1.6817   53.2960   18.9425 H         1 UNK         0.0000 
     21 C21         3.2802   51.8635   19.0417 C.3       1 UNK         0.0000 
     22 C22         4.2795   52.8918   19.5785 C.3       1 UNK         0.0000 
     23 C23         4.1746   53.0951   21.1086 C.3       1 UNK         0.0000 
     24 C24         2.7662   52.9522   21.7259 C.2       1 UNK         0.0000 
     25 C25         2.4925   53.2342   23.0279 C.2       1 UNK         0.0000 
     26 C26         3.3408   53.6965   24.1269 C.2       1 UNK         0.0000 
     27 C27         4.6721   54.1229   24.1280 C.2       1 UNK         0.0000 
     28 C28         5.1374   54.4961   25.3928 C.2       1 UNK         0.0000 
     29 C29         4.1875   54.3196   26.3843 C.2       1 UNK         0.0000 
     30 S30         2.7047   53.6971   25.7464 S.3       1 UNK         0.0000 
     31 C31         1.6811   52.4388   20.8897 C.2       1 UNK         0.0000 
     32 N32         0.5052   52.0927   21.2392 N.2       1 UNK         0.0000 
     33 C33         1.0015   49.9508   18.7385 C.2       1 UNK         0.0000 
     34 C34         1.1046   49.3049   17.5060 C.2       1 UNK         0.0000 
     35 C35         1.3852   47.9397   17.5835 C.2       1 UNK         0.0000 
     36 C36         1.5004   47.5013   18.8878 C.2       1 UNK         0.0000 
     37 S37         1.3002   48.7933   20.0186 S.3       1 UNK         0.0000 
     38 H38         0.7598   50.8469   27.5454 H         1 UNK         0.0000 
     39 H39        -0.3541   52.6236   26.2246 H         1 UNK         0.0000 
     40 H40         0.8175   48.5258   26.6998 H         1 UNK         0.0000 
     41 H41        -0.7204   47.3895   23.6230 H         1 UNK         0.0000 
     42 H42         0.1101   46.9569   25.1440 H         1 UNK         0.0000 
     43 H43        -3.3282   51.0390   21.1370 H         1 UNK         0.0000 
     44 H44        -2.8956   52.6990   21.4960 H         1 UNK         0.0000 
     45 H45         3.5044   50.8764   19.4484 H         1 UNK         0.0000 
     46 H46         3.3847   51.7698   17.9606 H         1 UNK         0.0000 
     47 H47         4.0960   53.8445   19.0783 H         1 UNK         0.0000 
     48 H48         5.2955   52.6003   19.3087 H         1 UNK         0.0000 
     49 H49         4.5872   54.0782   21.3221 H         1 UNK         0.0000 
     50 H50         4.8213   52.3695   21.6044 H         1 UNK         0.0000 
     51 H51         1.4754   53.1002   23.3728 H         1 UNK         0.0000 
     52 H52         5.3065   54.1850   23.2605 H         1 UNK         0.0000 
     53 H53         6.1352   54.8662   25.5754 H         1 UNK         0.0000 
     54 H54         4.2896   54.5130   27.4420 H         1 UNK         0.0000 
     55 H55         0.9822   49.8178   16.5637 H         1 UNK         0.0000 
     56 H56         1.5076   47.3060   16.7187 H         1 UNK         0.0000 
     57 H57         1.7100   46.5010   19.2305 H         1 UNK         0.0000 
@<TRIPOS>BOND
     1    1    6 ar   
     2    1    2 ar   
     3    1   38 1    
     4    2    3 ar   
     5    2   39 1    
     6    3   11 1    
     7    3    4 ar   
     8    4    5 ar   
     9    4    8 1    
    10    5    6 ar   
    11    5    7 1    
    12    6   40 1    
    13    7   41 1    
    14    7   42 1    
    15    8    9 2    
    16    8   10 am   BACKBONE|DICT|INTERRES
    17   10   11 am   BACKBONE|DICT|INTERRES
    18   10   13 1    
    19   11   12 2    
    20   13   14 1    
    21   13   43 1    
    22   13   44 1    
    23   14   15 2    
    24   14   16 am   BACKBONE|DICT|INTERRES
    25   16   32 1    
    26   16   17 1    
    27   17   18 1    
    28   17   19 1    
    29   17   33 1    
    30   19   20 1    
    31   19   31 1    
    32   19   21 1    
    33   21   22 1    
    34   21   45 1    
    35   21   46 1    
    36   22   23 1    
    37   22   47 1    
    38   22   48 1    
    39   23   24 1    
    40   23   49 1    
    41   23   50 1    
    42   24   25 2    
    43   24   31 1    
    44   25   26 1    
    45   25   51 1    
    46   26   30 1    
    47   26   27 2    
    48   27   28 1    
    49   27   52 1    
    50   28   29 2    
    51   28   53 1    
    52   29   30 1    
    53   29   54 1    
    54   31   32 2    
    55   33   37 1    
    56   33   34 2    
    57   34   35 1    
    58   34   55 1    
    59   35   36 2    
    60   35   56 1    
    61   36   37 1    
    62   36   57 1    
@<TRIPOS>SUBSTRUCTURE
     1 UNK         1 GROUP             0       ****    0 ROOT    
