@<TRIPOS>MOLECULE
ZINC49429160_3337
57   60    1
SMALL
USER_CHARGES


@<TRIPOS>ATOM
      1 C1          2.3389   42.4702   16.5668 C.3       1 UNK         0.0000 
      2 C2          1.8295   42.2731   17.9804 C.ar      1 UNK         0.0000 
      3 C3          2.4438   41.3881   18.8650 C.ar      1 UNK         0.0000 
      4 C4          1.9040   41.3206   20.1455 C.ar      1 UNK         0.0000 
      5 N5          0.8394   42.0694   20.5279 N.ar      1 UNK         0.0000 
      6 C6          0.2716   42.8964   19.6103 C.ar      1 UNK         0.0000 
      7 N7          0.7497   43.0157   18.3368 N.ar      1 UNK         0.0000 
      8 N8         -0.8469   43.5482   20.0587 N.2       1 UNK         0.0000 
      9 S9         -1.7207   44.5388   19.2042 S.o2      1 UNK         0.0000 
     10 O10        -3.0540   44.7325   19.7851 O.2       1 UNK         0.0000 
     11 O11        -1.6567   44.3472   17.7508 O.2       1 UNK         0.0000 
     12 C12        -0.8385   46.0810   19.5086 C.ar      1 UNK         0.0000 
     13 C13         0.3884   46.3218   18.8817 C.ar      1 UNK         0.0000 
     14 C14         1.1110   47.4746   19.1797 C.ar      1 UNK         0.0000 
     15 C15         0.6002   48.4083   20.0834 C.ar      1 UNK         0.0000 
     16 C16        -0.6534   48.1901   20.6757 C.ar      1 UNK         0.0000 
     17 C17        -1.3659   47.0281   20.3927 C.ar      1 UNK         0.0000 
     18 N18         1.4408   49.4849   20.4131 N.am      1 UNK         0.0000 
     19 C19         1.1212   50.6754   20.9669 C.2       1 UNK         0.0000 
     20 O20        -0.0328   51.0793   21.1233 O.2       1 UNK         0.0000 
     21 C21         2.3188   51.5317   21.4357 C.3       1 UNK         0.0000 
     22 H22         2.8778   50.8488   22.0811 H         1 UNK         0.0000 
     23 C23         3.2381   51.9199   20.2528 C.3       1 UNK         0.0000 
     24 C24         4.4363   52.7167   20.8046 C.3       1 UNK         0.0000 
     25 C25         3.9912   53.9362   21.6424 C.3       1 UNK         0.0000 
     26 N26         3.1082   53.4372   22.7267 N.am      1 UNK         0.0000 
     27 C27         1.8709   52.7666   22.2708 C.3       1 UNK         0.0000 
     28 C28         3.2393   53.7953   24.0347 C.2       1 UNK         0.0000 
     29 O29         2.3060   53.7087   24.8360 O.2       1 UNK         0.0000 
     30 N30         4.4963   54.1520   24.3874 N.am      1 UNK         0.0000 
     31 C31         5.0415   54.2597   25.6600 C.2       1 UNK         0.0000 
     32 C32         6.3889   54.4878   25.9169 C.2       1 UNK         0.0000 
     33 C33         6.6969   54.4971   27.2818 C.2       1 UNK         0.0000 
     34 C34         5.5822   54.3114   28.0829 C.2       1 UNK         0.0000 
     35 S35         4.1386   54.0968   27.1518 S.3       1 UNK         0.0000 
     36 H36         3.2216   41.8618   16.3706 H         1 UNK         0.0000 
     37 H37         1.5701   42.1974   15.8447 H         1 UNK         0.0000 
     38 H38         2.6106   43.5132   16.4054 H         1 UNK         0.0000 
     39 H39         3.2967   40.7893   18.5784 H         1 UNK         0.0000 
     40 H40         2.3052   40.6457   20.8816 H         1 UNK         0.0000 
     41 H41         0.7947   45.6082   18.1795 H         1 UNK         0.0000 
     42 H42         2.0761   47.6293   18.7144 H         1 UNK         0.0000 
     43 H43        -1.0661   48.8828   21.3934 H         1 UNK         0.0000 
     44 H44        -2.3153   46.8599   20.8814 H         1 UNK         0.0000 
     45 H45         2.4070   49.3552   20.1546 H         1 UNK         0.0000 
     46 H46         2.7222   52.5815   19.5534 H         1 UNK         0.0000 
     47 H47         3.6525   51.0499   19.7399 H         1 UNK         0.0000 
     48 H48         5.0583   53.0532   19.9725 H         1 UNK         0.0000 
     49 H49         5.0786   52.0690   21.4040 H         1 UNK         0.0000 
     50 H50         3.4080   54.6080   21.0157 H         1 UNK         0.0000 
     51 H51         4.8590   54.4926   21.9939 H         1 UNK         0.0000 
     52 H52         1.2597   52.4237   23.1075 H         1 UNK         0.0000 
     53 H53         1.2853   53.4642   21.6725 H         1 UNK         0.0000 
     54 H54         5.1611   54.2265   23.6345 H         1 UNK         0.0000 
     55 H55         7.1273   54.6194   25.1397 H         1 UNK         0.0000 
     56 H56         7.6890   54.6482   27.6821 H         1 UNK         0.0000 
     57 H57         5.5478   54.2913   29.1611 H         1 UNK         0.0000 
@<TRIPOS>BOND
     1    1    2 1    
     2    1   36 1    
     3    1   37 1    
     4    1   38 1    
     5    2    7 ar   
     6    2    3 ar   
     7    3    4 ar   
     8    3   39 1    
     9    4    5 ar   
    10    4   40 1    
    11    5    6 ar   
    12    6    7 ar   
    13    6    8 1    
    14    8    9 1    
    15    9   10 2    
    16    9   11 2    
    17    9   12 1    
    18   12   17 ar   
    19   12   13 ar   
    20   13   14 ar   
    21   13   41 1    
    22   14   15 ar   
    23   14   42 1    
    24   15   16 ar   
    25   15   18 1    
    26   16   17 ar   
    27   16   43 1    
    28   17   44 1    
    29   18   19 am   BACKBONE|DICT|INTERRES
    30   18   45 1    
    31   19   20 2    
    32   19   21 1    
    33   21   22 1    
    34   21   27 1    
    35   21   23 1    
    36   23   24 1    
    37   23   46 1    
    38   23   47 1    
    39   24   25 1    
    40   24   48 1    
    41   24   49 1    
    42   25   26 1    
    43   25   50 1    
    44   25   51 1    
    45   26   27 1    
    46   26   28 am   BACKBONE|DICT|INTERRES
    47   27   52 1    
    48   27   53 1    
    49   28   29 2    
    50   28   30 am   BACKBONE|DICT|INTERRES
    51   30   31 am   BACKBONE|DICT|INTERRES
    52   30   54 1    
    53   31   35 1    
    54   31   32 2    
    55   32   33 1    
    56   32   55 1    
    57   33   34 2    
    58   33   56 1    
    59   34   35 1    
    60   34   57 1    
@<TRIPOS>SUBSTRUCTURE
     1 UNK         1 GROUP             0       ****    0 ROOT    
