@<TRIPOS>MOLECULE
ZINC49421300_6030
62   66    1
SMALL
USER_CHARGES


@<TRIPOS>ATOM
      1 C1          0.3174   52.5009   31.4235 C.3       1 UNK         0.0000 
      2 C2          1.3996   52.9362   30.4564 C.ar      1 UNK         0.0000 
      3 C3          2.7138   52.4960   30.6210 C.ar      1 UNK         0.0000 
      4 C4          3.6950   52.8802   29.7107 C.ar      1 UNK         0.0000 
      5 C5          3.3664   53.7163   28.6394 C.ar      1 UNK         0.0000 
      6 C6          2.0547   54.1829   28.5013 C.ar      1 UNK         0.0000 
      7 C7          1.0726   53.7898   29.4039 C.ar      1 UNK         0.0000 
      8 C8          4.4057   54.0805   27.6285 C.2       1 UNK         0.0000 
      9 C9          5.7175   54.4401   27.9466 C.2       1 UNK         0.0000 
     10 S10         6.7003   54.7921   26.5634 S.3       1 UNK         0.0000 
     11 C11         5.3668   54.4507   25.5260 C.ar      1 UNK         0.0000 
     12 C12         4.2188   54.0724   26.2278 C.ar      1 UNK         0.0000 
     13 N13         3.0697   53.7011   25.5868 N.2       1 UNK         0.0000 
     14 C14         3.0326   53.6969   24.2958 C.ar      1 UNK         0.0000 
     15 N15         4.1563   54.1018   23.5925 N.pl3     1 UNK         0.0000 
     16 C16         5.3816   54.4889   24.0731 C.ar      1 UNK         0.0000 
     17 O17         6.3040   54.7945   23.3221 O.2       1 UNK         0.0000 
     18 N18         1.8717   53.2384   23.5910 N.pl3     1 UNK         0.0000 
     19 C19         1.9684   52.5478   22.2956 C.3       1 UNK         0.0000 
     20 C20         1.1778   51.2265   22.2654 C.3       1 UNK         0.0000 
     21 C21        -0.2881   51.4299   22.6649 C.3       1 UNK         0.0000 
     22 C22        -0.3389   52.0377   24.0881 C.3       1 UNK         0.0000 
     23 H23        -0.0088   51.3068   24.8289 H         1 UNK         0.0000 
     24 C24         0.5182   53.3380   24.1754 C.3       1 UNK         0.0000 
     25 C25        -1.8226   52.4033   24.3360 C.2       1 UNK         0.0000 
     26 O26        -2.3488   53.3039   23.6808 O.2       1 UNK         0.0000 
     27 N27        -2.4942   51.7073   25.2771 N.am      1 UNK         0.0000 
     28 C28        -3.8874   51.9468   25.7001 C.3       1 UNK         0.0000 
     29 H29        -3.9426   52.9997   25.9887 H         1 UNK         0.0000 
     30 C30        -4.9001   51.7569   24.5421 C.3       1 UNK         0.0000 
     31 C31        -4.2592   51.1892   26.9931 C.ar      1 UNK         0.0000 
     32 C32        -5.4743   50.4942   27.1209 C.ar      1 UNK         0.0000 
     33 C33        -5.7938   49.8280   28.3009 C.ar      1 UNK         0.0000 
     34 C34        -4.9019   49.8401   29.3660 C.ar      1 UNK         0.0000 
     35 C35        -3.6929   50.5163   29.2568 C.ar      1 UNK         0.0000 
     36 C36        -3.3709   51.1880   28.0776 C.ar      1 UNK         0.0000 
     37 F37        -5.2165   49.1923   30.5110 F         1 UNK         0.0000 
     38 H38         0.7295   52.0959   32.3492 H         1 UNK         0.0000 
     39 H39        -0.3109   53.3476   31.7011 H         1 UNK         0.0000 
     40 H40        -0.3274   51.7502   30.9635 H         1 UNK         0.0000 
     41 H41         2.9739   51.8519   31.4487 H         1 UNK         0.0000 
     42 H42         4.7029   52.5080   29.8271 H         1 UNK         0.0000 
     43 H43         1.7865   54.8375   27.6847 H         1 UNK         0.0000 
     44 H44         0.0578   54.1375   29.2760 H         1 UNK         0.0000 
     45 H45         6.1539   54.5248   28.9317 H         1 UNK         0.0000 
     46 H46         3.0098   52.3014   22.0811 H         1 UNK         0.0000 
     47 H47         1.6750   53.2391   21.5029 H         1 UNK         0.0000 
     48 H48         1.6665   50.4821   22.8969 H         1 UNK         0.0000 
     49 H49         1.2216   50.8139   21.2566 H         1 UNK         0.0000 
     50 H50        -0.7729   50.4527   22.6248 H         1 UNK         0.0000 
     51 H51        -0.6942   52.1092   21.9104 H         1 UNK         0.0000 
     52 H52         0.0467   54.1903   23.6842 H         1 UNK         0.0000 
     53 H53         0.5988   53.6095   25.2275 H         1 UNK         0.0000 
     54 H54        -1.9978   50.9959   25.7957 H         1 UNK         0.0000 
     55 H55        -5.9050   52.0636   24.8308 H         1 UNK         0.0000 
     56 H56        -4.6485   52.3644   23.6795 H         1 UNK         0.0000 
     57 H57        -4.9378   50.7189   24.2119 H         1 UNK         0.0000 
     58 H58        -6.1929   50.4519   26.3181 H         1 UNK         0.0000 
     59 H59        -6.7297   49.2976   28.3910 H         1 UNK         0.0000 
     60 H60        -2.9939   50.4966   30.0810 H         1 UNK         0.0000 
     61 H61        -2.4188   51.6916   28.0098 H         1 UNK         0.0000 
     62 H62         4.0980   54.0991   22.5867 H         1 UNK         0.0000 
@<TRIPOS>BOND
     1    1    2 1    
     2    1   38 1    
     3    1   39 1    
     4    1   40 1    
     5    2    7 ar   
     6    2    3 ar   
     7    3    4 ar   
     8    3   41 1    
     9    4    5 ar   
    10    4   42 1    
    11    5    6 ar   
    12    5    8 1    
    13    6    7 ar   
    14    6   43 1    
    15    7   44 1    
    16    8   12 1    
    17    8    9 2    
    18    9   10 1    
    19    9   45 1    
    20   10   11 1    
    21   11   16 ar   
    22   11   12 ar   
    23   12   13 ar   
    24   13   14 ar   
    25   14   15 ar   
    26   14   18 1    
    27   15   16 ar   
    28   15   62 1    
    29   16   17 2    
    30   18   24 1    
    31   18   19 1    
    32   19   20 1    
    33   19   46 1    
    34   19   47 1    
    35   20   21 1    
    36   20   48 1    
    37   20   49 1    
    38   21   22 1    
    39   21   50 1    
    40   21   51 1    
    41   22   23 1    
    42   22   24 1    
    43   22   25 1    
    44   24   52 1    
    45   24   53 1    
    46   25   26 2    
    47   25   27 am   BACKBONE|DICT|INTERRES
    48   27   28 1    
    49   27   54 1    
    50   28   29 1    
    51   28   30 1    
    52   28   31 1    
    53   30   55 1    
    54   30   56 1    
    55   30   57 1    
    56   31   36 ar   
    57   31   32 ar   
    58   32   33 ar   
    59   32   58 1    
    60   33   34 ar   
    61   33   59 1    
    62   34   35 ar   
    63   34   37 1    
    64   35   36 ar   
    65   35   60 1    
    66   36   61 1    
@<TRIPOS>SUBSTRUCTURE
     1 UNK         1 GROUP             0       ****    0 ROOT    
