@<TRIPOS>MOLECULE
ZINC31854400_4578
44   46    1
SMALL
USER_CHARGES


@<TRIPOS>ATOM
      1 C1          1.0324   52.1609   26.1888 C.3       1 UNK         0.0000 
      2 C2          0.9984   52.4960   27.6665 C.2       1 UNK         0.0000 
      3 C3          1.8274   53.3344   28.4453 C.2       1 UNK         0.0000 
      4 S4          1.2165   53.3213   30.0889 S.3       1 UNK         0.0000 
      5 C5         -0.0032   52.2096   29.5901 C.2       1 UNK         0.0000 
      6 N6          0.0200   51.9003   28.3249 N.2       1 UNK         0.0000 
      7 N7         -0.8956   51.6967   30.4817 N.pl3     1 UNK         0.0000 
      8 C8          2.9849   54.1493   28.1282 C.2       1 UNK         0.0000 
      9 O9          3.5048   54.8576   28.9978 O.2       1 UNK         0.0000 
     10 N10         3.4301   54.0677   26.8553 N.am      1 UNK         0.0000 
     11 N11         4.5156   54.7568   26.4287 N.2       1 UNK         0.0000 
     12 C12         4.8361   54.7161   25.1898 C.2       1 UNK         0.0000 
     13 C13         4.1357   54.1543   24.0058 C.ar      1 UNK         0.0000 
     14 C14         2.7326   54.0863   23.9487 C.ar      1 UNK         0.0000 
     15 C15         2.0769   53.4762   22.8818 C.ar      1 UNK         0.0000 
     16 C16         2.8104   52.9334   21.8333 C.ar      1 UNK         0.0000 
     17 C17         4.1960   53.0504   21.8324 C.ar      1 UNK         0.0000 
     18 C18         4.8606   53.6967   22.8783 C.ar      1 UNK         0.0000 
     19 O19         6.2304   53.7886   22.7612 O.3       1 UNK         0.0000 
     20 C20         6.7942   55.0773   22.4813 C.3       1 UNK         0.0000 
     21 C21         6.9607   55.3832   20.9941 C.ar      1 UNK         0.0000 
     22 C22         8.2304   55.6964   20.4932 C.ar      1 UNK         0.0000 
     23 C23         8.3986   56.0000   19.1458 C.ar      1 UNK         0.0000 
     24 C24         7.2933   56.0073   18.2987 C.ar      1 UNK         0.0000 
     25 C25         6.0228   55.7156   18.7897 C.ar      1 UNK         0.0000 
     26 C26         5.8586   55.4065   20.1371 C.ar      1 UNK         0.0000 
     27 H27         2.0406   52.1055   25.7886 H         1 UNK         0.0000 
     28 H28         0.5841   51.1899   25.9688 H         1 UNK         0.0000 
     29 H29         0.4813   52.8952   25.6025 H         1 UNK         0.0000 
     30 H30        -1.5379   50.9655   30.1999 H         1 UNK         0.0000 
     31 H31        -0.8956   51.8798   31.4881 H         1 UNK         0.0000 
     32 H32         2.9753   53.4864   26.1682 H         1 UNK         0.0000 
     33 H33         5.7854   55.1729   24.9369 H         1 UNK         0.0000 
     34 H34         2.1201   54.4988   24.7349 H         1 UNK         0.0000 
     35 H35         0.9985   53.4202   22.8684 H         1 UNK         0.0000 
     36 H36         2.3057   52.4538   21.0070 H         1 UNK         0.0000 
     37 H37         4.7616   52.6593   20.9985 H         1 UNK         0.0000 
     38 H38         6.3045   55.9105   22.9744 H         1 UNK         0.0000 
     39 H39         7.7847   55.0459   22.9128 H         1 UNK         0.0000 
     40 H40         9.0952   55.6971   21.1422 H         1 UNK         0.0000 
     41 H41         9.3832   56.2283   18.7628 H         1 UNK         0.0000 
     42 H42         7.4216   56.2455   17.2528 H         1 UNK         0.0000 
     43 H43         5.1677   55.7323   18.1292 H         1 UNK         0.0000 
     44 H44         4.8668   55.2032   20.5083 H         1 UNK         0.0000 
@<TRIPOS>BOND
     1    1    2 1    
     2    1   27 1    
     3    1   28 1    
     4    1   29 1    
     5    2    6 1    
     6    2    3 2    
     7    3    4 1    
     8    3    8 1    
     9    4    5 1    
    10    5    6 2    
    11    5    7 1    
    12    7   30 1    
    13    7   31 1    
    14    8    9 2    
    15    8   10 am   BACKBONE|DICT|INTERRES
    16   10   11 1    
    17   10   32 1    
    18   11   12 2    
    19   12   13 1    
    20   12   33 1    
    21   13   18 ar   
    22   13   14 ar   
    23   14   15 ar   
    24   14   34 1    
    25   15   16 ar   
    26   15   35 1    
    27   16   17 ar   
    28   16   36 1    
    29   17   18 ar   
    30   17   37 1    
    31   18   19 1    
    32   19   20 1    
    33   20   21 1    
    34   20   38 1    
    35   20   39 1    
    36   21   26 ar   
    37   21   22 ar   
    38   22   23 ar   
    39   22   40 1    
    40   23   24 ar   
    41   23   41 1    
    42   24   25 ar   
    43   24   42 1    
    44   25   26 ar   
    45   25   43 1    
    46   26   44 1    
@<TRIPOS>SUBSTRUCTURE
     1 UNK         1 GROUP             0       ****    0 ROOT    
