ZINC13243852_5936
                    3D
 Schrodinger Suite 2024-2.
 45 47  0  0  1  0            999 V2000
    1.0935   49.7910   24.1612 C   0  0  0  0  0  0
    0.3071   50.4031   25.0642 C   0  0  0  0  0  0
    0.5091   51.8341   25.5442 C   0  0  0  0  0  0
    0.3747   52.0270   26.9954 N   0  0  0  0  0  0
    1.2872   52.5568   27.9063 C   0  0  0  0  0  0
    0.7581   52.5700   29.1055 N   0  0  0  0  0  0
   -0.5403   52.0971   29.0074 N   0  0  0  0  0  0
   -0.7691   51.8148   27.7479 C   0  0  0  0  0  0
   -2.3401   51.2969   27.1001 S   0  0  0  0  0  0
   -3.1771   50.8032   28.6433 C   0  0  0  0  0  0
   -4.4467   49.9806   28.4279 C   0  0  0  0  0  0
   -5.5431   50.5176   28.5999 O   0  0  0  0  0  0
   -4.2688   48.6882   28.0818 N   0  0  0  0  0  0
   -5.2195   47.6423   28.0461 C   0  0  0  0  0  0
   -6.2879   47.6430   28.9632 C   0  0  0  0  0  0
   -7.1896   46.5872   29.0189 C   0  0  0  0  0  0
   -7.0413   45.5042   28.1639 C   0  0  0  0  0  0
   -5.9914   45.4816   27.2507 C   0  0  0  0  0  0
   -5.0646   46.5375   27.1621 C   0  0  0  0  0  0
   -3.9804   46.4403   26.1166 C   0  0  0  0  0  0
   -3.4625   47.4920   25.6800 O   0  0  0  0  0  0
   -8.1973   46.6042   29.9204 F   0  0  0  0  0  0
    2.6638   53.1098   27.6312 C   0  0  0  0  0  0
    2.8449   53.9312   26.5101 C   0  0  0  0  0  0
    4.0847   54.4968   26.2170 C   0  0  0  0  0  0
    5.1699   54.2693   27.0582 C   0  0  0  0  0  0
    5.0091   53.4746   28.1897 C   0  0  0  0  0  0
    3.7710   52.8960   28.4814 C   0  0  0  0  0  0
    3.6791   51.8868   29.8870 Cl  0  0  0  0  0  0
    6.7048   54.9748   26.7033 Cl  0  0  0  0  0  0
    0.8990   48.7700   23.8638 H   0  0  0  0  0  0
    1.9372   50.2900   23.7082 H   0  0  0  0  0  0
   -0.5268   49.8537   25.4809 H   0  0  0  0  0  0
   -0.2225   52.4805   25.0585 H   0  0  0  0  0  0
    1.4925   52.1564   25.2134 H   0  0  0  0  0  0
   -2.4990   50.2366   29.2791 H   0  0  0  0  0  0
   -3.4372   51.6968   29.2018 H   0  0  0  0  0  0
   -3.3264   48.4323   27.7988 H   0  0  0  0  0  0
   -6.4163   48.4491   29.6696 H   0  0  0  0  0  0
   -7.7408   44.6821   28.2102 H   0  0  0  0  0  0
   -5.9078   44.6235   26.5966 H   0  0  0  0  0  0
    2.0145   54.1544   25.8585 H   0  0  0  0  0  0
    4.1980   55.1217   25.3441 H   0  0  0  0  0  0
    5.8533   53.2995   28.8401 H   0  0  0  0  0  0
   -3.6958   45.2969   25.6816 O   0  5  0  0  0  0
  1  2  2  0  0  0
  1 31  1  0  0  0
  1 32  1  0  0  0
  2  3  1  0  0  0
  2 33  1  0  0  0
  3  4  1  0  0  0
  3 34  1  0  0  0
  3 35  1  0  0  0
  4  8  1  0  0  0
  4  5  1  0  0  0
  5  6  2  0  0  0
  5 23  1  0  0  0
  6  7  1  0  0  0
  7  8  2  0  0  0
  8  9  1  0  0  0
  9 10  1  0  0  0
 10 11  1  0  0  0
 10 36  1  0  0  0
 10 37  1  0  0  0
 11 12  2  0  0  0
 11 13  1  0  0  0
 13 14  1  0  0  0
 13 38  1  0  0  0
 14 19  2  0  0  0
 14 15  1  0  0  0
 15 16  2  0  0  0
 15 39  1  0  0  0
 16 17  1  0  0  0
 16 22  1  0  0  0
 17 18  2  0  0  0
 17 40  1  0  0  0
 18 19  1  0  0  0
 18 41  1  0  0  0
 19 20  1  0  0  0
 20 21  2  0  0  0
 20 45  1  0  0  0
 23 28  2  0  0  0
 23 24  1  0  0  0
 24 25  2  0  0  0
 24 42  1  0  0  0
 25 26  1  0  0  0
 25 43  1  0  0  0
 26 27  2  0  0  0
 26 30  1  0  0  0
 27 28  1  0  0  0
 27 44  1  0  0  0
 28 29  1  0  0  0
M  CHG  1  45  -1
M  END
> <i_i_glide_confnum>
131

> <i_i_glide_lignum>
5937

> <i_i_glide_posenum>
254

> <i_i_glide_rotatable_bonds>
9

> <i_m_Source_File_Index>
4998

> <b_m_subgroup_collapsed>
0

> <r_i_docking_score>
-5.61899

> <r_i_glide_ecoul>
-9.46772

> <r_i_glide_eff_state_penalty>
0

> <r_i_glide_einternal>
8.34447

> <r_i_glide_emodel>
-62.2411

> <r_i_glide_energy>
-45.5597

> <r_i_glide_erotb>
0.703166

> <r_i_glide_esite>
-0.309612

> <r_i_glide_evdw>
-36.092

> <r_i_glide_gscore>
-5.61899

> <r_i_glide_hbond>
-0.337943

> <r_i_glide_ligand_efficiency>
-0.181258

> <r_i_glide_ligand_efficiency_ln>
-1.26725

> <r_i_glide_ligand_efficiency_sa>
-0.569399

> <r_i_glide_lipo>
-1.98414

> <r_i_glide_metal>
0

> <r_i_glide_rewards>
-0.465698

> <s_i_glide_gridfile>
wee1_glide-grid

> <s_m_Source_File>
wee1_decoys_glide_SP.sdf

> <s_m_Source_Path>
/Users/zhangxujun/Desktop

> <s_m_entry_id>
5273

> <s_m_entry_name>
wee1_decoys_glide_SP.4998

> <s_m_subgroup_title>
wee1_decoys_glide_SP

> <s_m_subgroupid>
wee1_decoys_glide_SP


$$$$
