@<TRIPOS>MOLECULE
ZINC59261419_3189
53   54    1
SMALL
USER_CHARGES


@<TRIPOS>ATOM
      1 C1          7.1003   53.7880   27.6897 C.3       1 UNK         0.0000 
      2 C2          5.5726   53.7569   27.5183 C.3       1 UNK         0.0000 
      3 H3          5.3192   52.6962   27.4716 H         1 UNK         0.0000 
      4 C4          5.1175   54.3863   26.1885 C.2       1 UNK         0.0000 
      5 O5          5.7817   55.2931   25.6775 O.2       1 UNK         0.0000 
      6 N6          3.9736   53.8709   25.6622 N.am      1 UNK         0.0000 
      7 N7          3.4995   53.8260   24.3634 N.2       1 UNK         0.0000 
      8 C8          4.2267   54.1529   23.3602 C.2       1 UNK         0.0000 
      9 C9          3.8449   53.9200   21.8962 C.3       1 UNK         0.0000 
     10 C10         4.9680   53.1491   21.1738 C.3       1 UNK         0.0000 
     11 C11         2.4829   53.2212   21.7205 C.3       1 UNK         0.0000 
     12 S12         4.7158   54.4969   28.9440 S.3       1 UNK         0.0000 
     13 C13         3.3716   53.3724   29.0358 C.ar      1 UNK         0.0000 
     14 N14         3.5066   52.0967   29.2802 N.2       1 UNK         0.0000 
     15 N15         2.2460   51.5249   29.1863 N.2       1 UNK         0.0000 
     16 C16         1.3913   52.4821   28.9479 C.ar      1 UNK         0.0000 
     17 N17         2.0470   53.6846   28.8332 N.pl3     1 UNK         0.0000 
     18 C18         1.4597   54.9995   28.6915 C.3       1 UNK         0.0000 
     19 C19         1.1044   55.5570   30.0480 C.2       1 UNK         0.0000 
     20 C20         1.5044   56.7509   30.4821 C.2       1 UNK         0.0000 
     21 C21        -0.1145   52.2991   28.8765 C.3       1 UNK         0.0000 
     22 N22        -0.5574   51.2935   27.9190 N.pl3     1 UNK         0.0000 
     23 C23        -0.5234   51.4378   26.5247 C.ar      1 UNK         0.0000 
     24 C24        -1.2072   50.4781   25.7775 C.ar      1 UNK         0.0000 
     25 C25        -1.2886   50.5912   24.3927 C.ar      1 UNK         0.0000 
     26 C26        -0.6775   51.6662   23.7522 C.ar      1 UNK         0.0000 
     27 C27         0.0484   52.6038   24.4844 C.ar      1 UNK         0.0000 
     28 C28         0.1303   52.4879   25.8704 C.ar      1 UNK         0.0000 
     29 I29        -0.8797   51.8782   21.6809 I         1 UNK         0.0000 
     30 H30         7.5735   53.2347   26.8815 H         1 UNK         0.0000 
     31 H31         7.4955   54.8048   27.6827 H         1 UNK         0.0000 
     32 H32         7.4054   53.3167   28.6239 H         1 UNK         0.0000 
     33 H33         3.3645   53.3830   26.3022 H         1 UNK         0.0000 
     34 H34         5.2113   54.6022   23.4429 H         1 UNK         0.0000 
     35 H35         3.7641   54.8966   21.4211 H         1 UNK         0.0000 
     36 H36         5.8948   53.7225   21.1576 H         1 UNK         0.0000 
     37 H37         4.7035   52.9476   20.1349 H         1 UNK         0.0000 
     38 H38         5.1745   52.1876   21.6469 H         1 UNK         0.0000 
     39 H39         1.6712   53.8527   22.0824 H         1 UNK         0.0000 
     40 H40         2.2801   53.0119   20.6699 H         1 UNK         0.0000 
     41 H41         2.4383   52.2687   22.2528 H         1 UNK         0.0000 
     42 H42         2.1519   55.6462   28.1495 H         1 UNK         0.0000 
     43 H43         0.5627   54.9317   28.0811 H         1 UNK         0.0000 
     44 H44         0.4840   54.9415   30.6854 H         1 UNK         0.0000 
     45 H45         1.2375   57.1213   31.4590 H         1 UNK         0.0000 
     46 H46         2.1215   57.3649   29.8524 H         1 UNK         0.0000 
     47 H47        -0.4702   51.9769   29.8564 H         1 UNK         0.0000 
     48 H48        -0.6437   53.2263   28.6692 H         1 UNK         0.0000 
     49 H49        -0.9771   50.4354   28.2751 H         1 UNK         0.0000 
     50 H50        -1.6967   49.6513   26.2748 H         1 UNK         0.0000 
     51 H51        -1.8389   49.8577   23.8226 H         1 UNK         0.0000 
     52 H52         0.5311   53.4305   23.9873 H         1 UNK         0.0000 
     53 H53         0.6912   53.2254   26.4202 H         1 UNK         0.0000 
@<TRIPOS>BOND
     1    1    2 1    
     2    1   30 1    
     3    1   31 1    
     4    1   32 1    
     5    2    3 1    
     6    2    4 1    
     7    2   12 1    
     8    4    5 2    
     9    4    6 am   BACKBONE|DICT|INTERRES
    10    6    7 1    
    11    6   33 1    
    12    7    8 2    
    13    8    9 1    
    14    8   34 1    
    15    9   10 1    
    16    9   11 1    
    17    9   35 1    
    18   10   36 1    
    19   10   37 1    
    20   10   38 1    
    21   11   39 1    
    22   11   40 1    
    23   11   41 1    
    24   12   13 1    
    25   13   17 ar   
    26   13   14 ar   
    27   14   15 ar   
    28   15   16 ar   
    29   16   17 ar   
    30   16   21 1    
    31   17   18 1    
    32   18   19 1    
    33   18   42 1    
    34   18   43 1    
    35   19   20 2    
    36   19   44 1    
    37   20   45 1    
    38   20   46 1    
    39   21   22 1    
    40   21   47 1    
    41   21   48 1    
    42   22   23 1    
    43   22   49 1    
    44   23   28 ar   
    45   23   24 ar   
    46   24   25 ar   
    47   24   50 1    
    48   25   26 ar   
    49   25   51 1    
    50   26   27 ar   
    51   26   29 1    
    52   27   28 ar   
    53   27   52 1    
    54   28   53 1    
@<TRIPOS>SUBSTRUCTURE
     1 UNK         1 GROUP             0       ****    0 ROOT    
