@<TRIPOS>MOLECULE
ZINC35399281_2841
61   65    1
SMALL
USER_CHARGES


@<TRIPOS>ATOM
      1 C1         -6.0802   49.4521   32.8515 C.3       1 UNK         0.0000 
      2 C2         -6.2690   48.5060   31.6478 C.3       1 UNK         0.0000 
      3 C3         -5.9030   49.1368   30.2955 C.2       1 UNK         0.0000 
      4 O4         -6.1328   50.3313   30.0986 O.2       1 UNK         0.0000 
      5 N5         -5.3409   48.2982   29.3985 N.am      1 UNK         0.0000 
      6 C6         -4.9412   48.5483   28.0718 C.ar      1 UNK         0.0000 
      7 C7         -5.3351   49.6692   27.3255 C.ar      1 UNK         0.0000 
      8 C8         -4.8322   49.8639   26.0431 C.ar      1 UNK         0.0000 
      9 C9         -3.9339   48.9452   25.4993 C.ar      1 UNK         0.0000 
     10 C10        -3.5813   47.8016   26.2152 C.ar      1 UNK         0.0000 
     11 C11        -4.0956   47.5978   27.4927 C.ar      1 UNK         0.0000 
     12 S12        -3.1751   49.2835   23.9119 S.o2      1 UNK         0.0000 
     13 O13        -2.6022   48.0239   23.4216 O.2       1 UNK         0.0000 
     14 O14        -4.1750   50.0187   23.1285 O.2       1 UNK         0.0000 
     15 N15        -1.8515   50.4049   24.2936 N.pl3     1 UNK         0.0000 
     16 C16        -0.5332   49.8520   24.7254 C.3       1 UNK         0.0000 
     17 C17        -0.0481   50.3399   26.1098 C.3       1 UNK         0.0000 
     18 C18        -0.1760   51.8692   26.3177 C.3       1 UNK         0.0000 
     19 C19        -1.6694   52.2170   26.0756 C.3       1 UNK         0.0000 
     20 C20        -2.2236   51.7899   24.7018 C.3       1 UNK         0.0000 
     21 C21         0.7907   52.6657   25.4073 C.ar      1 UNK         0.0000 
     22 C22         0.7781   52.9789   24.0423 C.ar      1 UNK         0.0000 
     23 C23         1.9049   53.7252   23.7143 C.ar      1 UNK         0.0000 
     24 C24         2.6360   53.8417   24.8752 C.ar      1 UNK         0.0000 
     25 N25         1.9785   53.1886   25.8970 N.pl3     1 UNK         0.0000 
     26 C26         2.3841   53.0223   27.2352 C.ar      1 UNK         0.0000 
     27 C27         3.6817   53.2966   27.6875 C.ar      1 UNK         0.0000 
     28 C28         4.0391   53.0412   29.0071 C.ar      1 UNK         0.0000 
     29 C29         3.1076   52.5089   29.8990 C.ar      1 UNK         0.0000 
     30 C30         1.8009   52.2651   29.4655 C.ar      1 UNK         0.0000 
     31 C31         1.4317   52.5327   28.1446 C.ar      1 UNK         0.0000 
     32 N32         0.1306   52.2010   27.7227 N.pl3     1 UNK         0.0000 
     33 C33         3.5136   52.2119   31.3313 C.3       1 UNK         0.0000 
     34 H34        -6.2692   48.9235   33.7866 H         1 UNK         0.0000 
     35 H35        -6.7785   50.2883   32.8216 H         1 UNK         0.0000 
     36 H36        -5.0648   49.8493   32.9042 H         1 UNK         0.0000 
     37 H37        -5.6960   47.5928   31.8109 H         1 UNK         0.0000 
     38 H38        -7.3127   48.1984   31.5939 H         1 UNK         0.0000 
     39 H39        -5.0761   47.3927   29.7467 H         1 UNK         0.0000 
     40 H40        -6.0163   50.4057   27.7219 H         1 UNK         0.0000 
     41 H41        -5.1233   50.7436   25.4885 H         1 UNK         0.0000 
     42 H42        -2.8690   47.0954   25.8138 H         1 UNK         0.0000 
     43 H43        -3.7688   46.7343   28.0538 H         1 UNK         0.0000 
     44 H44        -0.5965   48.7635   24.7338 H         1 UNK         0.0000 
     45 H45         0.1897   50.0776   23.9421 H         1 UNK         0.0000 
     46 H46        -0.6202   49.8133   26.8769 H         1 UNK         0.0000 
     47 H47         0.9813   50.0158   26.2683 H         1 UNK         0.0000 
     48 H48        -1.8410   53.2830   26.2181 H         1 UNK         0.0000 
     49 H49        -2.2811   51.7274   26.8384 H         1 UNK         0.0000 
     50 H50        -1.9439   52.4690   23.9016 H         1 UNK         0.0000 
     51 H51        -3.3098   51.8670   24.7163 H         1 UNK         0.0000 
     52 H52         0.0249   52.6910   23.3270 H         1 UNK         0.0000 
     53 H53         2.1604   54.1159   22.7404 H         1 UNK         0.0000 
     54 H54         3.5808   54.3280   25.0573 H         1 UNK         0.0000 
     55 H55         4.4371   53.6674   27.0122 H         1 UNK         0.0000 
     56 H56         5.0552   53.2329   29.3188 H         1 UNK         0.0000 
     57 H57         1.0740   51.8537   30.1507 H         1 UNK         0.0000 
     58 H58        -0.5033   51.7727   28.3835 H         1 UNK         0.0000 
     59 H59         4.2903   52.8982   31.6726 H         1 UNK         0.0000 
     60 H60         2.6676   52.3146   32.0107 H         1 UNK         0.0000 
     61 H61         3.9090   51.2047   31.4203 H         1 UNK         0.0000 
@<TRIPOS>BOND
     1    1    2 1    
     2    1   34 1    
     3    1   35 1    
     4    1   36 1    
     5    2    3 1    
     6    2   37 1    
     7    2   38 1    
     8    3    4 2    
     9    3    5 am   BACKBONE|DICT|INTERRES
    10    5    6 1    
    11    5   39 1    
    12    6   11 ar   
    13    6    7 ar   
    14    7    8 ar   
    15    7   40 1    
    16    8    9 ar   
    17    8   41 1    
    18    9   10 ar   
    19    9   12 1    
    20   10   11 ar   
    21   10   42 1    
    22   11   43 1    
    23   12   13 2    
    24   12   14 2    
    25   12   15 1    
    26   15   20 1    
    27   15   16 1    
    28   16   17 1    
    29   16   44 1    
    30   16   45 1    
    31   17   18 1    
    32   17   46 1    
    33   17   47 1    
    34   18   32 1    
    35   18   19 1    
    36   18   21 1    
    37   19   20 1    
    38   19   48 1    
    39   19   49 1    
    40   20   50 1    
    41   20   51 1    
    42   21   25 ar   
    43   21   22 ar   
    44   22   23 ar   
    45   22   52 1    
    46   23   24 ar   
    47   23   53 1    
    48   24   25 ar   
    49   24   54 1    
    50   25   26 1    
    51   26   31 ar   
    52   26   27 ar   
    53   27   28 ar   
    54   27   55 1    
    55   28   29 ar   
    56   28   56 1    
    57   29   30 ar   
    58   29   33 1    
    59   30   31 ar   
    60   30   57 1    
    61   31   32 1    
    62   32   58 1    
    63   33   59 1    
    64   33   60 1    
    65   33   61 1    
@<TRIPOS>SUBSTRUCTURE
     1 UNK         1 GROUP             0       ****    0 ROOT    
