@<TRIPOS>MOLECULE
ZINC09245847_612
56   59    1
SMALL
USER_CHARGES


@<TRIPOS>ATOM
      1 C1          0.3044   54.2877   31.7308 C.ar      1 UNK         0.0000 
      2 C2          0.7043   55.3154   30.8814 C.ar      1 UNK         0.0000 
      3 C3          1.1345   55.0160   29.5959 C.ar      1 UNK         0.0000 
      4 C4          1.1859   53.6875   29.1647 C.ar      1 UNK         0.0000 
      5 C5          0.8196   52.6650   30.0567 C.ar      1 UNK         0.0000 
      6 C6          0.3787   52.9664   31.3291 C.ar      1 UNK         0.0000 
      7 C7          1.7692   53.4057   27.7757 C.3       1 UNK         0.0000 
      8 H8          1.4872   54.2449   27.1403 H         1 UNK         0.0000 
      9 C9          1.2308   52.0967   27.1472 C.2       1 UNK         0.0000 
     10 O10         1.5045   51.0210   27.6817 O.2       1 UNK         0.0000 
     11 N11         0.4974   52.1994   26.0152 N.am      1 UNK         0.0000 
     12 C12        -0.0850   51.1486   25.2741 C.ar      1 UNK         0.0000 
     13 C13        -0.4453   49.9094   25.8315 C.ar      1 UNK         0.0000 
     14 C14        -1.0081   48.9107   25.0414 C.ar      1 UNK         0.0000 
     15 C15        -1.2328   49.1375   23.6859 C.ar      1 UNK         0.0000 
     16 C16        -0.9008   50.3714   23.1195 C.ar      1 UNK         0.0000 
     17 C17        -0.3325   51.3747   23.9150 C.ar      1 UNK         0.0000 
     18 S18        -1.1987   50.6518   21.3786 S.o2      1 UNK         0.0000 
     19 O19        -2.2533   49.7386   20.9302 O.2       1 UNK         0.0000 
     20 O20        -1.2545   52.0967   21.1336 O.2       1 UNK         0.0000 
     21 N21         0.2397   50.0622   20.6989 N.pl3     1 UNK         0.0000 
     22 C22         1.3373   50.7907   20.4960 C.2       1 UNK         0.0000 
     23 C23         2.8631   52.5849   20.5716 C.3       1 UNK         0.0000 
     24 C24         3.5043   51.4537   19.7929 C.3       1 UNK         0.0000 
     25 C25         2.6368   50.2202   20.0226 C.3       1 UNK         0.0000 
     26 S26         3.5904   53.4539   27.9451 S.3       1 UNK         0.0000 
     27 C27         4.3774   53.9175   26.4269 C.ar      1 UNK         0.0000 
     28 C28         3.6539   54.0724   25.2411 C.ar      1 UNK         0.0000 
     29 C29         4.3254   54.3593   24.0560 C.ar      1 UNK         0.0000 
     30 C30         5.7114   54.5026   24.0621 C.ar      1 UNK         0.0000 
     31 C31         6.4312   54.3882   25.2481 C.ar      1 UNK         0.0000 
     32 C32         5.7622   54.0960   26.4337 C.ar      1 UNK         0.0000 
     33 H33        -0.0171   54.4966   32.7386 H         1 UNK         0.0000 
     34 H34         0.7045   56.3413   31.2189 H         1 UNK         0.0000 
     35 H35         1.4569   55.8177   28.9467 H         1 UNK         0.0000 
     36 H36         0.8804   51.6194   29.8140 H         1 UNK         0.0000 
     37 H37         0.1256   52.1717   32.0121 H         1 UNK         0.0000 
     38 H38         0.3936   53.1199   25.6194 H         1 UNK         0.0000 
     39 H39        -0.3158   49.6957   26.8815 H         1 UNK         0.0000 
     40 H40        -1.2727   47.9666   25.4976 H         1 UNK         0.0000 
     41 H41        -1.6739   48.3566   23.0829 H         1 UNK         0.0000 
     42 H42        -0.0746   52.3256   23.4717 H         1 UNK         0.0000 
     43 H43         0.2180   49.0695   20.5265 H         1 UNK         0.0000 
     44 H44         2.8886   53.5360   20.0376 H         1 UNK         0.0000 
     45 H45         3.2952   52.7063   21.5652 H         1 UNK         0.0000 
     46 H46         4.5450   51.2969   20.0821 H         1 UNK         0.0000 
     47 H47         3.5055   51.6965   18.7270 H         1 UNK         0.0000 
     48 H48         3.0424   49.5573   20.7881 H         1 UNK         0.0000 
     49 H49         2.5016   49.6576   19.0961 H         1 UNK         0.0000 
     50 H50         2.5850   53.9452   25.2135 H         1 UNK         0.0000 
     51 H51         3.7741   54.4724   23.1346 H         1 UNK         0.0000 
     52 H52         6.2331   54.7224   23.1417 H         1 UNK         0.0000 
     53 H53         7.5041   54.5043   25.2394 H         1 UNK         0.0000 
     54 H54         6.3216   53.9790   27.3510 H         1 UNK         0.0000 
     55 N55         1.4976   52.0969   20.7215 N.pl3     1 UNK         0.0000 
     56 H56         0.7364   52.6916   21.0201 H         1 UNK         0.0000 
@<TRIPOS>BOND
     1    1    6 ar   
     2    1    2 ar   
     3    1   33 1    
     4    2    3 ar   
     5    2   34 1    
     6    3    4 ar   
     7    3   35 1    
     8    4    5 ar   
     9    4    7 1    
    10    5    6 ar   
    11    5   36 1    
    12    6   37 1    
    13    7    8 1    
    14    7    9 1    
    15    7   26 1    
    16    9   10 2    
    17    9   11 am   BACKBONE|DICT|INTERRES
    18   11   12 1    
    19   11   38 1    
    20   12   17 ar   
    21   12   13 ar   
    22   13   14 ar   
    23   13   39 1    
    24   14   15 ar   
    25   14   40 1    
    26   15   16 ar   
    27   15   41 1    
    28   16   17 ar   
    29   16   18 1    
    30   17   42 1    
    31   18   19 2    
    32   18   20 2    
    33   18   21 1    
    34   21   22 1    
    35   21   43 1    
    36   22   25 1    
    37   22   55 2    
    38   23   24 1    
    39   23   44 1    
    40   23   45 1    
    41   23   55 1    
    42   24   25 1    
    43   24   46 1    
    44   24   47 1    
    45   25   48 1    
    46   25   49 1    
    47   26   27 1    
    48   27   32 ar   
    49   27   28 ar   
    50   28   29 ar   
    51   28   50 1    
    52   29   30 ar   
    53   29   51 1    
    54   30   31 ar   
    55   30   52 1    
    56   31   32 ar   
    57   31   53 1    
    58   32   54 1    
    59   55   56 1    
@<TRIPOS>SUBSTRUCTURE
     1 UNK         1 GROUP             0       ****    0 ROOT    
