@<TRIPOS>MOLECULE
ZINC02207905_3406
64   68    1
SMALL
USER_CHARGES


@<TRIPOS>ATOM
      1 C1          4.3679   54.1829   18.8195 C.3       1 UNK         0.0000 
      2 C2          5.6579   54.7976   19.3574 C.ar      1 UNK         0.0000 
      3 C3          6.5932   55.2415   18.4151 C.ar      1 UNK         0.0000 
      4 C4          7.8230   55.7572   18.8154 C.ar      1 UNK         0.0000 
      5 C5          8.1250   55.8478   20.1681 C.ar      1 UNK         0.0000 
      6 C6          7.1951   55.4366   21.1195 C.ar      1 UNK         0.0000 
      7 C7          5.9536   54.8956   20.7428 C.ar      1 UNK         0.0000 
      8 C8          5.0932   54.4097   21.8367 C.2       1 UNK         0.0000 
      9 N9          3.8372   54.2172   21.7473 N.2       1 UNK         0.0000 
     10 N10         3.1107   53.7460   22.8452 N.pl3     1 UNK         0.0000 
     11 C11         1.8779   53.0945   22.6870 C.ar      1 UNK         0.0000 
     12 C12         1.3273   52.6874   23.9051 C.ar      1 UNK         0.0000 
     13 C13         2.3039   53.0853   24.8703 C.ar      1 UNK         0.0000 
     14 C14         3.3486   53.7810   24.2198 C.ar      1 UNK         0.0000 
     15 N15         4.3705   54.3269   24.8935 N.ar      1 UNK         0.0000 
     16 C16         4.4224   54.1469   26.2414 C.ar      1 UNK         0.0000 
     17 C17         5.4872   54.6797   27.0007 C.ar      1 UNK         0.0000 
     18 C18         5.5137   54.4788   28.3801 C.ar      1 UNK         0.0000 
     19 C19         4.5289   53.7305   29.0155 C.ar      1 UNK         0.0000 
     20 C20         3.4863   53.1722   28.2898 C.ar      1 UNK         0.0000 
     21 C21         3.4027   53.4027   26.9012 C.ar      1 UNK         0.0000 
     22 N22         2.3607   52.9023   26.1902 N.ar      1 UNK         0.0000 
     23 C23         0.0555   52.0118   24.0782 C.2       1 UNK         0.0000 
     24 O24        -0.6885   51.7384   23.1350 O.2       1 UNK         0.0000 
     25 N25        -0.2364   51.7394   25.3599 N.am      1 UNK         0.0000 
     26 C26        -1.4304   51.0736   25.8688 C.3       1 UNK         0.0000 
     27 H27        -2.2835   51.3763   25.2541 H         1 UNK         0.0000 
     28 C28        -1.3041   49.5427   25.7574 C.3       1 UNK         0.0000 
     29 C29        -1.7370   51.5466   27.3113 C.3       1 UNK         0.0000 
     30 C30        -0.6189   51.2977   28.3610 C.3       1 UNK         0.0000 
     31 C31        -0.1356   52.5291   29.1188 C.ar      1 UNK         0.0000 
     32 C32         0.3024   53.6556   28.4283 C.ar      1 UNK         0.0000 
     33 C33         0.7793   54.7675   29.1108 C.ar      1 UNK         0.0000 
     34 C34         0.7629   54.7733   30.4984 C.ar      1 UNK         0.0000 
     35 C35         0.3162   53.6602   31.2069 C.ar      1 UNK         0.0000 
     36 C36        -0.1072   52.5293   30.5146 C.ar      1 UNK         0.0000 
     37 N37         1.3525   52.8965   21.4350 N.pl3     1 UNK         0.0000 
     38 H38         4.3819   54.0590   17.7357 H         1 UNK         0.0000 
     39 H39         4.2117   53.1920   19.2471 H         1 UNK         0.0000 
     40 H40         3.5054   54.7988   19.0803 H         1 UNK         0.0000 
     41 H41         6.3803   55.1669   17.3584 H         1 UNK         0.0000 
     42 H42         8.5429   56.0752   18.0752 H         1 UNK         0.0000 
     43 H43         9.0865   56.2320   20.4802 H         1 UNK         0.0000 
     44 H44         7.4753   55.5143   22.1610 H         1 UNK         0.0000 
     45 H45         5.6405   54.1985   22.7514 H         1 UNK         0.0000 
     46 H46         6.2642   55.2499   26.5134 H         1 UNK         0.0000 
     47 H47         6.3040   54.8958   28.9741 H         1 UNK         0.0000 
     48 H48         4.5763   53.5715   30.0818 H         1 UNK         0.0000 
     49 H49         2.7332   52.5773   28.7862 H         1 UNK         0.0000 
     50 H50         0.4413   52.0073   26.0554 H         1 UNK         0.0000 
     51 H51        -2.2166   49.0563   26.1002 H         1 UNK         0.0000 
     52 H52        -1.1333   49.2197   24.7288 H         1 UNK         0.0000 
     53 H53        -0.4991   49.1602   26.3904 H         1 UNK         0.0000 
     54 H54        -2.6522   51.0609   27.6511 H         1 UNK         0.0000 
     55 H55        -1.9869   52.6051   27.2776 H         1 UNK         0.0000 
     56 H56         0.2522   50.8218   27.9125 H         1 UNK         0.0000 
     57 H57        -1.0066   50.5823   29.0810 H         1 UNK         0.0000 
     58 H58         0.2838   53.6816   27.3531 H         1 UNK         0.0000 
     59 H59         1.1317   55.6338   28.5653 H         1 UNK         0.0000 
     60 H60         1.0955   55.6501   31.0361 H         1 UNK         0.0000 
     61 H61         0.2909   53.6622   32.2889 H         1 UNK         0.0000 
     62 H62        -0.4658   51.6786   31.0772 H         1 UNK         0.0000 
     63 H63         0.5151   52.3405   21.3263 H         1 UNK         0.0000 
     64 H64         1.6062   53.5079   20.6633 H         1 UNK         0.0000 
@<TRIPOS>BOND
     1    1    2 1    
     2    1   38 1    
     3    1   39 1    
     4    1   40 1    
     5    2    7 ar   
     6    2    3 ar   
     7    3    4 ar   
     8    3   41 1    
     9    4    5 ar   
    10    4   42 1    
    11    5    6 ar   
    12    5   43 1    
    13    6    7 ar   
    14    6   44 1    
    15    7    8 1    
    16    8    9 2    
    17    8   45 1    
    18    9   10 1    
    19   10   14 ar   
    20   10   11 ar   
    21   11   12 ar   
    22   11   37 1    
    23   12   13 ar   
    24   12   23 1    
    25   13   22 ar   
    26   13   14 ar   
    27   14   15 ar   
    28   15   16 ar   
    29   16   21 ar   
    30   16   17 ar   
    31   17   18 ar   
    32   17   46 1    
    33   18   19 ar   
    34   18   47 1    
    35   19   20 ar   
    36   19   48 1    
    37   20   21 ar   
    38   20   49 1    
    39   21   22 ar   
    40   23   24 2    
    41   23   25 am   BACKBONE|DICT|INTERRES
    42   25   26 1    
    43   25   50 1    
    44   26   27 1    
    45   26   28 1    
    46   26   29 1    
    47   28   51 1    
    48   28   52 1    
    49   28   53 1    
    50   29   30 1    
    51   29   54 1    
    52   29   55 1    
    53   30   31 1    
    54   30   56 1    
    55   30   57 1    
    56   31   36 ar   
    57   31   32 ar   
    58   32   33 ar   
    59   32   58 1    
    60   33   34 ar   
    61   33   59 1    
    62   34   35 ar   
    63   34   60 1    
    64   35   36 ar   
    65   35   61 1    
    66   36   62 1    
    67   37   63 1    
    68   37   64 1    
@<TRIPOS>SUBSTRUCTURE
     1 UNK         1 GROUP             0       ****    0 ROOT    
