ZINC13398041_2014
                    3D
 Schrodinger Suite 2024-2.
 60 64  0  0  1  0            999 V2000
   -2.2188   51.2967   28.4158 C   0  0  0  0  0  0
   -3.6021   51.1481   28.4133 C   0  0  0  0  0  0
   -4.3343   51.5095   27.2816 C   0  0  0  0  0  0
   -3.6811   51.9442   26.1271 C   0  0  0  0  0  0
   -2.2971   52.0803   26.1256 C   0  0  0  0  0  0
   -1.5676   51.8008   27.2821 C   0  0  0  0  0  0
   -0.1979   52.0957   27.2356 N   0  0  0  0  0  0
    0.5907   52.5410   28.2403 C   0  0  0  0  0  0
    0.2505   52.5692   29.4255 O   0  0  0  0  0  0
    1.9518   53.0718   27.8265 C   0  0  0  0  0  0
    2.9041   53.3742   28.8113 C   0  0  0  0  0  0
    4.1665   53.8892   28.5134 C   0  0  0  0  0  0
    4.4639   54.0910   27.1645 C   0  0  0  0  0  0
    3.5311   53.8022   26.1281 C   0  0  0  0  0  0
    2.2716   53.2970   26.4752 C   0  0  0  0  0  0
    4.1693   54.0969   24.8764 C   0  0  0  0  0  0
    5.4321   54.5750   25.1870 C   0  0  0  0  0  0
    5.6075   54.5477   26.5482 N   0  0  0  0  0  0
    6.4728   54.8143   26.9929 H   0  0  0  0  0  0
    6.5214   54.8953   24.1874 C   0  0  0  0  0  0
    6.2143   54.1303   22.8815 C   0  0  0  0  0  0
    4.7524   54.2739   22.4024 C   0  0  0  0  0  0
    3.6660   53.9038   23.4480 C   0  0  0  0  0  0
   -6.1225   51.4590   27.3217 S   0  0  0  0  0  0
   -6.5231   51.7351   28.7070 O   0  0  0  0  0  0
   -6.5803   52.3265   26.2292 O   0  0  0  0  0  0
   -6.5802   49.7935   26.9117 N   0  0  0  0  0  0
   -6.1743   49.2636   25.5835 C   0  0  0  0  0  0
   -4.8706   48.4339   25.6757 C   0  0  0  0  0  0
   -4.9880   47.3428   26.7613 C   0  0  0  0  0  0
   -5.3806   47.9674   28.1311 C   0  0  1  0  0  0
   -4.5770   48.6075   28.4925 H   0  0  0  0  0  0
   -6.6907   48.7803   27.9934 C   0  0  0  0  0  0
   -5.5929   46.8968   29.2232 C   0  0  0  0  0  0
   -5.6939   47.2954   30.4041 O   0  0  0  0  0  0
   -5.6952   45.6967   28.8817 O   0  5  0  0  0  0
   -1.6721   51.0235   29.3069 H   0  0  0  0  0  0
   -4.0976   50.7831   29.3022 H   0  0  0  0  0  0
   -4.2434   52.2068   25.2429 H   0  0  0  0  0  0
   -1.8068   52.4533   25.2382 H   0  0  0  0  0  0
    0.1896   52.1514   26.3088 H   0  0  0  0  0  0
    2.6622   53.2062   29.8517 H   0  0  0  0  0  0
    4.8820   54.1090   29.2922 H   0  0  0  0  0  0
    1.5719   53.0891   25.6808 H   0  0  0  0  0  0
    7.5041   54.6193   24.5659 H   0  0  0  0  0  0
    6.5505   55.9684   23.9966 H   0  0  0  0  0  0
    6.4387   53.0715   23.0196 H   0  0  0  0  0  0
    6.8891   54.4862   22.1010 H   0  0  0  0  0  0
    4.6033   53.6725   21.5043 H   0  0  0  0  0  0
    4.5898   55.2966   22.0719 H   0  0  0  0  0  0
    2.7659   54.4944   23.2709 H   0  0  0  0  0  0
    3.3657   52.8681   23.3043 H   0  0  0  0  0  0
   -6.9872   48.6382   25.2125 H   0  0  0  0  0  0
   -6.0667   50.0936   24.8847 H   0  0  0  0  0  0
   -4.6555   47.9764   24.7097 H   0  0  0  0  0  0
   -4.0208   49.0813   25.8933 H   0  0  0  0  0  0
   -5.7570   46.6429   26.4264 H   0  0  0  0  0  0
   -4.0426   46.8023   26.8411 H   0  0  0  0  0  0
   -6.9650   49.2767   28.9255 H   0  0  0  0  0  0
   -7.5137   48.1151   27.7270 H   0  0  0  0  0  0
  1  6  2  0  0  0
  1  2  1  0  0  0
  1 37  1  0  0  0
  2  3  2  0  0  0
  2 38  1  0  0  0
  3  4  1  0  0  0
  3 24  1  0  0  0
  4  5  2  0  0  0
  4 39  1  0  0  0
  5  6  1  0  0  0
  5 40  1  0  0  0
  6  7  1  0  0  0
  7  8  1  0  0  0
  7 41  1  0  0  0
  8  9  2  0  0  0
  8 10  1  0  0  0
 10 15  2  0  0  0
 10 11  1  0  0  0
 11 12  2  0  0  0
 11 42  1  0  0  0
 12 13  1  0  0  0
 12 43  1  0  0  0
 13 18  1  0  0  0
 13 14  2  0  0  0
 14 15  1  0  0  0
 14 16  1  0  0  0
 15 44  1  0  0  0
 16 23  1  0  0  0
 16 17  2  0  0  0
 17 18  1  0  0  0
 17 20  1  0  0  0
 18 19  1  0  0  0
 20 21  1  0  0  0
 20 45  1  0  0  0
 20 46  1  0  0  0
 21 22  1  0  0  0
 21 47  1  0  0  0
 21 48  1  0  0  0
 22 23  1  0  0  0
 22 49  1  0  0  0
 22 50  1  0  0  0
 23 51  1  0  0  0
 23 52  1  0  0  0
 24 25  2  0  0  0
 24 26  2  0  0  0
 24 27  1  0  0  0
 27 33  1  0  0  0
 27 28  1  0  0  0
 28 29  1  0  0  0
 28 53  1  0  0  0
 28 54  1  0  0  0
 29 30  1  0  0  0
 29 55  1  0  0  0
 29 56  1  0  0  0
 30 31  1  0  0  0
 30 57  1  0  0  0
 30 58  1  0  0  0
 31 32  1  0  0  0
 31 33  1  0  0  0
 31 34  1  0  0  0
 33 59  1  0  0  0
 33 60  1  0  0  0
 34 35  2  0  0  0
 34 36  1  0  0  0
M  CHG  1  36  -1
M  END
> <i_i_glide_confnum>
76

> <i_i_glide_lignum>
2015

> <i_i_glide_posenum>
145

> <i_i_glide_rotatable_bonds>
6

> <i_m_Source_File_Index>
1521

> <b_m_subgroup_collapsed>
0

> <r_i_docking_score>
-5.47259

> <r_i_glide_ecoul>
-4.76362

> <r_i_glide_eff_state_penalty>
0

> <r_i_glide_einternal>
5.66603

> <r_i_glide_emodel>
-57.233

> <r_i_glide_energy>
-43.87

> <r_i_glide_erotb>
0.439083

> <r_i_glide_esite>
-0.0624923

> <r_i_glide_evdw>
-39.1064

> <r_i_glide_gscore>
-5.47259

> <r_i_glide_hbond>
-0.2

> <r_i_glide_ligand_efficiency>
-0.160958

> <r_i_glide_ligand_efficiency_ln>
-1.20905

> <r_i_glide_ligand_efficiency_sa>
-0.521443

> <r_i_glide_lipo>
-2.77359

> <r_i_glide_metal>
0

> <r_i_glide_rewards>
-0.205723

> <s_i_glide_gridfile>
wee1_glide-grid

> <s_m_Source_File>
wee1_decoys_glide_SP.sdf

> <s_m_Source_Path>
/Users/zhangxujun/Desktop

> <s_m_entry_id>
1796

> <s_m_entry_name>
wee1_decoys_glide_SP.1521

> <s_m_subgroup_title>
wee1_decoys_glide_SP

> <s_m_subgroupid>
wee1_decoys_glide_SP


$$$$
