@<TRIPOS>MOLECULE
ZINC36887631_1735
36   37    1
SMALL
USER_CHARGES


@<TRIPOS>ATOM
      1 C1         -0.5804   51.8320   22.6790 C.3       1 UNK         0.0000 
      2 C2          0.7119   51.4609   23.4467 C.3       1 UNK         0.0000 
      3 H3          0.5091   50.5394   23.9949 H         1 UNK         0.0000 
      4 C4          1.8698   51.0975   22.4817 C.3       1 UNK         0.0000 
      5 C5          2.3950   52.3304   21.7221 C.3       1 UNK         0.0000 
      6 C6          2.7082   53.4662   22.7135 C.3       1 UNK         0.0000 
      7 C7          1.5835   53.6967   23.7496 C.3       1 UNK         0.0000 
      8 N8          1.2061   52.4435   24.4361 N.pl3     1 UNK         0.0000 
      9 C9          0.8771   52.4335   25.7949 C.ar      1 UNK         0.0000 
     10 C10         1.7646   53.0329   26.6976 C.ar      1 UNK         0.0000 
     11 C11         1.4904   53.0874   28.0633 C.ar      1 UNK         0.0000 
     12 C12         0.3043   52.5572   28.5987 C.ar      1 UNK         0.0000 
     13 C13        -0.5852   51.9598   27.6861 C.ar      1 UNK         0.0000 
     14 C14        -0.3136   51.8939   26.3191 C.ar      1 UNK         0.0000 
     15 F15        -1.2406   51.3041   25.5310 F         1 UNK         0.0000 
     16 C16         0.0149   52.6493   30.0620 C.2       1 UNK         0.0000 
     17 N17         0.5990   53.5547   30.7489 N.2       1 UNK         0.0000 
     18 O18         0.3044   53.5458   32.1340 O.3       1 UNK         0.0000 
     19 N19        -0.8956   51.6967   30.4817 N.pl3     1 UNK         0.0000 
     20 H20        -1.0028   50.9533   22.1913 H         1 UNK         0.0000 
     21 H21        -1.3461   52.2450   23.3334 H         1 UNK         0.0000 
     22 H22        -0.4016   52.5718   21.9018 H         1 UNK         0.0000 
     23 H23         1.5777   50.3012   21.7961 H         1 UNK         0.0000 
     24 H24         2.7042   50.7079   23.0659 H         1 UNK         0.0000 
     25 H25         1.6602   52.6692   20.9912 H         1 UNK         0.0000 
     26 H26         3.2871   52.0716   21.1501 H         1 UNK         0.0000 
     27 H27         2.8733   54.3898   22.1568 H         1 UNK         0.0000 
     28 H28         3.6484   53.2833   23.2356 H         1 UNK         0.0000 
     29 H29         0.7049   54.1446   23.2839 H         1 UNK         0.0000 
     30 H30         1.9435   54.4301   24.4712 H         1 UNK         0.0000 
     31 H31         2.6954   53.4510   26.3427 H         1 UNK         0.0000 
     32 H32         2.2204   53.5577   28.7073 H         1 UNK         0.0000 
     33 H33        -1.5207   51.5340   28.0205 H         1 UNK         0.0000 
     34 H34        -0.3008   52.7990   32.2495 H         1 UNK         0.0000 
     35 H35        -1.2474   51.6623   31.4444 H         1 UNK         0.0000 
     36 H36        -1.1639   50.9331   29.8753 H         1 UNK         0.0000 
@<TRIPOS>BOND
     1    1    2 1    
     2    1   20 1    
     3    1   21 1    
     4    1   22 1    
     5    2    3 1    
     6    2    8 1    
     7    2    4 1    
     8    4    5 1    
     9    4   23 1    
    10    4   24 1    
    11    5    6 1    
    12    5   25 1    
    13    5   26 1    
    14    6    7 1    
    15    6   27 1    
    16    6   28 1    
    17    7    8 1    
    18    7   29 1    
    19    7   30 1    
    20    8    9 1    
    21    9   14 ar   
    22    9   10 ar   
    23   10   11 ar   
    24   10   31 1    
    25   11   12 ar   
    26   11   32 1    
    27   12   13 ar   
    28   12   16 1    
    29   13   14 ar   
    30   13   33 1    
    31   14   15 1    
    32   16   17 2    
    33   16   19 1    
    34   17   18 1    
    35   18   34 1    
    36   19   35 1    
    37   19   36 1    
@<TRIPOS>SUBSTRUCTURE
     1 UNK         1 GROUP             0       ****    0 ROOT    
