@<TRIPOS>MOLECULE
ZINC59310754_3451
64   68    1
SMALL
USER_CHARGES


@<TRIPOS>ATOM
      1 C1         -1.2417   44.4707   19.5304 C.3       1 UNK         0.0000 
      2 C2         -0.2176   45.0738   18.5881 C.ar      1 UNK         0.0000 
      3 C3          0.1520   44.4056   17.4203 C.ar      1 UNK         0.0000 
      4 C4          1.0870   44.9718   16.5579 C.ar      1 UNK         0.0000 
      5 C5          1.6687   46.2092   16.8508 C.ar      1 UNK         0.0000 
      6 C6          1.3048   46.8976   18.0249 C.ar      1 UNK         0.0000 
      7 C7          0.3463   46.3178   18.8753 C.ar      1 UNK         0.0000 
      8 N8          1.9033   48.1545   18.2725 N.am      1 UNK         0.0000 
      9 C9          1.8837   48.9069   19.3959 C.2       1 UNK         0.0000 
     10 O10         1.4184   48.5472   20.4764 O.2       1 UNK         0.0000 
     11 C11         2.5391   50.2854   19.2806 C.3       1 UNK         0.0000 
     12 S12         1.6126   51.6153   20.1389 S.3       1 UNK         0.0000 
     13 C13         2.8494   52.3765   21.1566 C.ar      1 UNK         0.0000 
     14 N14         2.4979   53.2421   22.1046 N.2       1 UNK         0.0000 
     15 C15         3.6474   53.5882   22.6261 C.ar      1 UNK         0.0000 
     16 N16         4.6553   52.9376   21.9818 N.pl3     1 UNK         0.0000 
     17 N17         4.1473   52.1566   21.0331 N.2       1 UNK         0.0000 
     18 N18         3.8732   54.3792   23.7266 N.pl3     1 UNK         0.0000 
     19 N19         3.2355   54.0880   24.9376 N.2       1 UNK         0.0000 
     20 C20         3.8077   54.2793   26.0668 C.2       1 UNK         0.0000 
     21 C21         5.2058   54.8966   26.2305 C.3       1 UNK         0.0000 
     22 C22         3.1016   53.8160   27.3836 C.3       1 UNK         0.0000 
     23 C23         2.6856   55.0393   28.2659 C.3       1 UNK         0.0000 
     24 C24         1.9925   54.5650   29.5724 C.3       1 UNK         0.0000 
     25 C25         0.7129   53.7687   29.2152 C.3       1 UNK         0.0000 
     26 C26         1.0948   52.5272   28.3701 C.3       1 UNK         0.0000 
     27 C27         1.8006   52.9827   27.0736 C.3       1 UNK         0.0000 
     28 C28         2.0655   51.6295   29.1681 C.3       1 UNK         0.0000 
     29 C29         3.3488   52.4218   29.5216 C.3       1 UNK         0.0000 
     30 C30         2.9582   53.6469   30.3683 C.3       1 UNK         0.0000 
     31 C31         4.0610   52.9339   28.2454 C.3       1 UNK         0.0000 
     32 C32         2.7053   46.7647   15.8822 C.3       1 UNK         0.0000 
     33 H33        -1.8388   43.7027   19.0372 H         1 UNK         0.0000 
     34 H34        -0.7514   44.0413   20.4050 H         1 UNK         0.0000 
     35 H35        -1.9328   45.2379   19.8791 H         1 UNK         0.0000 
     36 H36        -0.2884   43.4516   17.1731 H         1 UNK         0.0000 
     37 H37         1.3623   44.4386   15.6598 H         1 UNK         0.0000 
     38 H38         0.0110   46.8209   19.7687 H         1 UNK         0.0000 
     39 H39         2.4945   48.4994   17.5236 H         1 UNK         0.0000 
     40 H40         2.7014   50.5707   18.2396 H         1 UNK         0.0000 
     41 H41         3.5161   50.1546   19.7174 H         1 UNK         0.0000 
     42 H42         4.8111   54.7122   23.8878 H         1 UNK         0.0000 
     43 H43         5.9326   54.1398   26.5216 H         1 UNK         0.0000 
     44 H44         5.5835   55.3659   25.3236 H         1 UNK         0.0000 
     45 H45         5.2138   55.6740   26.9892 H         1 UNK         0.0000 
     46 H46         2.0094   55.6977   27.7260 H         1 UNK         0.0000 
     47 H47         3.5455   55.6480   28.5327 H         1 UNK         0.0000 
     48 H48         1.7234   55.4328   30.1786 H         1 UNK         0.0000 
     49 H49         0.1908   53.4599   30.1231 H         1 UNK         0.0000 
     50 H50         0.0150   54.3983   28.6617 H         1 UNK         0.0000 
     51 H51         0.1954   51.9611   28.1213 H         1 UNK         0.0000 
     52 H52         2.0330   52.1029   26.4708 H         1 UNK         0.0000 
     53 H53         1.1042   53.5752   26.4767 H         1 UNK         0.0000 
     54 H54         2.3045   50.7320   28.5957 H         1 UNK         0.0000 
     55 H55         1.5735   51.2969   30.0788 H         1 UNK         0.0000 
     56 H56         4.0327   51.7858   30.0875 H         1 UNK         0.0000 
     57 H57         2.4706   53.2947   31.2786 H         1 UNK         0.0000 
     58 H58         3.8637   54.1885   30.6505 H         1 UNK         0.0000 
     59 H59         4.9504   53.4928   28.5425 H         1 UNK         0.0000 
     60 H60         4.4334   52.0986   27.6750 H         1 UNK         0.0000 
     61 H61         2.8792   46.1093   15.0283 H         1 UNK         0.0000 
     62 H62         2.3969   47.7399   15.5081 H         1 UNK         0.0000 
     63 H63         3.6529   46.8958   16.4042 H         1 UNK         0.0000 
     64 H64         5.6389   53.0051   22.1886 H         1 UNK         0.0000 
@<TRIPOS>BOND
     1    1    2 1    
     2    1   33 1    
     3    1   34 1    
     4    1   35 1    
     5    2    7 ar   
     6    2    3 ar   
     7    3    4 ar   
     8    3   36 1    
     9    4    5 ar   
    10    4   37 1    
    11    5    6 ar   
    12    5   32 1    
    13    6    7 ar   
    14    6    8 1    
    15    7   38 1    
    16    8    9 am   BACKBONE|DICT|INTERRES
    17    8   39 1    
    18    9   10 2    
    19    9   11 1    
    20   11   12 1    
    21   11   40 1    
    22   11   41 1    
    23   12   13 1    
    24   13   17 ar   
    25   13   14 ar   
    26   14   15 ar   
    27   15   16 ar   
    28   15   18 1    
    29   16   17 ar   
    30   16   64 1    
    31   18   19 1    
    32   18   42 1    
    33   19   20 2    
    34   20   21 1    
    35   20   22 1    
    36   21   43 1    
    37   21   44 1    
    38   21   45 1    
    39   22   27 1    
    40   22   31 1    
    41   22   23 1    
    42   23   24 1    
    43   23   46 1    
    44   23   47 1    
    45   24   30 1    
    46   24   25 1    
    47   24   48 1    
    48   25   26 1    
    49   25   49 1    
    50   25   50 1    
    51   26   27 1    
    52   26   28 1    
    53   26   51 1    
    54   27   52 1    
    55   27   53 1    
    56   28   29 1    
    57   28   54 1    
    58   28   55 1    
    59   29   30 1    
    60   29   31 1    
    61   29   56 1    
    62   30   57 1    
    63   30   58 1    
    64   31   59 1    
    65   31   60 1    
    66   32   61 1    
    67   32   62 1    
    68   32   63 1    
@<TRIPOS>SUBSTRUCTURE
     1 UNK         1 GROUP             0       ****    0 ROOT    
