@<TRIPOS>MOLECULE
ZINC65301129_5370
69   73    1
SMALL
USER_CHARGES


@<TRIPOS>ATOM
      1 C1         -5.8148   50.8697   28.3222 C.3       1 UNK         0.0000 
      2 C2         -4.7464   51.2938   27.3326 C.ar      1 UNK         0.0000 
      3 C3         -3.5399   50.5970   27.2621 C.ar      1 UNK         0.0000 
      4 C4         -2.5666   50.9756   26.3431 C.ar      1 UNK         0.0000 
      5 C5         -2.7849   52.0594   25.4759 C.ar      1 UNK         0.0000 
      6 C6         -3.9981   52.7683   25.5458 C.ar      1 UNK         0.0000 
      7 C7         -4.9720   52.3697   26.4699 C.ar      1 UNK         0.0000 
      8 C8         -4.3131   53.9456   24.6275 C.3       1 UNK         0.0000 
      9 N9         -1.7730   52.4927   24.6009 N.am      1 UNK         0.0000 
     10 C10        -0.8881   51.7257   23.9264 C.2       1 UNK         0.0000 
     11 O11        -0.9995   50.5029   23.8234 O.2       1 UNK         0.0000 
     12 C12         0.2815   52.4517   23.2111 C.3       1 UNK         0.0000 
     13 C13         0.6601   53.7812   23.9085 C.3       1 UNK         0.0000 
     14 C14         2.0135   54.4039   23.4570 C.3       1 UNK         0.0000 
     15 N15         3.1195   53.4365   23.4654 N.pl3     1 UNK         0.0000 
     16 C16         2.7261   52.3197   22.5873 C.3       1 UNK         0.0000 
     17 C17         1.5209   51.5390   23.1368 C.3       1 UNK         0.0000 
     18 C18         4.4510   53.8647   23.6236 C.ar      1 UNK         0.0000 
     19 C19         5.3964   54.0968   22.5724 C.ar      1 UNK         0.0000 
     20 C20         6.7040   54.4752   22.8929 C.ar      1 UNK         0.0000 
     21 N21         7.0973   54.6527   24.1537 N.pl3     1 UNK         0.0000 
     22 C22         6.2493   54.4907   25.1847 C.ar      1 UNK         0.0000 
     23 C23         4.8989   54.0969   24.9686 C.ar      1 UNK         0.0000 
     24 C24         4.2914   53.9697   26.2707 C.2       1 UNK         0.0000 
     25 N25         5.0306   54.2615   27.3135 N.2       1 UNK         0.0000 
     26 S26         6.6391   54.6441   26.8794 S.3       1 UNK         0.0000 
     27 C27         2.8866   53.5332   26.6160 C.3       1 UNK         0.0000 
     28 C28         5.1035   53.8587   21.1052 C.2       1 UNK         0.0000 
     29 O29         4.8566   52.7052   20.7523 O.2       1 UNK         0.0000 
     30 N30         5.1538   54.8947   20.2146 N.am      1 UNK         0.0000 
     31 C31         5.9633   56.1187   20.3887 C.3       1 UNK         0.0000 
     32 C32         7.3157   55.9150   19.6547 C.3       1 UNK         0.0000 
     33 C33         7.1249   55.5072   18.1794 C.3       1 UNK         0.0000 
     34 C34         6.1201   54.3478   18.0402 C.3       1 UNK         0.0000 
     35 C35         4.8053   54.6398   18.8009 C.3       1 UNK         0.0000 
     36 H36        -5.7246   49.8101   28.5721 H         1 UNK         0.0000 
     37 H37        -6.8125   51.0082   27.9010 H         1 UNK         0.0000 
     38 H38        -5.7414   51.4556   29.2390 H         1 UNK         0.0000 
     39 H39        -3.3343   49.7624   27.9198 H         1 UNK         0.0000 
     40 H40        -1.6349   50.4264   26.3314 H         1 UNK         0.0000 
     41 H41        -5.9147   52.8981   26.5165 H         1 UNK         0.0000 
     42 H42        -3.7680   53.8965   23.6859 H         1 UNK         0.0000 
     43 H43        -5.3692   53.9431   24.3591 H         1 UNK         0.0000 
     44 H44        -4.0956   54.8923   25.1206 H         1 UNK         0.0000 
     45 H45        -1.7286   53.4876   24.4519 H         1 UNK         0.0000 
     46 H46        -0.0397   52.6247   22.1835 H         1 UNK         0.0000 
     47 H47        -0.1169   54.4966   23.6827 H         1 UNK         0.0000 
     48 H48         0.7256   53.6533   24.9859 H         1 UNK         0.0000 
     49 H49         1.9287   54.8675   22.4766 H         1 UNK         0.0000 
     50 H50         2.2650   55.2097   24.1453 H         1 UNK         0.0000 
     51 H51         2.4985   52.7023   21.5896 H         1 UNK         0.0000 
     52 H52         3.5353   51.6039   22.4784 H         1 UNK         0.0000 
     53 H53         1.8223   51.1751   24.1191 H         1 UNK         0.0000 
     54 H54         1.3498   50.7018   22.4563 H         1 UNK         0.0000 
     55 H55         7.4968   54.6126   22.1741 H         1 UNK         0.0000 
     56 H56         2.5572   52.6945   26.0048 H         1 UNK         0.0000 
     57 H57         2.7863   53.1986   27.6501 H         1 UNK         0.0000 
     58 H58         2.1834   54.3540   26.4942 H         1 UNK         0.0000 
     59 H59         5.4367   56.9268   19.8856 H         1 UNK         0.0000 
     60 H60         6.0241   56.4655   21.4184 H         1 UNK         0.0000 
     61 H61         7.8996   56.8361   19.6979 H         1 UNK         0.0000 
     62 H62         7.9231   55.1618   20.1530 H         1 UNK         0.0000 
     63 H63         8.0832   55.2319   17.7363 H         1 UNK         0.0000 
     64 H64         6.7637   56.3662   17.6119 H         1 UNK         0.0000 
     65 H65         6.5573   53.4129   18.4025 H         1 UNK         0.0000 
     66 H66         5.9000   54.1771   16.9848 H         1 UNK         0.0000 
     67 H67         4.0316   53.8786   18.6868 H         1 UNK         0.0000 
     68 H68         4.3354   55.5461   18.4161 H         1 UNK         0.0000 
     69 H69         8.0746   54.8964   24.2986 H         1 UNK         0.0000 
@<TRIPOS>BOND
     1    1    2 1    
     2    1   36 1    
     3    1   37 1    
     4    1   38 1    
     5    2    7 ar   
     6    2    3 ar   
     7    3    4 ar   
     8    3   39 1    
     9    4    5 ar   
    10    4   40 1    
    11    5    6 ar   
    12    5    9 1    
    13    6    7 ar   
    14    6    8 1    
    15    7   41 1    
    16    8   42 1    
    17    8   43 1    
    18    8   44 1    
    19    9   10 am   BACKBONE|DICT|INTERRES
    20    9   45 1    
    21   10   11 2    
    22   10   12 1    
    23   12   17 1    
    24   12   13 1    
    25   12   46 1    
    26   13   14 1    
    27   13   47 1    
    28   13   48 1    
    29   14   15 1    
    30   14   49 1    
    31   14   50 1    
    32   15   16 1    
    33   15   18 1    
    34   16   17 1    
    35   16   51 1    
    36   16   52 1    
    37   17   53 1    
    38   17   54 1    
    39   18   23 ar   
    40   18   19 ar   
    41   19   20 ar   
    42   19   28 1    
    43   20   21 ar   
    44   20   55 1    
    45   21   22 ar   
    46   21   69 1    
    47   22   26 1    
    48   22   23 ar   
    49   23   24 1    
    50   24   25 2    
    51   24   27 1    
    52   25   26 1    
    53   27   56 1    
    54   27   57 1    
    55   27   58 1    
    56   28   29 2    
    57   28   30 am   BACKBONE|DICT|INTERRES
    58   30   35 1    
    59   30   31 1    
    60   31   32 1    
    61   31   59 1    
    62   31   60 1    
    63   32   33 1    
    64   32   61 1    
    65   32   62 1    
    66   33   34 1    
    67   33   63 1    
    68   33   64 1    
    69   34   35 1    
    70   34   65 1    
    71   34   66 1    
    72   35   67 1    
    73   35   68 1    
@<TRIPOS>SUBSTRUCTURE
     1 UNK         1 GROUP             0       ****    0 ROOT    
