@<TRIPOS>MOLECULE
ZINC02268321_607
50   53    1
SMALL
USER_CHARGES


@<TRIPOS>ATOM
      1 C1          0.8198   53.8920   30.3090 C.ar      1 UNK         0.0000 
      2 C2         -0.0954   52.8960   30.6416 C.ar      1 UNK         0.0000 
      3 C3         -0.5343   51.9619   29.7012 C.ar      1 UNK         0.0000 
      4 C4         -0.0230   52.0560   28.4002 C.ar      1 UNK         0.0000 
      5 C5          0.9428   53.0388   28.0673 C.ar      1 UNK         0.0000 
      6 C6          1.3672   53.9696   29.0282 C.ar      1 UNK         0.0000 
      7 N7          1.3810   52.9938   26.7844 N.2       1 UNK         0.0000 
      8 C8          0.7731   52.0663   26.0835 C.2       1 UNK         0.0000 
      9 S9         -0.3960   51.1065   26.9654 S.3       1 UNK         0.0000 
     10 N10         1.0415   51.8525   24.7383 N.pl3     1 UNK         0.0000 
     11 C11         1.0664   50.7039   23.9754 C.ar      1 UNK         0.0000 
     12 C12         1.5174   51.0767   22.7103 C.ar      1 UNK         0.0000 
     13 C13         1.7686   52.4637   22.8321 C.ar      1 UNK         0.0000 
     14 N14         1.3773   52.9106   23.9998 N.2       1 UNK         0.0000 
     15 C15         2.3740   53.4672   21.8679 C.3       1 UNK         0.0000 
     16 S16         4.1976   53.4719   21.8284 S.3       1 UNK         0.0000 
     17 C17         4.8758   54.0671   23.3592 C.ar      1 UNK         0.0000 
     18 C18         6.2619   54.0864   23.5072 C.ar      1 UNK         0.0000 
     19 C19         6.8249   54.4844   24.7148 C.ar      1 UNK         0.0000 
     20 C20         6.0045   54.8533   25.7753 C.ar      1 UNK         0.0000 
     21 C21         4.6235   54.8730   25.6256 C.ar      1 UNK         0.0000 
     22 C22         4.0631   54.4968   24.4104 C.ar      1 UNK         0.0000 
     23 Cl23        6.7046   55.2967   27.2816 Cl        1 UNK         0.0000 
     24 C24         1.6875   50.2576   21.6166 C.2       1 UNK         0.0000 
     25 N25         2.3719   50.5428   20.5148 N.pl3     1 UNK         0.0000 
     26 C26         2.4772   49.6956   19.2814 C.3       1 UNK         0.0000 
     27 C27         1.4609   48.5313   19.1633 C.3       1 UNK         0.0000 
     28 C28         1.4483   47.8654   17.7774 C.3       1 UNK         0.0000 
     29 O29         2.7044   47.2967   17.4819 O.3       1 UNK         0.0000 
     30 O30         0.7038   49.4871   24.5004 O.3       1 UNK         0.0000 
     31 H31         1.1045   54.6116   31.0623 H         1 UNK         0.0000 
     32 H32        -0.4942   52.8583   31.6478 H         1 UNK         0.0000 
     33 H33        -1.2553   51.1992   29.9707 H         1 UNK         0.0000 
     34 H34         2.0874   54.7348   28.7795 H         1 UNK         0.0000 
     35 H35         2.0524   54.4860   22.0888 H         1 UNK         0.0000 
     36 H36         2.0245   53.2802   20.8543 H         1 UNK         0.0000 
     37 H37         6.9027   53.7799   22.6957 H         1 UNK         0.0000 
     38 H38         7.8982   54.4962   24.8297 H         1 UNK         0.0000 
     39 H39         3.9888   55.1907   26.4398 H         1 UNK         0.0000 
     40 H40         3.0038   54.6039   24.2956 H         1 UNK         0.0000 
     41 H41         1.1850   49.3027   21.6428 H         1 UNK         0.0000 
     42 H42         2.3438   50.3936   18.4518 H         1 UNK         0.0000 
     43 H43         3.5046   49.3406   19.2462 H         1 UNK         0.0000 
     44 H44         1.6682   47.7690   19.9161 H         1 UNK         0.0000 
     45 H45         0.4520   48.9008   19.3530 H         1 UNK         0.0000 
     46 H46         0.6748   47.0985   17.7181 H         1 UNK         0.0000 
     47 H47         1.2448   48.6056   17.0008 H         1 UNK         0.0000 
     48 H48         3.3014   48.0018   17.1489 H         1 UNK         0.0000 
     49 H49        -0.2043   49.4716   24.8140 H         1 UNK         0.0000 
     50 H50         2.8866   51.4202   20.4961 H         1 UNK         0.0000 
@<TRIPOS>BOND
     1    1    6 ar   
     2    1    2 ar   
     3    1   31 1    
     4    2    3 ar   
     5    2   32 1    
     6    3    4 ar   
     7    3   33 1    
     8    4    9 1    
     9    4    5 ar   
    10    5    6 ar   
    11    5    7 1    
    12    6   34 1    
    13    7    8 2    
    14    8    9 1    
    15    8   10 1    
    16   10   14 ar   
    17   10   11 ar   
    18   11   12 ar   
    19   11   30 1    
    20   12   13 ar   
    21   12   24 1    
    22   13   14 ar   
    23   13   15 1    
    24   15   16 1    
    25   15   35 1    
    26   15   36 1    
    27   16   17 1    
    28   17   22 ar   
    29   17   18 ar   
    30   18   19 ar   
    31   18   37 1    
    32   19   20 ar   
    33   19   38 1    
    34   20   21 ar   
    35   20   23 1    
    36   21   22 ar   
    37   21   39 1    
    38   22   40 1    
    39   24   25 2    
    40   24   41 1    
    41   25   26 1    
    42   25   50 1    
    43   26   27 1    
    44   26   42 1    
    45   26   43 1    
    46   27   28 1    
    47   27   44 1    
    48   27   45 1    
    49   28   29 1    
    50   28   46 1    
    51   28   47 1    
    52   29   48 1    
    53   30   49 1    
@<TRIPOS>SUBSTRUCTURE
     1 UNK         1 GROUP             0       ****    0 ROOT    
