ZINC64623138_1211
                    3D
 Schrodinger Suite 2024-2.
 60 64  0  0  1  0            999 V2000
   -2.8677   51.7746   16.8556 C   0  0  0  0  0  0
   -3.2695   51.4961   18.1937 O   0  0  0  0  0  0
   -2.3152   51.4723   19.1904 C   0  0  0  0  0  0
   -2.7659   51.1502   20.4683 C   0  0  0  0  0  0
   -1.8873   51.1322   21.5465 C   0  0  0  0  0  0
   -0.5317   51.4159   21.3540 C   0  0  0  0  0  0
   -0.0706   51.7143   20.0695 C   0  0  0  0  0  0
   -0.9554   51.7524   18.9962 C   0  0  0  0  0  0
    0.4784   51.3598   22.5079 C   0  0  2  0  0  0
    1.4321   51.2361   21.9923 H   0  0  0  0  0  0
    0.4062   50.1077   23.4478 C   0  0  1  0  0  0
    1.4090   49.8817   23.8192 H   0  0  0  0  0  0
   -0.5347   50.2735   24.6253 C   0  0  0  0  0  0
   -1.3294   49.1995   24.7193 C   0  0  0  0  0  0
   -2.3829   48.8431   25.6804 C   0  0  0  0  0  0
   -3.1120   47.7207   25.5182 C   0  0  0  0  0  0
   -2.8249   46.8974   24.3500 C   0  0  0  0  0  0
   -1.8381   47.1999   23.4650 C   0  0  0  0  0  0
   -1.0725   48.3583   23.6337 C   0  0  0  0  0  0
   -0.1130   48.8522   22.8766 N   0  3  0  0  0  0
   -4.3175   47.2300   26.7106 Cl  0  0  0  0  0  0
   -0.4518   51.5776   25.3857 C   0  0  0  0  0  0
   -0.5810   52.7135   24.3478 C   0  0  0  0  0  0
    0.5220   52.5724   23.3658 N   0  0  0  0  0  0
    1.5102   53.5117   23.3383 C   0  0  0  0  0  0
    1.4955   54.4932   24.0823 O   0  0  0  0  0  0
    2.5474   53.3003   22.4960 N   0  0  0  0  0  0
    3.8428   53.8228   22.6656 C   0  0  0  0  0  0
    4.6169   54.0788   21.5335 C   0  0  0  0  0  0
    5.9045   54.5977   21.6742 C   0  0  0  0  0  0
    6.4360   54.8373   22.9431 C   0  0  0  0  0  0
    5.6829   54.5577   24.0928 C   0  0  0  0  0  0
    4.3861   54.0576   23.9396 C   0  0  0  0  0  0
    6.2186   54.8671   25.4511 C   0  0  0  0  0  0
    7.1043   55.6959   25.6474 O   0  0  0  0  0  0
    5.6880   54.0911   26.4292 O   0  0  0  0  0  0
    6.1203   54.2275   27.7774 C   0  0  0  0  0  0
   -3.7364   51.7214   16.2002 H   0  0  0  0  0  0
   -2.4426   52.7766   16.7649 H   0  0  0  0  0  0
   -2.1394   51.0453   16.4948 H   0  0  0  0  0  0
   -3.8069   50.9061   20.6215 H   0  0  0  0  0  0
   -2.2696   50.8851   22.5262 H   0  0  0  0  0  0
    0.9729   51.9352   19.8962 H   0  0  0  0  0  0
   -0.5657   52.0012   18.0206 H   0  0  0  0  0  0
   -2.5563   49.4342   26.5701 H   0  0  0  0  0  0
   -3.4364   46.0251   24.1782 H   0  0  0  0  0  0
   -1.6767   46.5506   22.6151 H   0  0  0  0  0  0
   -1.2489   51.6563   26.1258 H   0  0  0  0  0  0
    0.4871   51.6653   25.9360 H   0  0  0  0  0  0
   -1.5285   52.6386   23.8129 H   0  0  0  0  0  0
   -0.6218   53.6963   24.8116 H   0  0  0  0  0  0
    2.4288   52.6495   21.7345 H   0  0  0  0  0  0
    4.2167   53.8990   20.5451 H   0  0  0  0  0  0
    6.4913   54.8152   20.7957 H   0  0  0  0  0  0
    7.4371   55.2416   23.0221 H   0  0  0  0  0  0
    3.7929   53.8463   24.8189 H   0  0  0  0  0  0
    5.6024   53.5040   28.4073 H   0  0  0  0  0  0
    7.1936   54.0492   27.8684 H   0  0  0  0  0  0
    5.9052   55.2274   28.1581 H   0  0  0  0  0  0
    0.2335   48.4417   22.0138 H   0  0  0  0  0  0
  1  2  1  0  0  0
  1 38  1  0  0  0
  1 39  1  0  0  0
  1 40  1  0  0  0
  2  3  1  0  0  0
  3  8  2  0  0  0
  3  4  1  0  0  0
  4  5  2  0  0  0
  4 41  1  0  0  0
  5  6  1  0  0  0
  5 42  1  0  0  0
  6  7  2  0  0  0
  6  9  1  0  0  0
  7  8  1  0  0  0
  7 43  1  0  0  0
  8 44  1  0  0  0
  9 10  1  0  0  0
  9 24  1  0  0  0
  9 11  1  0  0  0
 11 12  1  0  0  0
 11 20  1  0  0  0
 11 13  1  0  0  0
 13 14  2  0  0  0
 13 22  1  0  0  0
 14 19  1  0  0  0
 14 15  1  0  0  0
 15 16  2  0  0  0
 15 45  1  0  0  0
 16 17  1  0  0  0
 16 21  1  0  0  0
 17 18  2  0  0  0
 17 46  1  0  0  0
 18 19  1  0  0  0
 18 47  1  0  0  0
 19 20  2  0  0  0
 20 60  1  0  0  0
 22 23  1  0  0  0
 22 48  1  0  0  0
 22 49  1  0  0  0
 23 24  1  0  0  0
 23 50  1  0  0  0
 23 51  1  0  0  0
 24 25  1  0  0  0
 25 26  2  0  0  0
 25 27  1  0  0  0
 27 28  1  0  0  0
 27 52  1  0  0  0
 28 33  2  0  0  0
 28 29  1  0  0  0
 29 30  2  0  0  0
 29 53  1  0  0  0
 30 31  1  0  0  0
 30 54  1  0  0  0
 31 32  2  0  0  0
 31 55  1  0  0  0
 32 33  1  0  0  0
 32 34  1  0  0  0
 33 56  1  0  0  0
 34 35  2  0  0  0
 34 36  1  0  0  0
 36 37  1  0  0  0
 37 57  1  0  0  0
 37 58  1  0  0  0
 37 59  1  0  0  0
M  CHG  1  20   1
M  END
> <i_i_glide_confnum>
97

> <i_i_glide_lignum>
1212

> <i_i_glide_posenum>
376

> <i_i_glide_rotatable_bonds>
7

> <i_m_Source_File_Index>
780

> <b_m_subgroup_collapsed>
0

> <r_i_docking_score>
-6.11046

> <r_i_glide_ecoul>
-6.39119

> <r_i_glide_eff_state_penalty>
0

> <r_i_glide_einternal>
4.03218

> <r_i_glide_emodel>
-60.1358

> <r_i_glide_energy>
-45.6235

> <r_i_glide_erotb>
0.422217

> <r_i_glide_esite>
0

> <r_i_glide_evdw>
-39.2323

> <r_i_glide_gscore>
-6.11046

> <r_i_glide_hbond>
-0.32

> <r_i_glide_ligand_efficiency>
-0.174585

> <r_i_glide_ligand_efficiency_ln>
-1.34138

> <r_i_glide_ligand_efficiency_sa>
-0.571078

> <r_i_glide_lipo>
-1.85449

> <r_i_glide_metal>
0

> <r_i_glide_rewards>
-1.4379

> <s_i_glide_gridfile>
wee1_glide-grid

> <s_m_Source_File>
wee1_decoys_glide_SP.sdf

> <s_m_Source_Path>
/Users/zhangxujun/Desktop

> <s_m_entry_id>
1055

> <s_m_entry_name>
wee1_decoys_glide_SP.780

> <s_m_subgroup_title>
wee1_decoys_glide_SP

> <s_m_subgroupid>
wee1_decoys_glide_SP


$$$$
