@<TRIPOS>MOLECULE
ZINC36836442_1537
50   52    1
SMALL
USER_CHARGES


@<TRIPOS>ATOM
      1 C1          3.1854   53.8118   17.7885 C.3       1 UNK         0.0000 
      2 C2          3.8821   55.1963   17.7944 C.3       1 UNK         0.0000 
      3 H3          3.5044   55.6968   18.6888 H         1 UNK         0.0000 
      4 C4          3.4266   56.0319   16.5659 C.3       1 UNK         0.0000 
      5 C5          4.0226   55.4945   15.2431 C.3       1 UNK         0.0000 
      6 C6          5.5643   55.3852   15.3042 C.3       1 UNK         0.0000 
      7 C7          6.0327   54.6241   16.5653 C.3       1 UNK         0.0000 
      8 C8          5.4483   55.2540   17.8631 C.3       1 UNK         0.0000 
      9 C9          5.9832   54.5084   19.0824 C.2       1 UNK         0.0000 
     10 O10         5.9044   53.2967   19.2817 O.2       1 UNK         0.0000 
     11 N11         6.5172   55.4516   19.8950 N.am      1 UNK         0.0000 
     12 C12         6.4718   56.6996   19.3782 C.2       1 UNK         0.0000 
     13 O13         6.7044   57.7527   19.9614 O.2       1 UNK         0.0000 
     14 N14         5.9567   56.5687   18.1550 N.am      1 UNK         0.0000 
     15 C15         7.0701   55.2192   21.2547 C.3       1 UNK         0.0000 
     16 C16         5.9953   54.7612   22.2692 C.2       1 UNK         0.0000 
     17 O17         4.8520   54.4967   21.8985 O.2       1 UNK         0.0000 
     18 N18         6.4020   54.7172   23.5560 N.am      1 UNK         0.0000 
     19 C19         5.6348   54.4967   24.7229 C.ar      1 UNK         0.0000 
     20 C20         6.3407   54.4458   25.9276 C.ar      1 UNK         0.0000 
     21 C21         5.6701   54.2949   27.1398 C.ar      1 UNK         0.0000 
     22 C22         4.2787   54.1849   27.1492 C.ar      1 UNK         0.0000 
     23 C23         3.5648   54.1960   25.9533 C.ar      1 UNK         0.0000 
     24 C24         4.2354   54.3617   24.7469 C.ar      1 UNK         0.0000 
     25 S25         3.3854   54.0538   28.6927 S.o2      1 UNK         0.0000 
     26 O26         2.0832   54.7012   28.5020 O.2       1 UNK         0.0000 
     27 O27         4.2829   54.4967   29.7629 O.2       1 UNK         0.0000 
     28 C28         3.1043   52.2086   28.8905 C.3       1 UNK         0.0000 
     29 H29         3.5379   53.1721   16.9797 H         1 UNK         0.0000 
     30 H30         3.3546   53.2753   18.7224 H         1 UNK         0.0000 
     31 H31         2.1048   53.9137   17.6833 H         1 UNK         0.0000 
     32 H32         2.3376   56.0432   16.4999 H         1 UNK         0.0000 
     33 H33         3.7194   57.0756   16.6932 H         1 UNK         0.0000 
     34 H34         3.5973   54.5157   15.0176 H         1 UNK         0.0000 
     35 H35         3.7314   56.1431   14.4160 H         1 UNK         0.0000 
     36 H36         5.9367   54.8863   14.4085 H         1 UNK         0.0000 
     37 H37         5.9983   56.3862   15.2943 H         1 UNK         0.0000 
     38 H38         7.1222   54.6975   16.5876 H         1 UNK         0.0000 
     39 H39         5.8406   53.5501   16.5091 H         1 UNK         0.0000 
     40 H40         6.0820   57.2559   17.4265 H         1 UNK         0.0000 
     41 H41         7.5395   56.1227   21.6454 H         1 UNK         0.0000 
     42 H42         7.8770   54.4967   21.1994 H         1 UNK         0.0000 
     43 H43         7.3842   54.8923   23.7135 H         1 UNK         0.0000 
     44 H44         7.4146   54.5219   25.9338 H         1 UNK         0.0000 
     45 H45         6.2300   54.2790   28.0650 H         1 UNK         0.0000 
     46 H46         2.4887   54.0967   25.9564 H         1 UNK         0.0000 
     47 H47         3.6306   54.3960   23.8562 H         1 UNK         0.0000 
     48 H48         2.5289   52.0502   29.8006 H         1 UNK         0.0000 
     49 H49         4.0727   51.7157   28.9564 H         1 UNK         0.0000 
     50 H50         2.5479   51.8448   28.0281 H         1 UNK         0.0000 
@<TRIPOS>BOND
     1    1    2 1    
     2    1   29 1    
     3    1   30 1    
     4    1   31 1    
     5    2    3 1    
     6    2    8 1    
     7    2    4 1    
     8    4    5 1    
     9    4   32 1    
    10    4   33 1    
    11    5    6 1    
    12    5   34 1    
    13    5   35 1    
    14    6    7 1    
    15    6   36 1    
    16    6   37 1    
    17    7    8 1    
    18    7   38 1    
    19    7   39 1    
    20    8   14 1    
    21    8    9 1    
    22    9   10 2    
    23    9   11 am   BACKBONE|DICT|INTERRES
    24   11   12 am   BACKBONE|DICT|INTERRES
    25   11   15 1    
    26   12   13 2    
    27   12   14 am   BACKBONE|DICT|INTERRES
    28   14   40 1    
    29   15   16 1    
    30   15   41 1    
    31   15   42 1    
    32   16   17 2    
    33   16   18 am   BACKBONE|DICT|INTERRES
    34   18   19 1    
    35   18   43 1    
    36   19   24 ar   
    37   19   20 ar   
    38   20   21 ar   
    39   20   44 1    
    40   21   22 ar   
    41   21   45 1    
    42   22   23 ar   
    43   22   25 1    
    44   23   24 ar   
    45   23   46 1    
    46   24   47 1    
    47   25   26 2    
    48   25   27 2    
    49   25   28 1    
    50   28   48 1    
    51   28   49 1    
    52   28   50 1    
@<TRIPOS>SUBSTRUCTURE
     1 UNK         1 GROUP             0       ****    0 ROOT    
