@<TRIPOS>MOLECULE
ZINC39690759_1247
69   72    1
SMALL
USER_CHARGES


@<TRIPOS>ATOM
      1 C1          2.2189   55.1249   28.4803 C.3       1 UNK         0.0000 
      2 C2          3.3293   54.1909   27.9534 C.3       1 UNK         0.0000 
      3 C3          3.9257   53.3479   29.1012 C.3       1 UNK         0.0000 
      4 C4          2.9536   53.3192   26.7012 C.3       1 UNK         0.0000 
      5 H5          3.7049   52.5388   26.6013 H         1 UNK         0.0000 
      6 C6          1.6228   52.4977   26.7825 C.2       1 UNK         0.0000 
      7 O7          1.1595   52.2514   27.8977 O.2       1 UNK         0.0000 
      8 N8          1.0163   52.0053   25.6632 N.am      1 UNK         0.0000 
      9 C9         -0.1615   51.1391   25.7572 C.3       1 UNK         0.0000 
     10 C10        -0.7447   51.1794   24.3363 C.3       1 UNK         0.0000 
     11 H11        -1.3613   52.0724   24.2800 H         1 UNK         0.0000 
     12 C12         0.4889   51.3262   23.3932 C.3       1 UNK         0.0000 
     13 C13         1.4209   52.2134   24.2632 C.3       1 UNK         0.0000 
     14 C14         0.0790   51.9522   22.0348 C.3       1 UNK         0.0000 
     15 C15         1.2864   52.2549   21.1268 C.3       1 UNK         0.0000 
     16 N16         1.9865   50.9153   20.8104 N.4       1 UNK         0.0000 
     17 C17         2.4114   50.1397   22.0770 C.3       1 UNK         0.0000 
     18 C18         1.1906   49.9748   23.0226 C.3       1 UNK         0.0000 
     19 C19        -1.6244   49.9130   24.1403 C.2       1 UNK         0.0000 
     20 O20        -1.2191   48.8059   24.4870 O.2       1 UNK         0.0000 
     21 N21        -2.8688   50.0165   23.6462 N.am      1 UNK         0.0000 
     22 C22        -3.5994   51.2120   23.2253 C.3       1 UNK         0.0000 
     23 C23        -4.2711   51.9819   24.3614 C.ar      1 UNK         0.0000 
     24 C24        -3.8616   53.2921   24.6428 C.ar      1 UNK         0.0000 
     25 C25        -4.4954   54.0363   25.6381 C.ar      1 UNK         0.0000 
     26 C26        -5.5522   53.4806   26.3561 C.ar      1 UNK         0.0000 
     27 C27        -5.9698   52.1794   26.0822 C.ar      1 UNK         0.0000 
     28 C28        -5.3403   51.4301   25.0865 C.ar      1 UNK         0.0000 
     29 Br29       -5.9862   49.6689   24.7364 Br        1 UNK         0.0000 
     30 O30         2.9584   54.1293   25.5172 O.3       1 UNK         0.0000 
     31 C31         4.0987   54.2060   24.7359 C.ar      1 UNK         0.0000 
     32 C32         5.4071   54.0997   25.2343 C.ar      1 UNK         0.0000 
     33 C33         6.4980   54.2127   24.3738 C.ar      1 UNK         0.0000 
     34 C34         6.2866   54.4096   23.0126 C.ar      1 UNK         0.0000 
     35 C35         4.9935   54.4958   22.5023 C.ar      1 UNK         0.0000 
     36 C36         3.9058   54.4143   23.3689 C.ar      1 UNK         0.0000 
     37 H37         1.3847   54.5809   28.9235 H         1 UNK         0.0000 
     38 H38         2.6052   55.8012   29.2434 H         1 UNK         0.0000 
     39 H39         1.8202   55.7424   27.6823 H         1 UNK         0.0000 
     40 H40         4.1273   54.8633   27.6397 H         1 UNK         0.0000 
     41 H41         3.1852   52.6752   29.5358 H         1 UNK         0.0000 
     42 H42         4.7623   52.7368   28.7555 H         1 UNK         0.0000 
     43 H43         4.3054   53.9838   29.9029 H         1 UNK         0.0000 
     44 H44         0.2155   50.1436   26.0041 H         1 UNK         0.0000 
     45 H45        -0.8919   51.4554   26.5057 H         1 UNK         0.0000 
     46 H46         1.1747   53.2519   24.0356 H         1 UNK         0.0000 
     47 H47         2.4766   52.0546   24.0496 H         1 UNK         0.0000 
     48 H48        -0.6546   51.3277   21.5196 H         1 UNK         0.0000 
     49 H49        -0.4297   52.8955   22.2259 H         1 UNK         0.0000 
     50 H50         0.9910   52.6881   20.1680 H         1 UNK         0.0000 
     51 H51         2.0314   52.9040   21.5889 H         1 UNK         0.0000 
     52 H52         1.3594   50.3367   20.2667 H         1 UNK         0.0000 
     53 H53         2.7960   49.1766   21.7355 H         1 UNK         0.0000 
     54 H54         3.2396   50.7170   22.4812 H         1 UNK         0.0000 
     55 H55         1.5114   49.4640   23.9336 H         1 UNK         0.0000 
     56 H56         0.4901   49.2839   22.5518 H         1 UNK         0.0000 
     57 H57        -3.3948   49.1553   23.6281 H         1 UNK         0.0000 
     58 H58        -2.9586   51.8697   22.6355 H         1 UNK         0.0000 
     59 H59        -4.3844   50.8922   22.5384 H         1 UNK         0.0000 
     60 H60        -3.0547   53.7454   24.0870 H         1 UNK         0.0000 
     61 H61        -4.1646   55.0423   25.8522 H         1 UNK         0.0000 
     62 H62        -6.0476   54.0552   27.1248 H         1 UNK         0.0000 
     63 H63        -6.7891   51.7493   26.6387 H         1 UNK         0.0000 
     64 H64         5.5950   53.9362   26.2830 H         1 UNK         0.0000 
     65 H65         7.5063   54.1456   24.7558 H         1 UNK         0.0000 
     66 H66         7.1335   54.5043   22.3482 H         1 UNK         0.0000 
     67 H67         4.8334   54.6574   21.4461 H         1 UNK         0.0000 
     68 H68         2.9046   54.5216   22.9809 H         1 UNK         0.0000 
     69 H69         2.7933   51.0798   20.2200 H         1 UNK         0.0000 
@<TRIPOS>BOND
     1    1    2 1    
     2    1   37 1    
     3    1   38 1    
     4    1   39 1    
     5    2    3 1    
     6    2    4 1    
     7    2   40 1    
     8    3   41 1    
     9    3   42 1    
    10    3   43 1    
    11    4    5 1    
    12    4    6 1    
    13    4   30 1    
    14    6    7 2    
    15    6    8 am   BACKBONE|DICT|INTERRES
    16    8   13 1    
    17    8    9 1    
    18    9   10 1    
    19    9   44 1    
    20    9   45 1    
    21   10   11 1    
    22   10   12 1    
    23   10   19 1    
    24   12   18 1    
    25   12   13 1    
    26   12   14 1    
    27   13   46 1    
    28   13   47 1    
    29   14   15 1    
    30   14   48 1    
    31   14   49 1    
    32   15   16 1    
    33   15   50 1    
    34   15   51 1    
    35   16   17 1    
    36   16   52 1    
    37   16   69 1    
    38   17   18 1    
    39   17   53 1    
    40   17   54 1    
    41   18   55 1    
    42   18   56 1    
    43   19   20 2    
    44   19   21 am   BACKBONE|DICT|INTERRES
    45   21   22 1    
    46   21   57 1    
    47   22   23 1    
    48   22   58 1    
    49   22   59 1    
    50   23   28 ar   
    51   23   24 ar   
    52   24   25 ar   
    53   24   60 1    
    54   25   26 ar   
    55   25   61 1    
    56   26   27 ar   
    57   26   62 1    
    58   27   28 ar   
    59   27   63 1    
    60   28   29 1    
    61   30   31 1    
    62   31   36 ar   
    63   31   32 ar   
    64   32   33 ar   
    65   32   64 1    
    66   33   34 ar   
    67   33   65 1    
    68   34   35 ar   
    69   34   66 1    
    70   35   36 ar   
    71   35   67 1    
    72   36   68 1    
@<TRIPOS>SUBSTRUCTURE
     1 UNK         1 GROUP             0       ****    0 ROOT    
