@<TRIPOS>MOLECULE
ZINC62794835_1871
30   31    1
SMALL
USER_CHARGES


@<TRIPOS>ATOM
      1 C1          6.2184   54.2257   28.0450 C.3       1 UNK         0.0000 
      2 C2          5.7070   54.2952   26.6218 C.ar      1 UNK         0.0000 
      3 C3          6.4854   54.5087   25.5250 C.ar      1 UNK         0.0000 
      4 C4          5.8265   54.4967   24.2197 C.ar      1 UNK         0.0000 
      5 O5          6.5513   54.6948   23.2483 O.2       1 UNK         0.0000 
      6 N6          4.5095   54.2751   24.2017 N.2       1 UNK         0.0000 
      7 C7          3.8693   54.0765   25.3004 C.ar      1 UNK         0.0000 
      8 N8          4.3524   54.0874   26.5084 N.ar      1 UNK         0.0000 
      9 S9          2.1245   53.6967   25.0295 S.3       1 UNK         0.0000 
     10 C10         1.5044   53.1867   26.6220 C.ar      1 UNK         0.0000 
     11 C11         1.5901   54.0465   27.7196 C.ar      1 UNK         0.0000 
     12 C12         1.0356   53.6882   28.9456 C.ar      1 UNK         0.0000 
     13 C13         0.3801   52.4566   29.1156 C.ar      1 UNK         0.0000 
     14 C14         0.3003   51.6005   28.0049 C.ar      1 UNK         0.0000 
     15 C15         0.8438   51.9578   26.7693 C.ar      1 UNK         0.0000 
     16 Cl16        0.6566   50.8567   25.4456 Cl        1 UNK         0.0000 
     17 C17        -0.2144   52.0968   30.4031 C.2       1 UNK         0.0000 
     18 N18         0.3044   52.5608   31.5235 N.pl3     1 UNK         0.0000 
     19 N19        -1.2630   51.2967   30.4817 N.pl3     1 UNK         0.0000 
     20 H20         7.2982   54.3711   28.0817 H         1 UNK         0.0000 
     21 H21         5.7511   54.9967   28.6576 H         1 UNK         0.0000 
     22 H22         5.9939   53.2523   28.4817 H         1 UNK         0.0000 
     23 H23         7.5462   54.6539   25.5861 H         1 UNK         0.0000 
     24 H24         2.0853   55.0016   27.6233 H         1 UNK         0.0000 
     25 H25         1.1142   54.3968   29.7581 H         1 UNK         0.0000 
     26 H26        -0.1957   50.6411   28.0817 H         1 UNK         0.0000 
     27 H27         1.1132   53.1554   31.5351 H         1 UNK         0.0000 
     28 H28        -1.6487   51.1476   31.4202 H         1 UNK         0.0000 
     29 H29        -1.6421   50.7948   29.6902 H         1 UNK         0.0000 
     30 H30        -0.2378   52.3427   32.3684 H         1 UNK         0.0000 
@<TRIPOS>BOND
     1    1   20 1    
     2    1   21 1    
     3    1   22 1    
     4    1    2 1    
     5    2    3 ar   
     6    2    8 ar   
     7    3    4 ar   
     8    3   23 1    
     9    4    6 ar   
    10    4    5 2    
    11    6    7 ar   
    12    7    9 1    
    13    7    8 ar   
    14    9   10 1    
    15   10   15 ar   
    16   10   11 ar   
    17   11   12 ar   
    18   11   24 1    
    19   12   13 ar   
    20   12   25 1    
    21   13   14 ar   
    22   13   17 1    
    23   14   15 ar   
    24   14   26 1    
    25   15   16 1    
    26   17   18 2    
    27   17   19 1    
    28   18   27 1    
    29   18   30 1    
    30   19   28 1    
    31   19   29 1    
@<TRIPOS>SUBSTRUCTURE
     1 UNK         1 GROUP             0       ****    0 ROOT    
