@<TRIPOS>MOLECULE
ZINC39686865_5461
72   77    1
SMALL
USER_CHARGES


@<TRIPOS>ATOM
      1 C1         -4.6447   48.9340   21.9081 C.3       1 UNK         0.0000 
      2 C2         -3.3315   48.7075   21.1217 C.3       1 UNK         0.0000 
      3 H3         -3.4282   49.2377   20.1717 H         1 UNK         0.0000 
      4 C4         -3.1685   47.1942   20.8195 C.3       1 UNK         0.0000 
      5 C5         -1.9501   46.7437   20.0036 C.ar      1 UNK         0.0000 
      6 C6         -1.2140   47.6316   19.2039 C.ar      1 UNK         0.0000 
      7 C7         -0.1222   47.1790   18.4616 C.ar      1 UNK         0.0000 
      8 C8          0.2363   45.8330   18.4977 C.ar      1 UNK         0.0000 
      9 C9         -0.4944   44.9408   19.2814 C.ar      1 UNK         0.0000 
     10 C10        -1.5764   45.3920   20.0358 C.ar      1 UNK         0.0000 
     11 F11        -2.2569   44.5071   20.8035 F         1 UNK         0.0000 
     12 N12        -2.1279   49.2319   21.7813 N.am      1 UNK         0.0000 
     13 C13        -1.9522   50.4082   22.4075 C.2       1 UNK         0.0000 
     14 O14        -2.8338   51.2648   22.4795 O.2       1 UNK         0.0000 
     15 C15        -0.5279   50.6628   22.9594 C.3       1 UNK         0.0000 
     16 H16         0.1827   50.1532   22.3046 H         1 UNK         0.0000 
     17 C17        -0.2574   52.1867   22.9174 C.3       1 UNK         0.0000 
     18 N18         0.7409   52.3963   23.9650 N.am      1 UNK         0.0000 
     19 C19         0.9460   51.1920   24.7663 C.3       1 UNK         0.0000 
     20 C20        -0.2460   50.2660   24.4432 C.3       1 UNK         0.0000 
     21 C21         0.1946   48.7998   24.7098 C.3       1 UNK         0.0000 
     22 C22        -0.9508   47.7743   24.6646 C.3       1 UNK         0.0000 
     23 N23        -2.0337   48.1813   25.6818 N.4       1 UNK         0.0000 
     24 C24        -2.5556   49.6211   25.5174 C.3       1 UNK         0.0000 
     25 C25        -1.3654   50.6052   25.4844 C.3       1 UNK         0.0000 
     26 C26         1.4469   53.5512   24.0512 C.2       1 UNK         0.0000 
     27 O27         1.2522   54.4964   23.2883 O.2       1 UNK         0.0000 
     28 C28         2.5201   53.6898   25.0997 C.ar      1 UNK         0.0000 
     29 C29         2.1860   53.5689   26.4587 C.ar      1 UNK         0.0000 
     30 C30         3.1431   53.7677   27.4528 C.ar      1 UNK         0.0000 
     31 C31         4.4460   54.1167   27.1073 C.ar      1 UNK         0.0000 
     32 C32         4.7818   54.2560   25.7608 C.ar      1 UNK         0.0000 
     33 C33         3.8430   54.0289   24.7539 C.ar      1 UNK         0.0000 
     34 C34         4.5353   54.2206   23.4583 C.ar      1 UNK         0.0000 
     35 C35         4.1165   54.0961   22.1266 C.ar      1 UNK         0.0000 
     36 C36         4.9804   54.4355   21.0839 C.ar      1 UNK         0.0000 
     37 C37         6.2661   54.8969   21.3636 C.ar      1 UNK         0.0000 
     38 C38         6.7043   54.9759   22.6844 C.ar      1 UNK         0.0000 
     39 C39         5.8397   54.6290   23.7241 C.ar      1 UNK         0.0000 
     40 C40         6.0746   54.6561   25.1788 C.2       1 UNK         0.0000 
     41 O41         7.1043   54.9604   25.7758 O.2       1 UNK         0.0000 
     42 H42        -5.4797   48.4253   21.4237 H         1 UNK         0.0000 
     43 H43        -4.5822   48.5404   22.9231 H         1 UNK         0.0000 
     44 H44        -4.9273   49.9863   21.9483 H         1 UNK         0.0000 
     45 H45        -4.0567   46.8221   20.3057 H         1 UNK         0.0000 
     46 H46        -3.1321   46.6700   21.7778 H         1 UNK         0.0000 
     47 H47        -1.4768   48.6768   19.1370 H         1 UNK         0.0000 
     48 H48         0.4429   47.8713   17.8527 H         1 UNK         0.0000 
     49 H49         1.0782   45.4845   17.9170 H         1 UNK         0.0000 
     50 H50        -0.2151   43.8994   19.3117 H         1 UNK         0.0000 
     51 H51        -1.3106   48.6510   21.6713 H         1 UNK         0.0000 
     52 H52         0.0891   52.4907   21.9271 H         1 UNK         0.0000 
     53 H53        -1.1320   52.7563   23.2379 H         1 UNK         0.0000 
     54 H54         1.1040   51.3195   25.8365 H         1 UNK         0.0000 
     55 H55         1.8561   50.7300   24.3819 H         1 UNK         0.0000 
     56 H56         0.9909   48.5142   24.0212 H         1 UNK         0.0000 
     57 H57         0.6544   48.7275   25.6984 H         1 UNK         0.0000 
     58 H58        -1.4381   47.6968   23.6970 H         1 UNK         0.0000 
     59 H59        -0.6168   46.7819   24.9647 H         1 UNK         0.0000 
     60 H60        -2.8107   47.5375   25.6405 H         1 UNK         0.0000 
     61 H61        -3.1758   49.6317   24.6243 H         1 UNK         0.0000 
     62 H62        -3.2004   49.7968   26.3810 H         1 UNK         0.0000 
     63 H63        -0.9363   50.5914   26.4890 H         1 UNK         0.0000 
     64 H64        -1.7169   51.6302   25.3579 H         1 UNK         0.0000 
     65 H65         1.1722   53.3423   26.7578 H         1 UNK         0.0000 
     66 H66         2.8700   53.6715   28.4929 H         1 UNK         0.0000 
     67 H67         5.1754   54.2881   27.8869 H         1 UNK         0.0000 
     68 H68         3.1255   53.7591   21.8684 H         1 UNK         0.0000 
     69 H69         4.6455   54.3518   20.0598 H         1 UNK         0.0000 
     70 H70         6.9292   55.1732   20.5560 H         1 UNK         0.0000 
     71 H71         7.7025   55.3319   22.8818 H         1 UNK         0.0000 
     72 H72        -1.6726   48.0973   26.6383 H         1 UNK         0.0000 
@<TRIPOS>BOND
     1    1    2 1    
     2    1   42 1    
     3    1   43 1    
     4    1   44 1    
     5    2    3 1    
     6    2    4 1    
     7    2   12 1    
     8    4    5 1    
     9    4   45 1    
    10    4   46 1    
    11    5   10 ar   
    12    5    6 ar   
    13    6    7 ar   
    14    6   47 1    
    15    7    8 ar   
    16    7   48 1    
    17    8    9 ar   
    18    8   49 1    
    19    9   10 ar   
    20    9   50 1    
    21   10   11 1    
    22   12   13 am   BACKBONE|DICT|INTERRES
    23   12   51 1    
    24   13   14 2    
    25   13   15 1    
    26   15   16 1    
    27   15   20 1    
    28   15   17 1    
    29   17   18 1    
    30   17   52 1    
    31   17   53 1    
    32   18   19 1    
    33   18   26 am   BACKBONE|DICT|INTERRES
    34   19   20 1    
    35   19   54 1    
    36   19   55 1    
    37   20   25 1    
    38   20   21 1    
    39   21   22 1    
    40   21   56 1    
    41   21   57 1    
    42   22   23 1    
    43   22   58 1    
    44   22   59 1    
    45   23   24 1    
    46   23   60 1    
    47   23   72 1    
    48   24   25 1    
    49   24   61 1    
    50   24   62 1    
    51   25   63 1    
    52   25   64 1    
    53   26   27 2    
    54   26   28 1    
    55   28   33 ar   
    56   28   29 ar   
    57   29   30 ar   
    58   29   65 1    
    59   30   31 ar   
    60   30   66 1    
    61   31   32 ar   
    62   31   67 1    
    63   32   40 1    
    64   32   33 ar   
    65   33   34 1    
    66   34   39 ar   
    67   34   35 ar   
    68   35   36 ar   
    69   35   68 1    
    70   36   37 ar   
    71   36   69 1    
    72   37   38 ar   
    73   37   70 1    
    74   38   39 ar   
    75   38   71 1    
    76   39   40 1    
    77   40   41 2    
@<TRIPOS>SUBSTRUCTURE
     1 UNK         1 GROUP             0       ****    0 ROOT    
