ZINC05145747_1416
                    3D
 Schrodinger Suite 2024-2.
 49 52  0  0  1  0            999 V2000
    5.4915   54.8966   29.0214 C   0  0  0  0  0  0
    4.3086   54.4941   29.7023 O   0  0  0  0  0  0
    3.2421   53.8656   29.0786 C   0  0  0  0  0  0
    2.3026   53.4034   29.7279 O   0  0  0  0  0  0
    3.3456   53.8718   27.7224 N   0  0  0  0  0  0
    2.4893   53.2968   26.8508 C   0  0  0  0  0  0
    1.5341   52.5933   27.2021 O   0  0  0  0  0  0
    2.7182   53.5710   25.4217 C   0  0  0  0  0  0
    3.9419   53.9788   24.7919 C   0  0  0  0  0  0
    3.8151   54.0956   23.3948 C   0  0  0  0  0  0
    2.2271   53.6964   22.8426 S   0  0  0  0  0  0
    1.7138   53.3278   24.4578 C   0  0  0  0  0  0
    0.4264   52.8925   24.7556 N   0  0  0  0  0  0
   -0.6105   52.5429   23.9750 C   0  0  0  0  0  0
   -0.6179   52.4969   22.7457 O   0  0  0  0  0  0
   -1.8521   52.2568   24.7763 C   0  0  0  0  0  0
   -1.8102   51.4183   25.9058 C   0  0  0  0  0  0
   -2.9452   51.2301   26.6963 C   0  0  0  0  0  0
   -4.1290   51.8880   26.3706 C   0  0  0  0  0  0
   -4.1789   52.7343   25.2511 C   0  0  0  0  0  0
   -3.0555   52.8930   24.4418 C   0  0  0  0  0  0
   -5.3306   53.4008   24.8832 O   0  0  0  0  0  0
   -6.3118   53.4896   25.9219 C   0  0  0  0  0  0
   -6.4561   52.1341   26.6553 C   0  0  0  0  0  0
   -5.2035   51.7375   27.2241 O   0  0  0  0  0  0
    4.9438   54.4055   22.4077 C   0  0  0  0  0  0
    6.2516   54.7831   23.1492 C   0  0  0  0  0  0
    6.4458   53.9490   24.4153 C   0  0  0  0  0  0
    5.3170   54.1705   25.4476 C   0  0  0  0  0  0
    5.9033   55.6635   29.6638 H   0  0  0  0  0  0
    5.3135   55.3573   28.0526 H   0  0  0  0  0  0
    6.2057   54.0790   28.9162 H   0  0  0  0  0  0
    4.1414   54.3443   27.3307 H   0  0  0  0  0  0
    0.2796   52.7619   25.7489 H   0  0  0  0  0  0
   -0.8983   50.9093   26.1909 H   0  0  0  0  0  0
   -2.8972   50.5883   27.5658 H   0  0  0  0  0  0
   -3.1130   53.5493   23.5857 H   0  0  0  0  0  0
   -7.2647   53.7985   25.4909 H   0  0  0  0  0  0
   -6.0066   54.2534   26.6394 H   0  0  0  0  0  0
   -6.7854   51.3748   25.9436 H   0  0  0  0  0  0
   -7.2065   52.1991   27.4431 H   0  0  0  0  0  0
    5.1395   53.5098   21.8160 H   0  0  0  0  0  0
    4.6660   55.1876   21.7000 H   0  0  0  0  0  0
    7.0980   54.6265   22.4789 H   0  0  0  0  0  0
    6.3045   55.8399   23.4105 H   0  0  0  0  0  0
    6.4669   52.9041   24.1121 H   0  0  0  0  0  0
    7.4161   54.1657   24.8641 H   0  0  0  0  0  0
    5.3925   55.1753   25.8624 H   0  0  0  0  0  0
    5.4749   53.4708   26.2684 H   0  0  0  0  0  0
  1  2  1  0  0  0
  1 30  1  0  0  0
  1 31  1  0  0  0
  1 32  1  0  0  0
  2  3  1  0  0  0
  3  4  2  0  0  0
  3  5  1  0  0  0
  5  6  1  0  0  0
  5 33  1  0  0  0
  6  7  2  0  0  0
  6  8  1  0  0  0
  8 12  2  0  0  0
  8  9  1  0  0  0
  9 29  1  0  0  0
  9 10  2  0  0  0
 10 11  1  0  0  0
 10 26  1  0  0  0
 11 12  1  0  0  0
 12 13  1  0  0  0
 13 14  1  0  0  0
 13 34  1  0  0  0
 14 15  2  0  0  0
 14 16  1  0  0  0
 16 21  2  0  0  0
 16 17  1  0  0  0
 17 18  2  0  0  0
 17 35  1  0  0  0
 18 19  1  0  0  0
 18 36  1  0  0  0
 19 25  1  0  0  0
 19 20  2  0  0  0
 20 21  1  0  0  0
 20 22  1  0  0  0
 21 37  1  0  0  0
 22 23  1  0  0  0
 23 24  1  0  0  0
 23 38  1  0  0  0
 23 39  1  0  0  0
 24 25  1  0  0  0
 24 40  1  0  0  0
 24 41  1  0  0  0
 26 27  1  0  0  0
 26 42  1  0  0  0
 26 43  1  0  0  0
 27 28  1  0  0  0
 27 44  1  0  0  0
 27 45  1  0  0  0
 28 29  1  0  0  0
 28 46  1  0  0  0
 28 47  1  0  0  0
 29 48  1  0  0  0
 29 49  1  0  0  0
M  END
> <i_i_glide_confnum>
151

> <i_i_glide_lignum>
1417

> <i_i_glide_posenum>
77

> <i_i_glide_rotatable_bonds>
7

> <i_m_Source_File_Index>
4968

> <b_m_subgroup_collapsed>
0

> <r_i_docking_score>
-4.62334

> <r_i_glide_ecoul>
-4.23113

> <r_i_glide_eff_state_penalty>
0

> <r_i_glide_einternal>
9.54191

> <r_i_glide_emodel>
-47.0796

> <r_i_glide_energy>
-41.6759

> <r_i_glide_erotb>
0.683485

> <r_i_glide_esite>
0

> <r_i_glide_evdw>
-37.4447

> <r_i_glide_gscore>
-4.62334

> <r_i_glide_hbond>
0

> <r_i_glide_ligand_efficiency>
-0.159426

> <r_i_glide_ligand_efficiency_ln>
-1.05863

> <r_i_glide_ligand_efficiency_sa>
-0.489806

> <r_i_glide_lipo>
-2.26651

> <r_i_glide_metal>
0

> <r_i_glide_rewards>
-0.533409

> <s_i_glide_gridfile>
wee1_glide-grid

> <s_m_Source_File>
wee1_decoys_glide_SP.sdf

> <s_m_Source_Path>
/Users/zhangxujun/Desktop

> <s_m_entry_id>
5243

> <s_m_entry_name>
wee1_decoys_glide_SP.4968

> <s_m_subgroup_title>
wee1_decoys_glide_SP

> <s_m_subgroupid>
wee1_decoys_glide_SP


$$$$
