@<TRIPOS>MOLECULE
ZINC36050191_5655
58   60    1
SMALL
USER_CHARGES


@<TRIPOS>ATOM
      1 C1         -5.5656   45.7133   28.3843 C.3       1 UNK         0.0000 
      2 C2         -4.4631   46.5966   27.7760 C.3       1 UNK         0.0000 
      3 C3         -3.9024   46.1017   26.4222 C.3       1 UNK         0.0000 
      4 H4         -3.5340   45.0818   26.5611 H         1 UNK         0.0000 
      5 C5         -5.0065   46.0797   25.3359 C.3       1 UNK         0.0000 
      6 N6         -2.7529   46.9250   26.0514 N.pl3     1 UNK         0.0000 
      7 C7         -2.1548   47.1734   24.8356 C.2       1 UNK         0.0000 
      8 O8         -2.0956   46.0968   24.1334 O.co2     1 UNK         0.0000 
      9 C9         -1.7366   48.4202   24.5633 C.2       1 UNK         0.0000 
     10 C10        -1.1039   48.9209   23.3483 C.2       1 UNK         0.0000 
     11 C11        -1.2630   48.3520   22.1376 C.2       1 UNK         0.0000 
     12 S12        -0.3617   49.1514   20.8502 S.3       1 UNK         0.0000 
     13 C13         0.2895   50.2939   22.0393 C.2       1 UNK         0.0000 
     14 N14         1.0896   51.2410   21.7383 N.2       1 UNK         0.0000 
     15 C15         1.5584   52.0503   22.7317 C.2       1 UNK         0.0000 
     16 C16         1.0821   52.0111   24.0178 C.2       1 UNK         0.0000 
     17 C17        -0.0651   51.0169   24.3901 C.3       1 UNK         0.0000 
     18 H18         0.2557   50.4211   25.2486 H         1 UNK         0.0000 
     19 N19        -0.2662   50.0277   23.2896 N.pl3     1 UNK         0.0000 
     20 C20        -1.3754   51.7240   24.7687 C.ar      1 UNK         0.0000 
     21 C21        -2.0687   52.4809   23.8218 C.ar      1 UNK         0.0000 
     22 C22        -3.2713   53.0909   24.1617 C.ar      1 UNK         0.0000 
     23 C23        -3.7966   52.9453   25.4491 C.ar      1 UNK         0.0000 
     24 C24        -3.0954   52.1928   26.3975 C.ar      1 UNK         0.0000 
     25 C25        -1.8844   51.5999   26.0646 C.ar      1 UNK         0.0000 
     26 C26        -5.1233   53.6121   25.8114 C.3       1 UNK         0.0000 
     27 F27        -5.6959   53.0498   26.8797 F         1 UNK         0.0000 
     28 F28        -4.8955   54.8958   26.0827 F         1 UNK         0.0000 
     29 F29        -5.9864   53.5467   24.7988 F         1 UNK         0.0000 
     30 C30         1.5849   52.8981   25.0904 C.2       1 UNK         0.0000 
     31 O31         2.3104   53.8734   24.8874 O.2       1 UNK         0.0000 
     32 O32         1.1529   52.5427   26.3306 O.3       1 UNK         0.0000 
     33 C33         1.5157   53.2729   27.4966 C.3       1 UNK         0.0000 
     34 C34         2.8930   52.8411   28.0242 C.3       1 UNK         0.0000 
     35 C35         2.6911   52.9260   22.1994 C.3       1 UNK         0.0000 
     36 H36        -5.8505   46.0955   29.3649 H         1 UNK         0.0000 
     37 H37        -5.2201   44.6817   28.4777 H         1 UNK         0.0000 
     38 H38        -6.4687   45.7089   27.7745 H         1 UNK         0.0000 
     39 H39        -4.8438   47.6154   27.6647 H         1 UNK         0.0000 
     40 H40        -3.6467   46.6640   28.4995 H         1 UNK         0.0000 
     41 H41        -5.8522   45.4575   25.6268 H         1 UNK         0.0000 
     42 H42        -5.3785   47.0866   25.1342 H         1 UNK         0.0000 
     43 H43        -4.6464   45.6663   24.3927 H         1 UNK         0.0000 
     44 H44        -2.2381   47.2635   26.8569 H         1 UNK         0.0000 
     45 H45        -1.9084   49.1380   25.3470 H         1 UNK         0.0000 
     46 H46        -1.8659   47.4840   21.9197 H         1 UNK         0.0000 
     47 H47        -1.6744   52.5877   22.8227 H         1 UNK         0.0000 
     48 H48        -3.7876   53.6839   23.4224 H         1 UNK         0.0000 
     49 H49        -3.4835   52.0594   27.3961 H         1 UNK         0.0000 
     50 H50        -1.3594   51.0153   26.8072 H         1 UNK         0.0000 
     51 H51         1.4927   54.3481   27.3113 H         1 UNK         0.0000 
     52 H52         0.7611   53.0761   28.2591 H         1 UNK         0.0000 
     53 H53         3.1480   53.3863   28.9333 H         1 UNK         0.0000 
     54 H54         2.9051   51.7766   28.2562 H         1 UNK         0.0000 
     55 H55         3.6776   53.0307   27.2900 H         1 UNK         0.0000 
     56 H56         3.5394   52.9347   22.8843 H         1 UNK         0.0000 
     57 H57         3.0800   52.5993   21.2326 H         1 UNK         0.0000 
     58 H58         2.3378   53.9536   22.0818 H         1 UNK         0.0000 
@<TRIPOS>BOND
     1    1    2 1    
     2    1   36 1    
     3    1   37 1    
     4    1   38 1    
     5    2    3 1    
     6    2   39 1    
     7    2   40 1    
     8    3    4 1    
     9    3    5 1    
    10    3    6 1    
    11    5   41 1    
    12    5   42 1    
    13    5   43 1    
    14    6    7 1    
    15    6   44 1    
    16    7    8 1    
    17    7    9 2    
    18    9   10 1    
    19    9   45 1    
    20   10   19 1    
    21   10   11 2    
    22   11   12 1    
    23   11   46 1    
    24   12   13 1    
    25   13   19 1    
    26   13   14 2    
    27   14   15 1    
    28   15   16 2    
    29   15   35 1    
    30   16   17 1    
    31   16   30 1    
    32   17   18 1    
    33   17   19 1    
    34   17   20 1    
    35   20   25 ar   
    36   20   21 ar   
    37   21   22 ar   
    38   21   47 1    
    39   22   23 ar   
    40   22   48 1    
    41   23   24 ar   
    42   23   26 1    
    43   24   25 ar   
    44   24   49 1    
    45   25   50 1    
    46   26   27 1    
    47   26   28 1    
    48   26   29 1    
    49   30   31 2    
    50   30   32 1    
    51   32   33 1    
    52   33   34 1    
    53   33   51 1    
    54   33   52 1    
    55   34   53 1    
    56   34   54 1    
    57   34   55 1    
    58   35   56 1    
    59   35   57 1    
    60   35   58 1    
@<TRIPOS>SUBSTRUCTURE
     1 UNK         1 GROUP             0       ****    0 ROOT    
