@<TRIPOS>MOLECULE
ZINC12929084_3254
50   52    1
SMALL
USER_CHARGES


@<TRIPOS>ATOM
      1 C1          5.7111   58.4607   16.1001 C.3       1 UNK         0.0000 
      2 N2          5.0762   57.3714   16.8356 N.pl3     1 UNK         0.0000 
      3 C3          5.7717   56.4560   17.5920 C.ar      1 UNK         0.0000 
      4 C4          4.9062   55.4986   18.0902 C.ar      1 UNK         0.0000 
      5 C5          3.6399   55.8555   17.6389 C.ar      1 UNK         0.0000 
      6 C6          3.7294   57.0194   16.8761 C.ar      1 UNK         0.0000 
      7 C7          2.6277   57.6342   16.1699 C.2       1 UNK         0.0000 
      8 O8          1.5979   57.0122   15.9237 O.2       1 UNK         0.0000 
      9 N9          2.7616   58.9106   15.8243 N.am      1 UNK         0.0000 
     10 S10         5.3242   54.0536   19.0896 S.o2      1 UNK         0.0000 
     11 O11         4.2076   53.1086   18.9725 O.2       1 UNK         0.0000 
     12 O12         6.7044   53.7000   18.7461 O.2       1 UNK         0.0000 
     13 N13         5.3121   54.7613   20.7069 N.pl3     1 UNK         0.0000 
     14 C14         6.3134   55.7498   21.1533 C.3       1 UNK         0.0000 
     15 C15         7.0649   55.2638   22.4286 C.3       1 UNK         0.0000 
     16 N16         6.0939   54.6850   23.4083 N.am      1 UNK         0.0000 
     17 C17         5.1786   53.6491   22.8702 C.3       1 UNK         0.0000 
     18 C18         4.3694   54.3128   21.7419 C.3       1 UNK         0.0000 
     19 C19         6.2092   54.9791   24.7354 C.2       1 UNK         0.0000 
     20 O20         7.1044   55.6968   25.1797 O.2       1 UNK         0.0000 
     21 C21         5.2179   54.4483   25.7449 C.ar      1 UNK         0.0000 
     22 C22         3.8347   54.5042   25.5220 C.ar      1 UNK         0.0000 
     23 C23         2.9488   54.0534   26.4955 C.ar      1 UNK         0.0000 
     24 C24         3.4315   53.5552   27.7040 C.ar      1 UNK         0.0000 
     25 C25         4.8062   53.5207   27.9458 C.ar      1 UNK         0.0000 
     26 C26         5.6921   53.9758   26.9750 C.ar      1 UNK         0.0000 
     27 S27         2.2571   52.9835   28.9023 S.3       1 UNK         0.0000 
     28 C28         3.1407   52.3428   30.3499 C.3       1 UNK         0.0000 
     29 F29         3.9042   53.2925   30.8818 F         1 UNK         0.0000 
     30 F30         2.2766   51.9392   31.2769 F         1 UNK         0.0000 
     31 F31         3.9036   51.3000   30.0215 F         1 UNK         0.0000 
     32 H32         6.7935   58.3361   16.1012 H         1 UNK         0.0000 
     33 H33         5.3646   58.4678   15.0666 H         1 UNK         0.0000 
     34 H34         5.4809   59.4082   16.5839 H         1 UNK         0.0000 
     35 H35         6.8454   56.5386   17.6878 H         1 UNK         0.0000 
     36 H36         2.7314   55.3026   17.8407 H         1 UNK         0.0000 
     37 H37         3.5298   59.4832   16.1517 H         1 UNK         0.0000 
     38 H38         1.9906   59.3672   15.3628 H         1 UNK         0.0000 
     39 H39         7.0392   55.8474   20.3454 H         1 UNK         0.0000 
     40 H40         5.8243   56.7128   21.2818 H         1 UNK         0.0000 
     41 H41         7.7635   54.4809   22.1454 H         1 UNK         0.0000 
     42 H42         7.6223   56.0968   22.8551 H         1 UNK         0.0000 
     43 H43         4.5471   53.1475   23.5974 H         1 UNK         0.0000 
     44 H44         5.8125   52.8670   22.4460 H         1 UNK         0.0000 
     45 H45         3.8293   55.1923   22.0914 H         1 UNK         0.0000 
     46 H46         3.6277   53.6364   21.3183 H         1 UNK         0.0000 
     47 H47         3.4344   54.9037   24.6006 H         1 UNK         0.0000 
     48 H48         1.8849   54.0941   26.3104 H         1 UNK         0.0000 
     49 H49         5.2176   53.1438   28.8689 H         1 UNK         0.0000 
     50 H50         6.7527   53.9463   27.1814 H         1 UNK         0.0000 
@<TRIPOS>BOND
     1    1    2 1    
     2    1   32 1    
     3    1   33 1    
     4    1   34 1    
     5    2    6 ar   
     6    2    3 ar   
     7    3    4 ar   
     8    3   35 1    
     9    4    5 ar   
    10    4   10 1    
    11    5    6 ar   
    12    5   36 1    
    13    6    7 1    
    14    7    8 2    
    15    7    9 am   BACKBONE|DICT|INTERRES
    16    9   37 1    
    17    9   38 1    
    18   10   11 2    
    19   10   12 2    
    20   10   13 1    
    21   13   18 1    
    22   13   14 1    
    23   14   15 1    
    24   14   39 1    
    25   14   40 1    
    26   15   16 1    
    27   15   41 1    
    28   15   42 1    
    29   16   17 1    
    30   16   19 am   BACKBONE|DICT|INTERRES
    31   17   18 1    
    32   17   43 1    
    33   17   44 1    
    34   18   45 1    
    35   18   46 1    
    36   19   20 2    
    37   19   21 1    
    38   21   26 ar   
    39   21   22 ar   
    40   22   23 ar   
    41   22   47 1    
    42   23   24 ar   
    43   23   48 1    
    44   24   25 ar   
    45   24   27 1    
    46   25   26 ar   
    47   25   49 1    
    48   26   50 1    
    49   27   28 1    
    50   28   29 1    
    51   28   30 1    
    52   28   31 1    
@<TRIPOS>SUBSTRUCTURE
     1 UNK         1 GROUP             0       ****    0 ROOT    
