@<TRIPOS>MOLECULE
ZINC13261371_1934
50   53    1
SMALL
USER_CHARGES


@<TRIPOS>ATOM
      1 C1          0.9813   55.6585   16.4821 C.ar      1 UNK         0.0000 
      2 C2          1.8127   54.6209   16.8796 C.ar      1 UNK         0.0000 
      3 C3          3.1728   54.8515   17.0622 C.ar      1 UNK         0.0000 
      4 C4          3.7414   56.1222   16.8695 C.ar      1 UNK         0.0000 
      5 C5          2.8817   57.1749   16.4597 C.ar      1 UNK         0.0000 
      6 C6          1.5178   56.9222   16.2703 C.ar      1 UNK         0.0000 
      7 C7          3.4108   58.5773   16.2208 C.3       1 UNK         0.0000 
      8 C8          4.8906   58.5211   15.8540 C.3       1 UNK         0.0000 
      9 C9          5.6483   57.7324   16.9232 C.3       1 UNK         0.0000 
     10 N10         5.1463   56.3538   17.0547 N.pl3     1 UNK         0.0000 
     11 S11         6.3579   55.0915   17.5063 S.o2      1 UNK         0.0000 
     12 O12         7.6933   55.6589   17.2809 O.2       1 UNK         0.0000 
     13 O13         5.9895   53.8275   16.8621 O.2       1 UNK         0.0000 
     14 C14         6.1841   54.8825   19.2812 C.ar      1 UNK         0.0000 
     15 C15         5.2133   54.0166   19.7909 C.ar      1 UNK         0.0000 
     16 C16         5.0926   53.8399   21.1618 C.ar      1 UNK         0.0000 
     17 C17         5.9653   54.4967   22.0339 C.ar      1 UNK         0.0000 
     18 C18         6.9463   55.3543   21.5263 C.ar      1 UNK         0.0000 
     19 C19         7.0438   55.5622   20.1510 C.ar      1 UNK         0.0000 
     20 C20         5.9209   54.1823   23.4980 C.2       1 UNK         0.0000 
     21 O21         6.9170   53.6995   24.0346 O.2       1 UNK         0.0000 
     22 N22         4.7252   54.4194   24.0771 N.am      1 UNK         0.0000 
     23 C23         4.2563   54.1021   25.3697 C.ar      1 UNK         0.0000 
     24 C24         2.9136   53.7050   25.3803 C.ar      1 UNK         0.0000 
     25 C25         2.2876   53.3045   26.5569 C.ar      1 UNK         0.0000 
     26 C26         2.9951   53.2998   27.7499 C.ar      1 UNK         0.0000 
     27 C27         4.3203   53.7223   27.7679 C.ar      1 UNK         0.0000 
     28 C28         4.9741   54.1540   26.5987 C.ar      1 UNK         0.0000 
     29 C29         6.3660   54.6868   26.7523 C.2       1 UNK         0.0000 
     30 O30         6.7042   55.6967   26.0878 O.co2     1 UNK         0.0000 
     31 H31        -0.0735   55.4843   16.3333 H         1 UNK         0.0000 
     32 H32         1.4073   53.6326   17.0401 H         1 UNK         0.0000 
     33 H33         3.7538   53.9962   17.3446 H         1 UNK         0.0000 
     34 H34         0.8636   57.7267   15.9667 H         1 UNK         0.0000 
     35 H35         3.2810   59.1689   17.1289 H         1 UNK         0.0000 
     36 H36         2.8480   59.0877   15.4369 H         1 UNK         0.0000 
     37 H37         5.3007   59.5285   15.7720 H         1 UNK         0.0000 
     38 H38         5.0281   58.0560   14.8761 H         1 UNK         0.0000 
     39 H39         5.4660   58.1842   17.8985 H         1 UNK         0.0000 
     40 H40         6.7261   57.7922   16.7763 H         1 UNK         0.0000 
     41 H41         4.5707   53.4450   19.1429 H         1 UNK         0.0000 
     42 H42         4.3538   53.1428   21.5300 H         1 UNK         0.0000 
     43 H43         7.6516   55.8346   22.1912 H         1 UNK         0.0000 
     44 H44         7.8116   56.2159   19.7609 H         1 UNK         0.0000 
     45 H45         3.9973   54.6846   23.4319 H         1 UNK         0.0000 
     46 H46         2.3398   53.6783   24.4654 H         1 UNK         0.0000 
     47 H47         1.2561   52.9851   26.5377 H         1 UNK         0.0000 
     48 H48         2.5149   52.9816   28.6628 H         1 UNK         0.0000 
     49 H49         4.8397   53.7340   28.7152 H         1 UNK         0.0000 
     50 O50         7.1044   54.0987   27.5715 O.co2     1 UNK         0.0000 
@<TRIPOS>BOND
     1    1    6 ar   
     2    1    2 ar   
     3    1   31 1    
     4    2    3 ar   
     5    2   32 1    
     6    3    4 ar   
     7    3   33 1    
     8    4   10 1    
     9    4    5 ar   
    10    5    6 ar   
    11    5    7 1    
    12    6   34 1    
    13    7    8 1    
    14    7   35 1    
    15    7   36 1    
    16    8    9 1    
    17    8   37 1    
    18    8   38 1    
    19    9   10 1    
    20    9   39 1    
    21    9   40 1    
    22   10   11 1    
    23   11   12 2    
    24   11   13 2    
    25   11   14 1    
    26   14   19 ar   
    27   14   15 ar   
    28   15   16 ar   
    29   15   41 1    
    30   16   17 ar   
    31   16   42 1    
    32   17   18 ar   
    33   17   20 1    
    34   18   19 ar   
    35   18   43 1    
    36   19   44 1    
    37   20   21 2    
    38   20   22 am   BACKBONE|DICT|INTERRES
    39   22   23 1    
    40   22   45 1    
    41   23   28 ar   
    42   23   24 ar   
    43   24   25 ar   
    44   24   46 1    
    45   25   26 ar   
    46   25   47 1    
    47   26   27 ar   
    48   26   48 1    
    49   27   28 ar   
    50   27   49 1    
    51   28   29 1    
    52   29   30 2    
    53   29   50 1    
@<TRIPOS>SUBSTRUCTURE
     1 UNK         1 GROUP             0       ****    0 ROOT    
