@<TRIPOS>MOLECULE
ZINC39503378_3941
57   61    1
SMALL
USER_CHARGES


@<TRIPOS>ATOM
      1 C1          5.0970   54.0646   21.0937 C.ar      1 UNK         0.0000 
      2 C2          5.4903   54.0734   19.7582 C.ar      1 UNK         0.0000 
      3 C3          4.8000   53.2967   18.8305 C.ar      1 UNK         0.0000 
      4 C4          3.7086   52.5187   19.2293 C.ar      1 UNK         0.0000 
      5 C5          3.2765   52.5428   20.5639 C.ar      1 UNK         0.0000 
      6 C6          4.0005   53.3015   21.4947 C.ar      1 UNK         0.0000 
      7 C7          1.9876   51.8281   20.9867 C.3       1 UNK         0.0000 
      8 H8          1.5966   51.2130   20.1759 H         1 UNK         0.0000 
      9 C9          0.8668   52.8237   21.3014 C.3       1 UNK         0.0000 
     10 C10         0.0165   52.1864   22.3827 C.3       1 UNK         0.0000 
     11 C11         1.0318   51.4471   23.2681 C.3       1 UNK         0.0000 
     12 C12         2.0588   50.9083   22.2237 C.3       1 UNK         0.0000 
     13 C13         1.7192   52.4360   24.2425 C.3       1 UNK         0.0000 
     14 C14         0.9204   52.4569   25.5220 C.3       1 UNK         0.0000 
     15 H15         0.1043   53.1706   25.4241 H         1 UNK         0.0000 
     16 C16         0.3218   51.0542   25.4779 C.3       1 UNK         0.0000 
     17 N17         0.3746   50.4517   24.1348 N.pl3     1 UNK         0.0000 
     18 C18        -0.3388   49.2674   23.7854 C.ar      1 UNK         0.0000 
     19 C19        -0.6301   48.9432   22.4461 C.ar      1 UNK         0.0000 
     20 C20        -1.4085   47.8371   22.1054 C.ar      1 UNK         0.0000 
     21 C21        -1.9050   47.0012   23.0990 C.ar      1 UNK         0.0000 
     22 C22        -1.5948   47.2574   24.4297 C.ar      1 UNK         0.0000 
     23 C23        -0.8088   48.3603   24.7649 C.ar      1 UNK         0.0000 
     24 O24        -0.4986   48.5310   26.0810 O.3       1 UNK         0.0000 
     25 C25         1.6178   52.8447   26.8498 C.ar      1 UNK         0.0000 
     26 C26         1.1128   52.3133   28.0490 C.ar      1 UNK         0.0000 
     27 C27         1.7386   52.5571   29.2696 C.ar      1 UNK         0.0000 
     28 C28         2.8729   53.3623   29.3184 C.ar      1 UNK         0.0000 
     29 C29         3.3697   53.9330   28.1495 C.ar      1 UNK         0.0000 
     30 C30         2.7525   53.6830   26.9216 C.ar      1 UNK         0.0000 
     31 O31         3.3090   54.2726   25.8171 O.3       1 UNK         0.0000 
     32 O32         3.1042   51.7040   18.3052 O.3       1 UNK         0.0000 
     33 H33         5.6362   54.6572   21.8191 H         1 UNK         0.0000 
     34 H34         6.3388   54.6630   19.4424 H         1 UNK         0.0000 
     35 H35         5.1272   53.2716   17.8012 H         1 UNK         0.0000 
     36 H36         3.7006   53.3347   22.5289 H         1 UNK         0.0000 
     37 H37         1.2946   53.7225   21.7446 H         1 UNK         0.0000 
     38 H38         0.3087   53.1126   20.4113 H         1 UNK         0.0000 
     39 H39        -0.5535   52.9182   22.9541 H         1 UNK         0.0000 
     40 H40        -0.7260   51.5421   21.9229 H         1 UNK         0.0000 
     41 H41         1.7711   49.9013   21.9333 H         1 UNK         0.0000 
     42 H42         3.0667   50.8126   22.6217 H         1 UNK         0.0000 
     43 H43         2.7050   52.0508   24.4822 H         1 UNK         0.0000 
     44 H44         1.9375   53.4244   23.8443 H         1 UNK         0.0000 
     45 H45         0.9261   50.4319   26.1389 H         1 UNK         0.0000 
     46 H46        -0.6898   51.0954   25.8870 H         1 UNK         0.0000 
     47 H47        -0.2861   49.5487   21.6272 H         1 UNK         0.0000 
     48 H48        -1.6267   47.6329   21.0668 H         1 UNK         0.0000 
     49 H49        -2.5130   46.1487   22.8347 H         1 UNK         0.0000 
     50 H50        -1.9501   46.5947   25.2043 H         1 UNK         0.0000 
     51 H51        -1.0312   48.1002   26.7691 H         1 UNK         0.0000 
     52 H52         0.2382   51.6778   28.0430 H         1 UNK         0.0000 
     53 H53         1.3442   52.1093   30.1714 H         1 UNK         0.0000 
     54 H54         3.3712   53.5430   30.2580 H         1 UNK         0.0000 
     55 H55         4.2468   54.5617   28.2049 H         1 UNK         0.0000 
     56 H56         4.1111   54.7527   26.0309 H         1 UNK         0.0000 
     57 H57         3.7721   51.1048   17.9308 H         1 UNK         0.0000 
@<TRIPOS>BOND
     1    1    6 ar   
     2    1    2 ar   
     3    1   33 1    
     4    2    3 ar   
     5    2   34 1    
     6    3    4 ar   
     7    3   35 1    
     8    4    5 ar   
     9    4   32 1    
    10    5    6 ar   
    11    5    7 1    
    12    6   36 1    
    13    7    8 1    
    14    7   12 1    
    15    7    9 1    
    16    9   10 1    
    17    9   37 1    
    18    9   38 1    
    19   10   11 1    
    20   10   39 1    
    21   10   40 1    
    22   11   17 1    
    23   11   12 1    
    24   11   13 1    
    25   12   41 1    
    26   12   42 1    
    27   13   14 1    
    28   13   43 1    
    29   13   44 1    
    30   14   15 1    
    31   14   16 1    
    32   14   25 1    
    33   16   17 1    
    34   16   45 1    
    35   16   46 1    
    36   17   18 1    
    37   18   23 ar   
    38   18   19 ar   
    39   19   20 ar   
    40   19   47 1    
    41   20   21 ar   
    42   20   48 1    
    43   21   22 ar   
    44   21   49 1    
    45   22   23 ar   
    46   22   50 1    
    47   23   24 1    
    48   24   51 1    
    49   25   30 ar   
    50   25   26 ar   
    51   26   27 ar   
    52   26   52 1    
    53   27   28 ar   
    54   27   53 1    
    55   28   29 ar   
    56   28   54 1    
    57   29   30 ar   
    58   29   55 1    
    59   30   31 1    
    60   31   56 1    
    61   32   57 1    
@<TRIPOS>SUBSTRUCTURE
     1 UNK         1 GROUP             0       ****    0 ROOT    
