@<TRIPOS>MOLECULE
ZINC59310292_4510
61   66    1
SMALL
USER_CHARGES


@<TRIPOS>ATOM
      1 C1          0.5706   49.5727   24.5803 C.3       1 UNK         0.0000 
      2 C2         -0.9133   49.4709   24.1985 C.3       1 UNK         0.0000 
      3 H3         -1.3134   48.5983   24.7232 H         1 UNK         0.0000 
      4 C4         -1.6852   50.7041   24.6929 C.ar      1 UNK         0.0000 
      5 C5         -1.9147   51.8059   23.8572 C.ar      1 UNK         0.0000 
      6 C6         -2.6549   52.8912   24.3186 C.ar      1 UNK         0.0000 
      7 C7         -3.1627   52.8804   25.6165 C.ar      1 UNK         0.0000 
      8 C8         -2.9350   51.7926   26.4561 C.ar      1 UNK         0.0000 
      9 C9         -2.1997   50.7047   25.9935 C.ar      1 UNK         0.0000 
     10 N10        -1.0359   49.1819   22.7635 N.am      1 UNK         0.0000 
     11 C11        -2.1728   48.8520   22.1192 C.2       1 UNK         0.0000 
     12 O12        -3.2625   48.7570   22.6834 O.2       1 UNK         0.0000 
     13 C13        -2.0859   48.6100   20.6084 C.3       1 UNK         0.0000 
     14 S14        -0.7404   47.4872   20.0817 S.3       1 UNK         0.0000 
     15 C15         0.5509   48.6263   19.6803 C.ar      1 UNK         0.0000 
     16 N16         0.5692   49.8899   20.0960 N.2       1 UNK         0.0000 
     17 C17         1.6804   50.3474   19.5835 C.ar      1 UNK         0.0000 
     18 N18         2.3046   49.3620   18.8817 N.pl3     1 UNK         0.0000 
     19 N19         1.5813   48.2444   18.9491 N.2       1 UNK         0.0000 
     20 N20         2.2069   51.6062   19.7385 N.pl3     1 UNK         0.0000 
     21 N21         2.8276   52.0165   20.9192 N.2       1 UNK         0.0000 
     22 C22         3.4420   53.1260   20.8936 C.2       1 UNK         0.0000 
     23 C23         4.1556   53.6649   22.0594 C.ar      1 UNK         0.0000 
     24 C24         5.4572   54.1067   21.8258 C.ar      1 UNK         0.0000 
     25 C25         6.2956   54.5157   22.8492 C.ar      1 UNK         0.0000 
     26 C26         5.8617   54.5135   24.1869 C.ar      1 UNK         0.0000 
     27 C27         6.7043   54.8955   25.2440 C.ar      1 UNK         0.0000 
     28 C28         6.2681   54.8810   26.5578 C.ar      1 UNK         0.0000 
     29 C29         4.9551   54.4879   26.8788 C.ar      1 UNK         0.0000 
     30 C30         4.4732   54.4555   28.2085 C.ar      1 UNK         0.0000 
     31 C31         3.1692   54.0669   28.4878 C.ar      1 UNK         0.0000 
     32 C32         2.3012   53.6927   27.4706 C.ar      1 UNK         0.0000 
     33 C33         2.7150   53.6947   26.1183 C.ar      1 UNK         0.0000 
     34 C34         4.0607   54.1007   25.8169 C.ar      1 UNK         0.0000 
     35 C35         4.5123   54.1089   24.4688 C.ar      1 UNK         0.0000 
     36 C36         3.6311   53.6966   23.3989 C.ar      1 UNK         0.0000 
     37 C37         2.3044   53.3277   23.7490 C.ar      1 UNK         0.0000 
     38 C38         1.8652   53.3199   25.0623 C.ar      1 UNK         0.0000 
     39 H39         0.6980   49.6696   25.6601 H         1 UNK         0.0000 
     40 H40         1.1044   48.6736   24.2739 H         1 UNK         0.0000 
     41 H41         1.0568   50.4251   24.1044 H         1 UNK         0.0000 
     42 H42        -1.5249   51.8201   22.8505 H         1 UNK         0.0000 
     43 H43        -2.8319   53.7402   23.6754 H         1 UNK         0.0000 
     44 H44        -3.7329   53.7250   25.9772 H         1 UNK         0.0000 
     45 H45        -3.3290   51.7855   27.4613 H         1 UNK         0.0000 
     46 H46        -2.0338   49.8610   26.6503 H         1 UNK         0.0000 
     47 H47        -0.1720   49.1587   22.2404 H         1 UNK         0.0000 
     48 H48        -3.0198   48.1425   20.2972 H         1 UNK         0.0000 
     49 H49        -2.0432   49.5607   20.0797 H         1 UNK         0.0000 
     50 H50         2.3073   52.2507   18.9670 H         1 UNK         0.0000 
     51 H51         3.5047   53.7366   19.9954 H         1 UNK         0.0000 
     52 H52         5.8599   54.0998   20.8218 H         1 UNK         0.0000 
     53 H53         7.3075   54.8240   22.6244 H         1 UNK         0.0000 
     54 H54         7.7128   55.1932   25.0027 H         1 UNK         0.0000 
     55 H55         6.9380   55.1714   27.3556 H         1 UNK         0.0000 
     56 H56         5.1348   54.7443   29.0133 H         1 UNK         0.0000 
     57 H57         2.8247   54.0539   29.5103 H         1 UNK         0.0000 
     58 H58         1.2911   53.3908   27.7076 H         1 UNK         0.0000 
     59 H59         1.6094   53.0309   22.9786 H         1 UNK         0.0000 
     60 H60         0.8519   53.0163   25.2852 H         1 UNK         0.0000 
     61 H61         3.1704   49.4435   18.3509 H         1 UNK         0.0000 
@<TRIPOS>BOND
     1    1    2 1    
     2    1   39 1    
     3    1   40 1    
     4    1   41 1    
     5    2    3 1    
     6    2    4 1    
     7    2   10 1    
     8    4    9 ar   
     9    4    5 ar   
    10    5    6 ar   
    11    5   42 1    
    12    6    7 ar   
    13    6   43 1    
    14    7    8 ar   
    15    7   44 1    
    16    8    9 ar   
    17    8   45 1    
    18    9   46 1    
    19   10   11 am   BACKBONE|DICT|INTERRES
    20   10   47 1    
    21   11   12 2    
    22   11   13 1    
    23   13   14 1    
    24   13   48 1    
    25   13   49 1    
    26   14   15 1    
    27   15   19 ar   
    28   15   16 ar   
    29   16   17 ar   
    30   17   18 ar   
    31   17   20 1    
    32   18   19 ar   
    33   18   61 1    
    34   20   21 1    
    35   20   50 1    
    36   21   22 2    
    37   22   23 1    
    38   22   51 1    
    39   23   36 ar   
    40   23   24 ar   
    41   24   25 ar   
    42   24   52 1    
    43   25   26 ar   
    44   25   53 1    
    45   26   35 ar   
    46   26   27 ar   
    47   27   28 ar   
    48   27   54 1    
    49   28   29 ar   
    50   28   55 1    
    51   29   34 ar   
    52   29   30 ar   
    53   30   31 ar   
    54   30   56 1    
    55   31   32 ar   
    56   31   57 1    
    57   32   33 ar   
    58   32   58 1    
    59   33   38 ar   
    60   33   34 ar   
    61   34   35 ar   
    62   35   36 ar   
    63   36   37 ar   
    64   37   38 ar   
    65   37   59 1    
    66   38   60 1    
@<TRIPOS>SUBSTRUCTURE
     1 UNK         1 GROUP             0       ****    0 ROOT    
