@<TRIPOS>MOLECULE
ZINC63182446_4914
65   69    1
SMALL
USER_CHARGES


@<TRIPOS>ATOM
      1 C1          0.9946   54.1255   29.6430 C.2       1 UNK         0.0000 
      2 C2          0.2680   53.1416   30.4352 C.2       1 UNK         0.0000 
      3 C3         -0.3371   52.0668   29.8651 C.2       1 UNK         0.0000 
      4 C4         -0.2687   51.8657   28.4804 C.2       1 UNK         0.0000 
      5 N5         -0.7652   50.8967   27.7486 N.pl3     1 UNK         0.0000 
      6 C6         -0.4206   51.0849   26.3390 C.3       1 UNK         0.0000 
      7 H7          0.2390   50.2520   26.0867 H         1 UNK         0.0000 
      8 C8          0.3389   52.3975   26.3814 C.2       1 UNK         0.0000 
      9 C9          0.4182   52.7789   27.6737 C.2       1 UNK         0.0000 
     10 C10         1.0606   53.9421   28.3080 C.2       1 UNK         0.0000 
     11 C11         0.8508   53.0388   25.1026 C.3       1 UNK         0.0000 
     12 C12         1.7102   52.1064   24.2123 C.3       1 UNK         0.0000 
     13 C13         1.8396   52.5549   22.7443 C.2       1 UNK         0.0000 
     14 O14         1.5052   53.7062   22.4816 O.2       1 UNK         0.0000 
     15 N15         2.1820   51.6573   21.7799 N.am      1 UNK         0.0000 
     16 C16         2.1478   52.0433   20.3492 C.3       1 UNK         0.0000 
     17 C17         1.4366   50.9085   19.5717 C.3       1 UNK         0.0000 
     18 C18         2.1760   49.5647   19.7792 C.3       1 UNK         0.0000 
     19 C19         2.1596   49.2639   21.3003 C.3       1 UNK         0.0000 
     20 C20         2.8751   50.3877   22.0812 C.3       1 UNK         0.0000 
     21 C21         1.4044   48.4385   19.0544 C.2       1 UNK         0.0000 
     22 O22         0.2402   48.1984   19.3859 O.2       1 UNK         0.0000 
     23 N23         2.0628   47.7712   18.0774 N.am      1 UNK         0.0000 
     24 C24         1.5941   46.6617   17.3275 C.ar      1 UNK         0.0000 
     25 C25         0.7023   45.7250   17.8861 C.ar      1 UNK         0.0000 
     26 C26         0.2558   44.6305   17.1485 C.ar      1 UNK         0.0000 
     27 C27         0.6914   44.4477   15.8404 C.ar      1 UNK         0.0000 
     28 C28         1.5782   45.3589   15.2732 C.ar      1 UNK         0.0000 
     29 C29         2.0355   46.4590   16.0017 C.ar      1 UNK         0.0000 
     30 O30         2.9103   47.2966   15.3541 O.3       1 UNK         0.0000 
     31 C31        -1.6565   51.0532   25.4427 C.ar      1 UNK         0.0000 
     32 C32        -2.6607   52.0205   25.5706 C.ar      1 UNK         0.0000 
     33 C33        -3.7850   51.9678   24.7518 C.ar      1 UNK         0.0000 
     34 C34        -3.9040   50.9516   23.8082 C.ar      1 UNK         0.0000 
     35 C35        -2.9059   49.9910   23.6699 C.ar      1 UNK         0.0000 
     36 C36        -1.7816   50.0397   24.4892 C.ar      1 UNK         0.0000 
     37 F37        -5.0001   50.8945   23.0206 F         1 UNK         0.0000 
     38 H38         1.4559   54.9839   30.1103 H         1 UNK         0.0000 
     39 H39         0.1928   53.2701   31.5075 H         1 UNK         0.0000 
     40 H40        -0.8776   51.3762   30.5033 H         1 UNK         0.0000 
     41 H41         1.5956   54.6782   27.7244 H         1 UNK         0.0000 
     42 H42        -0.0308   53.3703   24.5506 H         1 UNK         0.0000 
     43 H43         1.4107   53.9446   25.3397 H         1 UNK         0.0000 
     44 H44         2.7043   52.0965   24.6403 H         1 UNK         0.0000 
     45 H45         1.3140   51.0920   24.2350 H         1 UNK         0.0000 
     46 H46         1.5954   52.9664   20.1760 H         1 UNK         0.0000 
     47 H47         3.1711   52.1641   19.9883 H         1 UNK         0.0000 
     48 H48         0.4093   50.8838   19.9435 H         1 UNK         0.0000 
     49 H49         1.4595   51.2056   18.5214 H         1 UNK         0.0000 
     50 H50         3.1906   49.5968   19.3755 H         1 UNK         0.0000 
     51 H51         2.7048   48.3462   21.5232 H         1 UNK         0.0000 
     52 H52         1.1475   49.2138   21.7078 H         1 UNK         0.0000 
     53 H53         3.9036   50.4965   21.7322 H         1 UNK         0.0000 
     54 H54         2.8856   50.1134   23.1359 H         1 UNK         0.0000 
     55 H55         2.9318   48.1896   17.7582 H         1 UNK         0.0000 
     56 H56         0.3567   45.8224   18.9041 H         1 UNK         0.0000 
     57 H57        -0.4291   43.9232   17.5931 H         1 UNK         0.0000 
     58 H58         0.3446   43.6017   15.2651 H         1 UNK         0.0000 
     59 H59         1.9131   45.2112   14.2574 H         1 UNK         0.0000 
     60 H60         3.3218   47.9999   15.8914 H         1 UNK         0.0000 
     61 H61        -2.5726   52.8066   26.3067 H         1 UNK         0.0000 
     62 H62        -4.5671   52.7058   24.8499 H         1 UNK         0.0000 
     63 H63        -3.0092   49.2080   22.9339 H         1 UNK         0.0000 
     64 H64        -1.0151   49.2856   24.3819 H         1 UNK         0.0000 
     65 H65        -1.2411   50.0423   28.0813 H         1 UNK         0.0000 
@<TRIPOS>BOND
     1    1   10 2    
     2    1    2 1    
     3    1   38 1    
     4    2    3 2    
     5    2   39 1    
     6    3    4 1    
     7    3   40 1    
     8    4    9 1    
     9    4    5 2    
    10    5    6 1    
    11    5   65 1    
    12    6    7 1    
    13    6    8 1    
    14    6   31 1    
    15    8    9 2    
    16    8   11 1    
    17    9   10 1    
    18   10   41 1    
    19   11   12 1    
    20   11   42 1    
    21   11   43 1    
    22   12   13 1    
    23   12   44 1    
    24   12   45 1    
    25   13   14 2    
    26   13   15 am   BACKBONE|DICT|INTERRES
    27   15   20 1    
    28   15   16 1    
    29   16   17 1    
    30   16   46 1    
    31   16   47 1    
    32   17   18 1    
    33   17   48 1    
    34   17   49 1    
    35   18   19 1    
    36   18   21 1    
    37   18   50 1    
    38   19   20 1    
    39   19   51 1    
    40   19   52 1    
    41   20   53 1    
    42   20   54 1    
    43   21   22 2    
    44   21   23 am   BACKBONE|DICT|INTERRES
    45   23   24 1    
    46   23   55 1    
    47   24   29 ar   
    48   24   25 ar   
    49   25   26 ar   
    50   25   56 1    
    51   26   27 ar   
    52   26   57 1    
    53   27   28 ar   
    54   27   58 1    
    55   28   29 ar   
    56   28   59 1    
    57   29   30 1    
    58   30   60 1    
    59   31   36 ar   
    60   31   32 ar   
    61   32   33 ar   
    62   32   61 1    
    63   33   34 ar   
    64   33   62 1    
    65   34   35 ar   
    66   34   37 1    
    67   35   36 ar   
    68   35   63 1    
    69   36   64 1    
@<TRIPOS>SUBSTRUCTURE
     1 UNK         1 GROUP             0       ****    0 ROOT    
