ZINC20829096_2968
                    3D
 Schrodinger Suite 2024-2.
 60 63  0  0  1  0            999 V2000
    3.8394   52.4603   30.3740 C   0  0  0  0  0  0
    2.9727   52.6247   29.1387 C   0  0  0  0  0  0
    1.6792   52.0981   29.1010 C   0  0  0  0  0  0
    0.9049   52.2298   27.9500 C   0  0  0  0  0  0
    1.4147   52.8959   26.8342 C   0  0  0  0  0  0
    2.7063   53.4349   26.8620 C   0  0  0  0  0  0
    3.4770   53.2960   28.0214 C   0  0  0  0  0  0
    3.2802   54.1352   25.7880 N   0  0  0  0  0  0
    2.5491   54.4931   24.5711 C   0  0  0  0  0  0
    2.4466   53.3962   23.5414 C   0  0  0  0  0  0
    1.4373   52.5706   23.4427 N   0  0  0  0  0  0
    1.6951   51.7536   22.3537 N   0  0  0  0  0  0
    2.8454   52.1214   21.8383 C   0  0  0  0  0  0
    3.3782   53.1795   22.5457 N   0  0  0  0  0  0
    4.5551   53.9127   22.2695 C   0  0  0  0  0  0
    5.5396   54.0489   23.2548 C   0  0  0  0  0  0
    6.7047   54.7566   22.9728 C   0  0  0  0  0  0
    6.8843   55.3221   21.7118 C   0  0  0  0  0  0
    5.9046   55.1924   20.7278 C   0  0  0  0  0  0
    4.7367   54.4867   21.0062 C   0  0  0  0  0  0
    3.6604   51.3461   20.4813 S   0  0  0  0  0  0
    2.5145   50.0174   20.0160 C   0  0  0  0  0  0
    1.8561   50.2285   18.6451 C   0  0  0  0  0  0
    1.1462   48.9625   18.1776 C   0  0  0  0  0  0
   -0.0379   48.8052   18.4734 O   0  0  0  0  0  0
    1.9043   48.0866   17.4869 N   0  0  0  0  0  0
    1.5741   46.7758   17.1038 C   0  0  0  0  0  0
    2.3452   46.2094   16.0868 C   0  0  0  0  0  0
    2.1086   44.9003   15.6796 C   0  0  0  0  0  0
    1.1100   44.1379   16.2977 C   0  0  0  0  0  0
    0.3379   44.7049   17.3145 C   0  0  0  0  0  0
    0.5674   46.0152   17.7182 C   0  0  0  0  0  0
    0.8538   42.6873   15.8890 C   0  0  0  0  0  0
    1.7046   42.2636   14.9507 F   0  0  0  0  0  0
   -0.3883   42.5685   15.4145 F   0  0  0  0  0  0
    0.9806   41.8921   16.9554 F   0  0  0  0  0  0
    3.3906   51.7885   31.1066 H   0  0  0  0  0  0
    4.8055   52.0448   30.0866 H   0  0  0  0  0  0
    4.0227   53.4274   30.8412 H   0  0  0  0  0  0
    1.2704   51.5831   29.9572 H   0  0  0  0  0  0
   -0.0920   51.8119   27.9225 H   0  0  0  0  0  0
    0.7935   52.9848   25.9565 H   0  0  0  0  0  0
    4.4780   53.7012   28.0555 H   0  0  0  0  0  0
    4.0532   54.7352   26.0333 H   0  0  0  0  0  0
    3.1033   55.2969   24.1033 H   0  0  0  0  0  0
    1.5604   54.8883   24.7965 H   0  0  0  0  0  0
    5.4171   53.5928   24.2274 H   0  0  0  0  0  0
    7.4755   54.8549   23.7247 H   0  0  0  0  0  0
    7.7970   55.8582   21.4962 H   0  0  0  0  0  0
    6.0549   55.6285   19.7509 H   0  0  0  0  0  0
    3.9789   54.3841   20.2412 H   0  0  0  0  0  0
    1.7519   49.8492   20.7756 H   0  0  0  0  0  0
    3.1043   49.1012   19.9961 H   0  0  0  0  0  0
    2.6330   50.4976   17.9261 H   0  0  0  0  0  0
    1.2151   51.1108   18.6420 H   0  0  0  0  0  0
    2.8155   48.4396   17.1688 H   0  0  0  0  0  0
    3.1308   46.7862   15.6173 H   0  0  0  0  0  0
    2.7045   44.4853   14.8824 H   0  0  0  0  0  0
   -0.4377   44.1275   17.7968 H   0  0  0  0  0  0
   -0.0281   46.4086   18.5263 H   0  0  0  0  0  0
  1  2  1  0  0  0
  1 37  1  0  0  0
  1 38  1  0  0  0
  1 39  1  0  0  0
  2  7  2  0  0  0
  2  3  1  0  0  0
  3  4  2  0  0  0
  3 40  1  0  0  0
  4  5  1  0  0  0
  4 41  1  0  0  0
  5  6  2  0  0  0
  5 42  1  0  0  0
  6  7  1  0  0  0
  6  8  1  0  0  0
  7 43  1  0  0  0
  8  9  1  0  0  0
  8 44  1  0  0  0
  9 10  1  0  0  0
  9 45  1  0  0  0
  9 46  1  0  0  0
 10 14  1  0  0  0
 10 11  2  0  0  0
 11 12  1  0  0  0
 12 13  2  0  0  0
 13 14  1  0  0  0
 13 21  1  0  0  0
 14 15  1  0  0  0
 15 20  2  0  0  0
 15 16  1  0  0  0
 16 17  2  0  0  0
 16 47  1  0  0  0
 17 18  1  0  0  0
 17 48  1  0  0  0
 18 19  2  0  0  0
 18 49  1  0  0  0
 19 20  1  0  0  0
 19 50  1  0  0  0
 20 51  1  0  0  0
 21 22  1  0  0  0
 22 23  1  0  0  0
 22 52  1  0  0  0
 22 53  1  0  0  0
 23 24  1  0  0  0
 23 54  1  0  0  0
 23 55  1  0  0  0
 24 25  2  0  0  0
 24 26  1  0  0  0
 26 27  1  0  0  0
 26 56  1  0  0  0
 27 32  2  0  0  0
 27 28  1  0  0  0
 28 29  2  0  0  0
 28 57  1  0  0  0
 29 30  1  0  0  0
 29 58  1  0  0  0
 30 31  2  0  0  0
 30 33  1  0  0  0
 31 32  1  0  0  0
 31 59  1  0  0  0
 32 60  1  0  0  0
 33 34  1  0  0  0
 33 35  1  0  0  0
 33 36  1  0  0  0
M  END
> <i_i_glide_confnum>
353

> <i_i_glide_lignum>
2969

> <i_i_glide_posenum>
145

> <i_i_glide_rotatable_bonds>
11

> <i_m_Source_File_Index>
2838

> <b_m_subgroup_collapsed>
0

> <r_i_docking_score>
-5.56464

> <r_i_glide_ecoul>
-5.20619

> <r_i_glide_eff_state_penalty>
0

> <r_i_glide_einternal>
6.85353

> <r_i_glide_emodel>
-62.756

> <r_i_glide_energy>
-47.9902

> <r_i_glide_erotb>
0.783116

> <r_i_glide_esite>
-0.177819

> <r_i_glide_evdw>
-42.784

> <r_i_glide_gscore>
-5.56464

> <r_i_glide_hbond>
-0.16

> <r_i_glide_ligand_efficiency>
-0.154573

> <r_i_glide_ligand_efficiency_ln>
-1.21406

> <r_i_glide_ligand_efficiency_sa>
-0.51039

> <r_i_glide_lipo>
-2.53932

> <r_i_glide_metal>
0

> <r_i_glide_rewards>
-0.550493

> <s_i_glide_gridfile>
wee1_glide-grid

> <s_m_Source_File>
wee1_decoys_glide_SP.sdf

> <s_m_Source_Path>
/Users/zhangxujun/Desktop

> <s_m_entry_id>
3113

> <s_m_entry_name>
wee1_decoys_glide_SP.2838

> <s_m_subgroup_title>
wee1_decoys_glide_SP

> <s_m_subgroupid>
wee1_decoys_glide_SP


$$$$
