@<TRIPOS>MOLECULE
ZINC58849328_4002
62   67    1
SMALL
USER_CHARGES


@<TRIPOS>ATOM
      1 C1          5.5044   53.6929   21.5772 C.3       1 UNK         0.0000 
      2 O2          4.2124   53.9718   22.0847 O.3       1 UNK         0.0000 
      3 C3          4.0542   54.0874   23.4476 C.ar      1 UNK         0.0000 
      4 C4          2.7514   53.9783   23.9179 C.ar      1 UNK         0.0000 
      5 C5          2.4827   54.0967   25.2748 C.ar      1 UNK         0.0000 
      6 C6          3.5053   54.3578   26.1908 C.ar      1 UNK         0.0000 
      7 C7          4.8292   54.4295   25.7371 C.ar      1 UNK         0.0000 
      8 C8          5.0962   54.2995   24.3662 C.ar      1 UNK         0.0000 
      9 O9          5.8428   54.7340   26.6138 O.3       1 UNK         0.0000 
     10 C10         6.8218   53.7169   26.7716 C.3       1 UNK         0.0000 
     11 N11         3.1715   54.6467   27.5235 N.pl3     1 UNK         0.0000 
     12 S12         3.2262   53.4600   28.8340 S.o2      1 UNK         0.0000 
     13 O13         4.2890   52.4970   28.5494 O.2       1 UNK         0.0000 
     14 O14         3.2173   54.2289   30.0817 O.2       1 UNK         0.0000 
     15 C15         1.6551   52.6180   28.7230 C.ar      1 UNK         0.0000 
     16 C16         0.7919   52.5763   29.8164 C.ar      1 UNK         0.0000 
     17 C17        -0.4953   52.0757   29.6530 C.ar      1 UNK         0.0000 
     18 C18        -0.9339   51.6500   28.3949 C.ar      1 UNK         0.0000 
     19 C19        -0.0797   51.6995   27.2768 C.ar      1 UNK         0.0000 
     20 C20         1.2383   52.1082   27.4941 C.ar      1 UNK         0.0000 
     21 C21        -0.5767   51.3818   25.8595 C.3       1 UNK         0.0000 
     22 H22        -0.4460   52.2942   25.2755 H         1 UNK         0.0000 
     23 C23         0.1356   50.2200   25.1922 C.2       1 UNK         0.0000 
     24 C24        -0.6638   49.1498   25.0623 C.2       1 UNK         0.0000 
     25 C25        -2.0567   49.4341   25.5747 C.3       1 UNK         0.0000 
     26 C26        -2.0516   50.9528   25.8009 C.3       1 UNK         0.0000 
     27 H27        -2.4641   51.3835   24.8858 H         1 UNK         0.0000 
     28 C28        -2.9319   51.5001   26.9601 C.3       1 UNK         0.0000 
     29 H29        -2.9975   52.5833   26.8431 H         1 UNK         0.0000 
     30 N30        -2.2838   51.2967   28.2544 N.pl3     1 UNK         0.0000 
     31 C31        -4.3736   50.9975   26.8860 C.ar      1 UNK         0.0000 
     32 C32        -5.3117   51.6968   26.1000 C.ar      1 UNK         0.0000 
     33 C33        -6.6389   51.2584   25.9987 C.ar      1 UNK         0.0000 
     34 C34        -6.9937   50.1140   26.7041 C.ar      1 UNK         0.0000 
     35 C35        -6.0911   49.4259   27.4637 C.ar      1 UNK         0.0000 
     36 C36        -4.7667   49.8335   27.5751 C.ar      1 UNK         0.0000 
     37 O37        -6.6943   48.3327   27.9997 O.3       1 UNK         0.0000 
     38 C38        -8.0623   48.4828   27.7233 C.3       1 UNK         0.0000 
     39 O39        -8.1935   49.4779   26.7428 O.3       1 UNK         0.0000 
     40 H40         5.4429   53.5130   20.5036 H         1 UNK         0.0000 
     41 H41         5.9043   52.7917   22.0454 H         1 UNK         0.0000 
     42 H42         6.1931   54.5243   21.7362 H         1 UNK         0.0000 
     43 H43         1.9432   53.8178   23.2191 H         1 UNK         0.0000 
     44 H44         1.4553   54.0668   25.6012 H         1 UNK         0.0000 
     45 H45         6.1148   54.4010   24.0258 H         1 UNK         0.0000 
     46 H46         7.6905   54.1321   27.2807 H         1 UNK         0.0000 
     47 H47         6.4467   52.8981   27.3826 H         1 UNK         0.0000 
     48 H48         7.1431   53.2967   25.8192 H         1 UNK         0.0000 
     49 H49         2.7025   55.5150   27.7260 H         1 UNK         0.0000 
     50 H50         1.0960   52.9527   30.7830 H         1 UNK         0.0000 
     51 H51        -1.1580   52.0398   30.5064 H         1 UNK         0.0000 
     52 H52         1.9266   52.0967   26.6676 H         1 UNK         0.0000 
     53 H53         1.1677   50.2728   24.8836 H         1 UNK         0.0000 
     54 H54        -0.3847   48.1913   24.6508 H         1 UNK         0.0000 
     55 H55        -2.2615   48.8732   26.4816 H         1 UNK         0.0000 
     56 H56        -2.8138   49.1512   24.8428 H         1 UNK         0.0000 
     57 H57        -2.8952   51.2349   29.0546 H         1 UNK         0.0000 
     58 H58        -5.0082   52.5812   25.5592 H         1 UNK         0.0000 
     59 H59        -7.3518   51.7927   25.3874 H         1 UNK         0.0000 
     60 H60        -4.0542   49.2679   28.1622 H         1 UNK         0.0000 
     61 H61        -8.5783   48.8046   28.6299 H         1 UNK         0.0000 
     62 H62        -8.4894   47.5421   27.3740 H         1 UNK         0.0000 
@<TRIPOS>BOND
     1    1    2 1    
     2    1   40 1    
     3    1   41 1    
     4    1   42 1    
     5    2    3 1    
     6    3    8 ar   
     7    3    4 ar   
     8    4    5 ar   
     9    4   43 1    
    10    5    6 ar   
    11    5   44 1    
    12    6    7 ar   
    13    6   11 1    
    14    7    8 ar   
    15    7    9 1    
    16    8   45 1    
    17    9   10 1    
    18   10   46 1    
    19   10   47 1    
    20   10   48 1    
    21   11   12 1    
    22   11   49 1    
    23   12   13 2    
    24   12   14 2    
    25   12   15 1    
    26   15   20 ar   
    27   15   16 ar   
    28   16   17 ar   
    29   16   50 1    
    30   17   18 ar   
    31   17   51 1    
    32   18   30 1    
    33   18   19 ar   
    34   19   20 ar   
    35   19   21 1    
    36   20   52 1    
    37   21   22 1    
    38   21   26 1    
    39   21   23 1    
    40   23   24 2    
    41   23   53 1    
    42   24   25 1    
    43   24   54 1    
    44   25   26 1    
    45   25   55 1    
    46   25   56 1    
    47   26   27 1    
    48   26   28 1    
    49   28   29 1    
    50   28   30 1    
    51   28   31 1    
    52   30   57 1    
    53   31   36 ar   
    54   31   32 ar   
    55   32   33 ar   
    56   32   58 1    
    57   33   34 ar   
    58   33   59 1    
    59   34   39 1    
    60   34   35 ar   
    61   35   36 ar   
    62   35   37 1    
    63   36   60 1    
    64   37   38 1    
    65   38   39 1    
    66   38   61 1    
    67   38   62 1    
@<TRIPOS>SUBSTRUCTURE
     1 UNK         1 GROUP             0       ****    0 ROOT    
