@<TRIPOS>MOLECULE
ZINC36025896_2822
64   68    1
SMALL
USER_CHARGES


@<TRIPOS>ATOM
      1 C1         -0.8900   51.8930   30.2338 C.3       1 UNK         0.0000 
      2 C2          0.0601   52.4004   29.1710 C.ar      1 UNK         0.0000 
      3 C3          0.1902   51.7239   27.9590 C.ar      1 UNK         0.0000 
      4 C4          1.0362   52.2231   26.9705 C.ar      1 UNK         0.0000 
      5 C5          1.7647   53.4007   27.1867 C.ar      1 UNK         0.0000 
      6 C6          1.6210   54.0979   28.4044 C.ar      1 UNK         0.0000 
      7 C7          0.7676   53.5842   29.3842 C.ar      1 UNK         0.0000 
      8 C8          2.3041   55.4320   28.6776 C.3       1 UNK         0.0000 
      9 N9          2.6462   53.8373   26.1730 N.pl3     1 UNK         0.0000 
     10 C10         4.0144   54.0524   26.2362 C.ar      1 UNK         0.0000 
     11 C11         4.4180   54.4426   24.9373 C.ar      1 UNK         0.0000 
     12 C12         3.1950   54.4839   24.1951 C.ar      1 UNK         0.0000 
     13 N13         2.1832   54.0933   24.9260 N.2       1 UNK         0.0000 
     14 C14         5.8089   54.6339   24.7496 C.ar      1 UNK         0.0000 
     15 N15         6.6635   54.4855   25.7945 N.ar      1 UNK         0.0000 
     16 C16         6.1316   54.1051   26.9834 C.ar      1 UNK         0.0000 
     17 N17         4.8304   53.8687   27.2790 N.ar      1 UNK         0.0000 
     18 C18         7.1058   53.8420   28.1048 C.3       1 UNK         0.0000 
     19 N19         6.4311   54.8935   23.5194 N.pl3     1 UNK         0.0000 
     20 C20         5.7780   54.6903   22.2246 C.3       1 UNK         0.0000 
     21 C21         5.4208   53.1989   22.0429 C.3       1 UNK         0.0000 
     22 C22         4.6866   52.9800   20.7074 C.3       1 UNK         0.0000 
     23 C23         5.4531   53.5431   19.4854 C.3       1 UNK         0.0000 
     24 C24         6.1110   54.9422   19.7186 C.3       1 UNK         0.0000 
     25 C25         6.7535   55.1183   21.1148 C.3       1 UNK         0.0000 
     26 N26         4.8006   53.2972   18.2010 N.am      1 UNK         0.0000 
     27 C27         3.8382   54.0556   17.6404 C.2       1 UNK         0.0000 
     28 O28         3.5054   55.1546   18.0807 O.2       1 UNK         0.0000 
     29 C29         3.1709   53.4785   16.4160 C.ar      1 UNK         0.0000 
     30 C30         2.9376   52.0971   16.3122 C.ar      1 UNK         0.0000 
     31 C31         2.3093   51.5622   15.1887 C.ar      1 UNK         0.0000 
     32 C32         1.9015   52.3973   14.1518 C.ar      1 UNK         0.0000 
     33 C33         2.1272   53.7701   14.2393 C.ar      1 UNK         0.0000 
     34 C34         2.7600   54.3107   15.3595 C.ar      1 UNK         0.0000 
     35 F35         2.9726   55.6488   15.3908 F         1 UNK         0.0000 
     36 H36        -1.2906   52.7426   30.7706 H         1 UNK         0.0000 
     37 H37        -1.7179   51.3240   29.8088 H         1 UNK         0.0000 
     38 H38        -0.3961   51.2970   30.9880 H         1 UNK         0.0000 
     39 H39        -0.3632   50.8120   27.7823 H         1 UNK         0.0000 
     40 H40         1.1263   51.6852   26.0383 H         1 UNK         0.0000 
     41 H41         0.6380   54.1176   30.3155 H         1 UNK         0.0000 
     42 H42         1.7739   56.0073   29.4364 H         1 UNK         0.0000 
     43 H43         3.3339   55.2877   29.0040 H         1 UNK         0.0000 
     44 H44         2.3043   56.0520   27.7833 H         1 UNK         0.0000 
     45 H45         3.0413   54.7419   23.1576 H         1 UNK         0.0000 
     46 H46         6.6526   54.0323   29.0771 H         1 UNK         0.0000 
     47 H47         7.4567   52.8097   28.0721 H         1 UNK         0.0000 
     48 H48         7.9622   54.5021   28.0235 H         1 UNK         0.0000 
     49 H49         7.4407   54.8356   23.5334 H         1 UNK         0.0000 
     50 H50         4.8763   55.2947   22.1461 H         1 UNK         0.0000 
     51 H51         6.3043   52.5644   22.1093 H         1 UNK         0.0000 
     52 H52         4.7660   52.8581   22.8401 H         1 UNK         0.0000 
     53 H53         3.7209   53.4842   20.7723 H         1 UNK         0.0000 
     54 H54         4.4841   51.9166   20.5718 H         1 UNK         0.0000 
     55 H55         6.3056   52.8731   19.4153 H         1 UNK         0.0000 
     56 H56         6.8550   55.1427   18.9455 H         1 UNK         0.0000 
     57 H57         5.3483   55.7165   19.6390 H         1 UNK         0.0000 
     58 H58         7.6794   54.5463   21.1645 H         1 UNK         0.0000 
     59 H59         7.0396   56.1627   21.2494 H         1 UNK         0.0000 
     60 H60         4.8620   52.3357   17.8826 H         1 UNK         0.0000 
     61 H61         3.2382   51.4152   17.0970 H         1 UNK         0.0000 
     62 H62         2.1490   50.4939   15.1283 H         1 UNK         0.0000 
     63 H63         1.4166   51.9811   13.2813 H         1 UNK         0.0000 
     64 H64         1.8162   54.4186   13.4343 H         1 UNK         0.0000 
@<TRIPOS>BOND
     1    1    2 1    
     2    1   36 1    
     3    1   37 1    
     4    1   38 1    
     5    2    7 ar   
     6    2    3 ar   
     7    3    4 ar   
     8    3   39 1    
     9    4    5 ar   
    10    4   40 1    
    11    5    6 ar   
    12    5    9 1    
    13    6    7 ar   
    14    6    8 1    
    15    7   41 1    
    16    8   42 1    
    17    8   43 1    
    18    8   44 1    
    19    9   13 ar   
    20    9   10 ar   
    21   10   17 ar   
    22   10   11 ar   
    23   11   12 ar   
    24   11   14 ar   
    25   12   13 ar   
    26   12   45 1    
    27   14   15 ar   
    28   14   19 1    
    29   15   16 ar   
    30   16   17 ar   
    31   16   18 1    
    32   18   46 1    
    33   18   47 1    
    34   18   48 1    
    35   19   20 1    
    36   19   49 1    
    37   20   25 1    
    38   20   21 1    
    39   20   50 1    
    40   21   22 1    
    41   21   51 1    
    42   21   52 1    
    43   22   23 1    
    44   22   53 1    
    45   22   54 1    
    46   23   24 1    
    47   23   26 1    
    48   23   55 1    
    49   24   25 1    
    50   24   56 1    
    51   24   57 1    
    52   25   58 1    
    53   25   59 1    
    54   26   27 am   BACKBONE|DICT|INTERRES
    55   26   60 1    
    56   27   28 2    
    57   27   29 1    
    58   29   34 ar   
    59   29   30 ar   
    60   30   31 ar   
    61   30   61 1    
    62   31   32 ar   
    63   31   62 1    
    64   32   33 ar   
    65   32   63 1    
    66   33   34 ar   
    67   33   64 1    
    68   34   35 1    
@<TRIPOS>SUBSTRUCTURE
     1 UNK         1 GROUP             0       ****    0 ROOT    
