@<TRIPOS>MOLECULE
ZINC35303144_4946
61   65    1
SMALL
USER_CHARGES


@<TRIPOS>ATOM
      1 C1          3.8914   57.2714   17.4342 C.3       1 UNK         0.0000 
      2 C2          5.4081   57.3442   17.6451 C.3       1 UNK         0.0000 
      3 C3          6.1674   56.0443   17.2655 C.3       1 UNK         0.0000 
      4 H4          7.2253   56.2892   17.3707 H         1 UNK         0.0000 
      5 C5          5.9541   55.7469   15.7598 C.3       1 UNK         0.0000 
      6 C6          5.8553   54.8142   18.2033 C.3       1 UNK         0.0000 
      7 H7          4.7765   54.6538   18.1761 H         1 UNK         0.0000 
      8 C8          6.2450   55.0896   19.6838 C.2       1 UNK         0.0000 
      9 O9          7.2027   55.8252   19.9449 O.2       1 UNK         0.0000 
     10 N10         5.4787   54.4644   20.6102 N.am      1 UNK         0.0000 
     11 C11         5.6489   54.5279   21.9887 C.2       1 UNK         0.0000 
     12 N12         6.7139   54.9221   22.6462 N.2       1 UNK         0.0000 
     13 N13         6.5443   54.8960   24.0234 N.2       1 UNK         0.0000 
     14 C14         5.3488   54.4957   24.3872 C.2       1 UNK         0.0000 
     15 S15         4.3230   54.0957   23.0223 S.3       1 UNK         0.0000 
     16 C16         4.8980   54.3704   25.8155 C.ar      1 UNK         0.0000 
     17 C17         5.8410   54.4689   26.8637 C.ar      1 UNK         0.0000 
     18 C18         5.4588   54.3784   28.2079 C.ar      1 UNK         0.0000 
     19 C19         4.1094   54.1804   28.4797 C.ar      1 UNK         0.0000 
     20 C20         3.1874   54.0797   27.4779 C.ar      1 UNK         0.0000 
     21 C21         3.5405   54.1665   26.1375 C.ar      1 UNK         0.0000 
     22 O22         1.9501   53.9387   28.0174 O.3       1 UNK         0.0000 
     23 C23         2.1503   53.7494   29.3932 C.3       1 UNK         0.0000 
     24 O24         3.4813   54.0980   29.6822 O.3       1 UNK         0.0000 
     25 N25         6.4173   53.5369   17.7347 N.am      1 UNK         0.0000 
     26 C26         7.6606   53.2927   17.2912 C.2       1 UNK         0.0000 
     27 O27         8.5976   54.0902   17.3481 O.2       1 UNK         0.0000 
     28 N28         7.7028   52.0931   16.7017 N.am      1 UNK         0.0000 
     29 C29         8.6974   51.6537   15.8186 C.ar      1 UNK         0.0000 
     30 C30        10.0093   51.4833   16.2637 C.ar      1 UNK         0.0000 
     31 C31        10.9951   50.9889   15.4171 C.ar      1 UNK         0.0000 
     32 C32        10.6946   50.6598   14.0999 C.ar      1 UNK         0.0000 
     33 C33         9.3804   50.8200   13.6016 C.ar      1 UNK         0.0000 
     34 C34         8.3545   51.3184   14.4678 C.ar      1 UNK         0.0000 
     35 C35         7.0357   51.4523   13.9383 C.ar      1 UNK         0.0000 
     36 C36         6.7584   51.1130   12.6169 C.ar      1 UNK         0.0000 
     37 C37         7.7644   50.6413   11.7833 C.ar      1 UNK         0.0000 
     38 C38         9.0640   50.4965   12.2604 C.ar      1 UNK         0.0000 
     39 H39         3.4209   58.2260   17.6716 H         1 UNK         0.0000 
     40 H40         3.6279   57.0512   16.4000 H         1 UNK         0.0000 
     41 H41         3.4403   56.5085   18.0691 H         1 UNK         0.0000 
     42 H42         5.6042   57.6174   18.6812 H         1 UNK         0.0000 
     43 H43         5.8012   58.1785   17.0601 H         1 UNK         0.0000 
     44 H44         4.9469   55.3744   15.5611 H         1 UNK         0.0000 
     45 H45         6.1047   56.6415   15.1567 H         1 UNK         0.0000 
     46 H46         6.6527   55.0022   15.3775 H         1 UNK         0.0000 
     47 H47         4.6878   53.9337   20.2811 H         1 UNK         0.0000 
     48 H48         6.8860   54.6213   26.6404 H         1 UNK         0.0000 
     49 H49         6.1910   54.4771   28.9970 H         1 UNK         0.0000 
     50 H50         2.7829   54.0993   25.3699 H         1 UNK         0.0000 
     51 H51         1.9878   52.6963   29.6292 H         1 UNK         0.0000 
     52 H52         1.4557   54.3736   29.9617 H         1 UNK         0.0000 
     53 H53         5.7897   52.7479   17.8037 H         1 UNK         0.0000 
     54 H54         6.8485   51.5572   16.6981 H         1 UNK         0.0000 
     55 H55        10.2694   51.7282   17.2809 H         1 UNK         0.0000 
     56 H56        12.0017   50.8597   15.7848 H         1 UNK         0.0000 
     57 H57        11.4646   50.2706   13.4459 H         1 UNK         0.0000 
     58 H58         6.2365   51.8144   14.5689 H         1 UNK         0.0000 
     59 H59         5.7540   51.2160   12.2372 H         1 UNK         0.0000 
     60 H60         7.5379   50.3903   10.7588 H         1 UNK         0.0000 
     61 H61         9.8443   50.1232   11.6126 H         1 UNK         0.0000 
@<TRIPOS>BOND
     1    1    2 1    
     2    1   39 1    
     3    1   40 1    
     4    1   41 1    
     5    2    3 1    
     6    2   42 1    
     7    2   43 1    
     8    3    4 1    
     9    3    5 1    
    10    3    6 1    
    11    5   44 1    
    12    5   45 1    
    13    5   46 1    
    14    6    7 1    
    15    6    8 1    
    16    6   25 1    
    17    8    9 2    
    18    8   10 am   BACKBONE|DICT|INTERRES
    19   10   11 am   BACKBONE|DICT|INTERRES
    20   10   47 1    
    21   11   15 1    
    22   11   12 2    
    23   12   13 1    
    24   13   14 2    
    25   14   15 1    
    26   14   16 1    
    27   16   21 ar   
    28   16   17 ar   
    29   17   18 ar   
    30   17   48 1    
    31   18   19 ar   
    32   18   49 1    
    33   19   24 1    
    34   19   20 ar   
    35   20   21 ar   
    36   20   22 1    
    37   21   50 1    
    38   22   23 1    
    39   23   24 1    
    40   23   51 1    
    41   23   52 1    
    42   25   26 am   BACKBONE|DICT|INTERRES
    43   25   53 1    
    44   26   27 2    
    45   26   28 am   BACKBONE|DICT|INTERRES
    46   28   29 1    
    47   28   54 1    
    48   29   34 ar   
    49   29   30 ar   
    50   30   31 ar   
    51   30   55 1    
    52   31   32 ar   
    53   31   56 1    
    54   32   33 ar   
    55   32   57 1    
    56   33   38 ar   
    57   33   34 ar   
    58   34   35 ar   
    59   35   36 ar   
    60   35   58 1    
    61   36   37 ar   
    62   36   59 1    
    63   37   38 ar   
    64   37   60 1    
    65   38   61 1    
@<TRIPOS>SUBSTRUCTURE
     1 UNK         1 GROUP             0       ****    0 ROOT    
