@<TRIPOS>MOLECULE
ZINC39676808_131
69   72    1
SMALL
USER_CHARGES


@<TRIPOS>ATOM
      1 C1         -1.2209   47.7118   18.4010 C.3       1 UNK         0.0000 
      2 C2         -0.6891   48.7214   19.4009 C.ar      1 UNK         0.0000 
      3 C3         -1.3973   49.8963   19.6506 C.ar      1 UNK         0.0000 
      4 C4         -0.8995   50.8357   20.5507 C.ar      1 UNK         0.0000 
      5 C5          0.3159   50.6180   21.2163 C.ar      1 UNK         0.0000 
      6 C6          1.0317   49.4277   20.9646 C.ar      1 UNK         0.0000 
      7 C7          0.5227   48.4956   20.0549 C.ar      1 UNK         0.0000 
      8 C8          2.3471   49.1080   21.6635 C.3       1 UNK         0.0000 
      9 C9          0.8190   51.6606   22.1895 C.2       1 UNK         0.0000 
     10 O10         1.9226   52.1779   22.0028 O.2       1 UNK         0.0000 
     11 N11         0.0246   51.9860   23.2438 N.am      1 UNK         0.0000 
     12 C12         0.5353   52.8551   24.3116 C.3       1 UNK         0.0000 
     13 C13        -0.2340   52.3650   25.5683 C.3       1 UNK         0.0000 
     14 H14        -1.0838   53.0300   25.7196 H         1 UNK         0.0000 
     15 C15        -0.7588   50.9486   25.2287 C.3       1 UNK         0.0000 
     16 C16        -1.0651   51.1315   23.7272 C.3       1 UNK         0.0000 
     17 C17         0.3049   49.8318   25.4469 C.3       1 UNK         0.0000 
     18 C18        -0.1734   48.4608   24.9588 C.3       1 UNK         0.0000 
     19 N19        -1.4986   48.1364   25.6817 N.4       1 UNK         0.0000 
     20 C20        -2.5951   49.2156   25.5643 C.3       1 UNK         0.0000 
     21 C21        -1.9910   50.5381   26.0717 C.3       1 UNK         0.0000 
     22 C22         0.6233   52.4972   26.8614 C.2       1 UNK         0.0000 
     23 O23         0.2956   51.8857   27.8772 O.2       1 UNK         0.0000 
     24 N24         1.6587   53.3572   26.8533 N.am      1 UNK         0.0000 
     25 C25         2.4926   53.7132   28.0037 C.3       1 UNK         0.0000 
     26 H26         2.4908   52.8636   28.6927 H         1 UNK         0.0000 
     27 C27         1.8937   54.9299   28.7368 C.3       1 UNK         0.0000 
     28 C28         3.9713   53.9337   27.6610 C.ar      1 UNK         0.0000 
     29 C29         4.8991   53.9312   28.7059 C.ar      1 UNK         0.0000 
     30 C30         6.2561   54.0965   28.4520 C.ar      1 UNK         0.0000 
     31 C31         6.7032   54.2700   27.1466 C.ar      1 UNK         0.0000 
     32 C32         5.8078   54.2667   26.0784 C.ar      1 UNK         0.0000 
     33 C33         4.4374   54.0962   26.3448 C.ar      1 UNK         0.0000 
     34 O34         6.3528   54.4338   24.8208 O.3       1 UNK         0.0000 
     35 C35         5.5333   54.2331   23.6740 C.3       1 UNK         0.0000 
     36 H36        -1.6493   48.2227   17.5378 H         1 UNK         0.0000 
     37 H37        -0.4280   47.0655   18.0215 H         1 UNK         0.0000 
     38 H38        -1.9992   47.0976   18.8525 H         1 UNK         0.0000 
     39 H39        -2.3306   50.0865   19.1412 H         1 UNK         0.0000 
     40 H40        -1.4618   51.7421   20.7226 H         1 UNK         0.0000 
     41 H41         1.0753   47.5898   19.8500 H         1 UNK         0.0000 
     42 H42         2.7043   48.0985   21.4519 H         1 UNK         0.0000 
     43 H43         3.1094   49.8159   21.3405 H         1 UNK         0.0000 
     44 H44         2.2457   49.2046   22.7448 H         1 UNK         0.0000 
     45 H45         0.2811   53.9032   24.1433 H         1 UNK         0.0000 
     46 H46         1.5979   52.6354   24.4444 H         1 UNK         0.0000 
     47 H47        -1.2654   50.2121   23.1791 H         1 UNK         0.0000 
     48 H48        -1.9823   51.7214   23.6808 H         1 UNK         0.0000 
     49 H49         1.2045   50.0737   24.8817 H         1 UNK         0.0000 
     50 H50         0.6222   49.7583   26.4882 H         1 UNK         0.0000 
     51 H51        -0.3453   48.3926   23.8844 H         1 UNK         0.0000 
     52 H52         0.5377   47.6967   25.2653 H         1 UNK         0.0000 
     53 H53        -1.8494   47.2287   25.4169 H         1 UNK         0.0000 
     54 H54        -2.9236   49.2406   24.5245 H         1 UNK         0.0000 
     55 H55        -3.4157   48.8760   26.1990 H         1 UNK         0.0000 
     56 H56        -1.7534   50.4841   27.1366 H         1 UNK         0.0000 
     57 H57        -2.7631   51.3040   25.9889 H         1 UNK         0.0000 
     58 H58         1.8000   53.9157   26.0279 H         1 UNK         0.0000 
     59 H59         2.4482   55.1668   29.6452 H         1 UNK         0.0000 
     60 H60         1.9015   55.8181   28.1042 H         1 UNK         0.0000 
     61 H61         0.8596   54.7444   29.0308 H         1 UNK         0.0000 
     62 H62         4.5700   53.7966   29.7251 H         1 UNK         0.0000 
     63 H63         6.9639   54.0966   29.2698 H         1 UNK         0.0000 
     64 H64         7.7576   54.3965   26.9643 H         1 UNK         0.0000 
     65 H65         3.7340   54.0862   25.5293 H         1 UNK         0.0000 
     66 H66         6.1177   54.4302   22.7753 H         1 UNK         0.0000 
     67 H67         5.1790   53.2053   23.6159 H         1 UNK         0.0000 
     68 H68         4.6699   54.8964   23.6568 H         1 UNK         0.0000 
     69 H69        -1.2959   48.0815   26.6862 H         1 UNK         0.0000 
@<TRIPOS>BOND
     1    1    2 1    
     2    1   36 1    
     3    1   37 1    
     4    1   38 1    
     5    2    7 ar   
     6    2    3 ar   
     7    3    4 ar   
     8    3   39 1    
     9    4    5 ar   
    10    4   40 1    
    11    5    6 ar   
    12    5    9 1    
    13    6    7 ar   
    14    6    8 1    
    15    7   41 1    
    16    8   42 1    
    17    8   43 1    
    18    8   44 1    
    19    9   10 2    
    20    9   11 am   BACKBONE|DICT|INTERRES
    21   11   16 1    
    22   11   12 1    
    23   12   13 1    
    24   12   45 1    
    25   12   46 1    
    26   13   14 1    
    27   13   15 1    
    28   13   22 1    
    29   15   21 1    
    30   15   16 1    
    31   15   17 1    
    32   16   47 1    
    33   16   48 1    
    34   17   18 1    
    35   17   49 1    
    36   17   50 1    
    37   18   19 1    
    38   18   51 1    
    39   18   52 1    
    40   19   20 1    
    41   19   53 1    
    42   19   69 1    
    43   20   21 1    
    44   20   54 1    
    45   20   55 1    
    46   21   56 1    
    47   21   57 1    
    48   22   23 2    
    49   22   24 am   BACKBONE|DICT|INTERRES
    50   24   25 1    
    51   24   58 1    
    52   25   26 1    
    53   25   27 1    
    54   25   28 1    
    55   27   59 1    
    56   27   60 1    
    57   27   61 1    
    58   28   33 ar   
    59   28   29 ar   
    60   29   30 ar   
    61   29   62 1    
    62   30   31 ar   
    63   30   63 1    
    64   31   32 ar   
    65   31   64 1    
    66   32   33 ar   
    67   32   34 1    
    68   33   65 1    
    69   34   35 1    
    70   35   66 1    
    71   35   67 1    
    72   35   68 1    
@<TRIPOS>SUBSTRUCTURE
     1 UNK         1 GROUP             0       ****    0 ROOT    
