@<TRIPOS>MOLECULE
ZINC58326913_2572
51   53    1
SMALL
USER_CHARGES


@<TRIPOS>ATOM
      1 C1          2.8536   55.2213   28.4995 C.3       1 UNK         0.0000 
      2 C2          4.1898   54.6337   28.0003 C.3       1 UNK         0.0000 
      3 C3          5.1086   54.3376   29.1916 C.3       1 UNK         0.0000 
      4 C4          4.0074   53.3846   27.1139 C.3       1 UNK         0.0000 
      5 N5          3.4653   53.6970   25.7906 N.pl3     1 UNK         0.0000 
      6 C6          2.1346   53.6203   25.4478 C.ar      1 UNK         0.0000 
      7 C7          1.9789   53.8513   24.0978 C.ar      1 UNK         0.0000 
      8 C8          3.2851   54.0769   23.5652 C.ar      1 UNK         0.0000 
      9 C9          4.1981   54.0533   24.6639 C.ar      1 UNK         0.0000 
     10 C10         5.5725   54.2797   24.4885 C.ar      1 UNK         0.0000 
     11 C11         6.0205   54.4959   23.1835 C.ar      1 UNK         0.0000 
     12 C12         5.1473   54.4964   22.0902 C.ar      1 UNK         0.0000 
     13 C13         3.7804   54.2842   22.2713 C.ar      1 UNK         0.0000 
     14 N14         5.5947   54.6792   20.7763 N.am      1 UNK         0.0000 
     15 C15         6.4601   55.6206   20.3568 C.2       1 UNK         0.0000 
     16 O16         6.9561   56.4960   21.0658 O.2       1 UNK         0.0000 
     17 N17         6.6772   55.5268   19.0369 N.am      1 UNK         0.0000 
     18 C18         7.1827   56.6122   18.1934 C.3       1 UNK         0.0000 
     19 C19         6.2573   57.8564   18.0583 C.3       1 UNK         0.0000 
     20 H20         5.9405   58.1773   19.0500 H         1 UNK         0.0000 
     21 C21         4.9824   57.6318   17.2214 C.ar      1 UNK         0.0000 
     22 C22         4.6424   58.4968   16.1684 C.ar      1 UNK         0.0000 
     23 C23         3.4708   58.3147   15.4367 C.ar      1 UNK         0.0000 
     24 C24         2.6172   57.2564   15.7377 C.ar      1 UNK         0.0000 
     25 C25         2.9340   56.3865   16.7795 C.ar      1 UNK         0.0000 
     26 C26         4.1010   56.5789   17.5198 C.ar      1 UNK         0.0000 
     27 F27         2.1063   55.3627   17.0868 F         1 UNK         0.0000 
     28 F28         1.4805   57.0841   15.0252 F         1 UNK         0.0000 
     29 O29         7.0921   58.8967   17.5806 O.3       1 UNK         0.0000 
     30 H30         2.3057   54.4987   29.1047 H         1 UNK         0.0000 
     31 H31         2.2019   55.5165   27.6821 H         1 UNK         0.0000 
     32 H32         3.0141   56.1080   29.1137 H         1 UNK         0.0000 
     33 H33         4.7032   55.3716   27.3893 H         1 UNK         0.0000 
     34 H34         4.6843   53.5817   29.8491 H         1 UNK         0.0000 
     35 H35         6.0821   53.9739   28.8634 H         1 UNK         0.0000 
     36 H36         5.2941   55.2360   29.7801 H         1 UNK         0.0000 
     37 H37         4.9608   52.8785   26.9585 H         1 UNK         0.0000 
     38 H38         3.3599   52.6513   27.5966 H         1 UNK         0.0000 
     39 H39         1.4027   53.3633   26.2022 H         1 UNK         0.0000 
     40 H40         1.0437   53.8170   23.5603 H         1 UNK         0.0000 
     41 H41         6.2672   54.2516   25.3146 H         1 UNK         0.0000 
     42 H42         7.0781   54.6559   23.0226 H         1 UNK         0.0000 
     43 H43         3.1054   54.2911   21.4267 H         1 UNK         0.0000 
     44 H44         5.1130   54.1403   20.0737 H         1 UNK         0.0000 
     45 H45         6.4553   54.6609   18.5679 H         1 UNK         0.0000 
     46 H46         8.1522   56.9081   18.6034 H         1 UNK         0.0000 
     47 H47         7.4015   56.2147   17.2018 H         1 UNK         0.0000 
     48 H48         5.2676   59.3423   15.9238 H         1 UNK         0.0000 
     49 H49         3.2209   59.0038   14.6425 H         1 UNK         0.0000 
     50 H50         4.2887   55.9080   18.3410 H         1 UNK         0.0000 
     51 H51         6.6543   59.7643   17.6818 H         1 UNK         0.0000 
@<TRIPOS>BOND
     1    1    2 1    
     2    1   30 1    
     3    1   31 1    
     4    1   32 1    
     5    2    3 1    
     6    2    4 1    
     7    2   33 1    
     8    3   34 1    
     9    3   35 1    
    10    3   36 1    
    11    4    5 1    
    12    4   37 1    
    13    4   38 1    
    14    5    9 ar   
    15    5    6 ar   
    16    6    7 ar   
    17    6   39 1    
    18    7    8 ar   
    19    7   40 1    
    20    8   13 ar   
    21    8    9 ar   
    22    9   10 ar   
    23   10   11 ar   
    24   10   41 1    
    25   11   12 ar   
    26   11   42 1    
    27   12   13 ar   
    28   12   14 1    
    29   13   43 1    
    30   14   15 am   BACKBONE|DICT|INTERRES
    31   14   44 1    
    32   15   16 2    
    33   15   17 am   BACKBONE|DICT|INTERRES
    34   17   18 1    
    35   17   45 1    
    36   18   19 1    
    37   18   46 1    
    38   18   47 1    
    39   19   20 1    
    40   19   21 1    
    41   19   29 1    
    42   21   26 ar   
    43   21   22 ar   
    44   22   23 ar   
    45   22   48 1    
    46   23   24 ar   
    47   23   49 1    
    48   24   25 ar   
    49   24   28 1    
    50   25   26 ar   
    51   25   27 1    
    52   26   50 1    
    53   29   51 1    
@<TRIPOS>SUBSTRUCTURE
     1 UNK         1 GROUP             0       ****    0 ROOT    
