@<TRIPOS>MOLECULE
ZINC08974444_3798
37   40    1
SMALL
USER_CHARGES


@<TRIPOS>ATOM
      1 C1          1.6129   53.3117   29.3556 C.ar      1 UNK         0.0000 
      2 C2          2.5461   52.7908   30.2440 C.ar      1 UNK         0.0000 
      3 C3          3.9045   52.8728   29.9456 C.ar      1 UNK         0.0000 
      4 C4          4.3572   53.4743   28.7638 C.ar      1 UNK         0.0000 
      5 C5          3.4069   53.9840   27.8583 C.ar      1 UNK         0.0000 
      6 C6          2.0444   53.9000   28.1703 C.ar      1 UNK         0.0000 
      7 C7          3.8724   54.5908   26.5404 C.3       1 UNK         0.0000 
      8 C8          5.2809   54.0895   26.1263 C.3       1 UNK         0.0000 
      9 H9          5.2748   53.0212   25.9110 H         1 UNK         0.0000 
     10 N10         6.1961   54.3300   27.2522 N.3       1 UNK         0.0000 
     11 C11         5.8515   53.5159   28.4200 C.3       1 UNK         0.0000 
     12 C12         5.8343   54.8215   24.8623 C.2       1 UNK         0.0000 
     13 O13         6.2883   55.9662   24.9283 O.2       1 UNK         0.0000 
     14 N14         5.9377   54.0967   23.6830 N.am      1 UNK         0.0000 
     15 C15         4.9140   53.7511   22.9995 C.2       1 UNK         0.0000 
     16 N16         4.9528   52.9997   21.8453 N.pl3     1 UNK         0.0000 
     17 H17         5.8422   52.7792   21.4288 H         1 UNK         0.0000 
     18 C18         3.7533   52.5037   21.3385 C.ar      1 UNK         0.0000 
     19 C19         3.5759   51.6340   20.2660 C.ar      1 UNK         0.0000 
     20 C20         2.2958   51.1856   19.9363 C.ar      1 UNK         0.0000 
     21 C21         1.1940   51.6113   20.6819 C.ar      1 UNK         0.0000 
     22 C22         1.3712   52.4989   21.7458 C.ar      1 UNK         0.0000 
     23 C23         2.6560   52.9486   22.0529 C.ar      1 UNK         0.0000 
     24 S24         3.1514   54.0973   23.2693 S.3       1 UNK         0.0000 
     25 H25         0.5570   53.2493   29.5785 H         1 UNK         0.0000 
     26 H26         2.2149   52.3235   31.1603 H         1 UNK         0.0000 
     27 H27         4.6163   52.4490   30.6369 H         1 UNK         0.0000 
     28 H28         1.3095   54.2882   27.4806 H         1 UNK         0.0000 
     29 H29         3.1176   54.3241   25.8142 H         1 UNK         0.0000 
     30 H30         3.8565   55.6751   26.5979 H         1 UNK         0.0000 
     31 H31         6.2360   55.3115   27.4974 H         1 UNK         0.0000 
     32 H32         6.4146   53.9035   29.2726 H         1 UNK         0.0000 
     33 H33         6.1965   52.4973   28.2423 H         1 UNK         0.0000 
     34 H34         4.4138   51.2971   19.6817 H         1 UNK         0.0000 
     35 H35         2.1655   50.5088   19.1033 H         1 UNK         0.0000 
     36 H36         0.2044   51.2620   20.4271 H         1 UNK         0.0000 
     37 H37         0.5147   52.8416   22.3072 H         1 UNK         0.0000 
@<TRIPOS>BOND
     1    1    6 ar   
     2    1    2 ar   
     3    1   25 1    
     4    2    3 ar   
     5    2   26 1    
     6    3    4 ar   
     7    3   27 1    
     8    4   11 1    
     9    4    5 ar   
    10    5    6 ar   
    11    5    7 1    
    12    6   28 1    
    13    7    8 1    
    14    7   29 1    
    15    7   30 1    
    16    8    9 1    
    17    8   10 1    
    18    8   12 1    
    19   10   11 1    
    20   10   31 1    
    21   11   32 1    
    22   11   33 1    
    23   12   13 2    
    24   12   14 am   BACKBONE|DICT|INTERRES
    25   14   15 2    BACKBONE|DICT|INTERRES
    26   15   24 1    
    27   15   16 1    
    28   16   17 1    
    29   16   18 1    
    30   18   23 ar   
    31   18   19 ar   
    32   19   20 ar   
    33   19   34 1    
    34   20   21 ar   
    35   20   35 1    
    36   21   22 ar   
    37   21   36 1    
    38   22   23 ar   
    39   22   37 1    
    40   23   24 1    
@<TRIPOS>SUBSTRUCTURE
     1 UNK         1 GROUP             0       ****    0 ROOT    
