@<TRIPOS>MOLECULE
ZINC62411912_5872
61   64    1
SMALL
USER_CHARGES


@<TRIPOS>ATOM
      1 C1         -2.7702   50.0014   16.0634 C.3       1 UNK         0.0000 
      2 C2         -2.3660   50.2449   17.5275 C.3       1 UNK         0.0000 
      3 C3         -1.5508   51.5404   17.7716 C.3       1 UNK         0.0000 
      4 C4         -2.3102   52.8331   17.3997 C.3       1 UNK         0.0000 
      5 N5         -0.9908   51.6042   19.1269 N.am      1 UNK         0.0000 
      6 C6         -1.6658   51.6956   20.2901 C.2       1 UNK         0.0000 
      7 O7         -2.8956   51.6966   20.3429 O.2       1 UNK         0.0000 
      8 C8         -0.8387   51.8386   21.5508 C.ar      1 UNK         0.0000 
      9 C9         -1.4409   51.7183   22.8105 C.ar      1 UNK         0.0000 
     10 C10        -0.7044   51.9179   23.9783 C.ar      1 UNK         0.0000 
     11 C11         0.6490   52.2630   23.9235 C.ar      1 UNK         0.0000 
     12 C12         1.2799   52.3529   22.6580 C.ar      1 UNK         0.0000 
     13 C13         0.5300   52.1379   21.4998 C.ar      1 UNK         0.0000 
     14 C14         2.7576   52.6514   22.4446 C.3       1 UNK         0.0000 
     15 N15         1.2778   52.4670   25.1723 N.am      1 UNK         0.0000 
     16 C16         2.0529   53.5180   25.5238 C.2       1 UNK         0.0000 
     17 O17         2.3043   54.4189   24.7167 O.2       1 UNK         0.0000 
     18 N18         2.4447   53.5879   26.8384 N.am      1 UNK         0.0000 
     19 C19         2.4331   52.4419   27.7721 C.3       1 UNK         0.0000 
     20 C20         3.7279   52.2439   28.6295 C.3       1 UNK         0.0000 
     21 C21         5.0960   52.4968   27.9093 C.3       1 UNK         0.0000 
     22 C22         5.5335   53.9567   27.7528 C.3       1 UNK         0.0000 
     23 C23         5.4799   54.6610   29.0938 C.3       1 UNK         0.0000 
     24 C24         4.0748   54.4749   29.7219 C.3       1 UNK         0.0000 
     25 C25         3.7074   53.0085   29.9511 C.3       1 UNK         0.0000 
     26 C26         3.0247   55.1596   28.8204 C.3       1 UNK         0.0000 
     27 C27         3.1711   54.7847   27.3099 C.3       1 UNK         0.0000 
     28 C28         4.6352   54.7206   26.7895 C.3       1 UNK         0.0000 
     29 H29        -3.4756   50.7522   15.7074 H         1 UNK         0.0000 
     30 H30        -1.9018   50.0138   15.4035 H         1 UNK         0.0000 
     31 H31        -3.2524   49.0297   15.9530 H         1 UNK         0.0000 
     32 H32        -3.2598   50.2387   18.1526 H         1 UNK         0.0000 
     33 H33        -1.7725   49.3905   17.8571 H         1 UNK         0.0000 
     34 H34        -0.6786   51.4908   17.1160 H         1 UNK         0.0000 
     35 H35        -1.6716   53.7123   17.4936 H         1 UNK         0.0000 
     36 H36        -2.6597   52.8045   16.3682 H         1 UNK         0.0000 
     37 H37        -3.1973   52.9738   18.0175 H         1 UNK         0.0000 
     38 H38         0.0142   51.5418   19.1826 H         1 UNK         0.0000 
     39 H39        -2.4921   51.4803   22.8968 H         1 UNK         0.0000 
     40 H40        -1.2057   51.8254   24.9315 H         1 UNK         0.0000 
     41 H41         1.0349   52.2458   20.5499 H         1 UNK         0.0000 
     42 H42         3.1752   51.9950   21.6800 H         1 UNK         0.0000 
     43 H43         2.8891   53.6801   22.1065 H         1 UNK         0.0000 
     44 H44         3.3506   52.4967   23.3357 H         1 UNK         0.0000 
     45 H45         0.9998   51.8367   25.9082 H         1 UNK         0.0000 
     46 H46         1.6268   52.6321   28.4813 H         1 UNK         0.0000 
     47 H47         2.1803   51.5052   27.2817 H         1 UNK         0.0000 
     48 H48         3.6829   51.2168   28.9543 H         1 UNK         0.0000 
     49 H49         5.8850   52.0185   28.4817 H         1 UNK         0.0000 
     50 H50         5.1044   52.0967   26.9064 H         1 UNK         0.0000 
     51 H51         6.5553   53.9852   27.3686 H         1 UNK         0.0000 
     52 H52         6.3449   54.4133   29.6817 H         1 UNK         0.0000 
     53 H53         5.6697   55.6967   28.9270 H         1 UNK         0.0000 
     54 H54         4.0642   54.8967   30.7045 H         1 UNK         0.0000 
     55 H55         2.7328   52.9211   30.4346 H         1 UNK         0.0000 
     56 H56         4.4116   52.5492   30.6453 H         1 UNK         0.0000 
     57 H57         2.0136   54.9402   29.1670 H         1 UNK         0.0000 
     58 H58         3.1044   56.2392   28.9356 H         1 UNK         0.0000 
     59 H59         2.7044   55.6484   26.8817 H         1 UNK         0.0000 
     60 H60         5.0552   55.6967   26.6376 H         1 UNK         0.0000 
     61 H61         4.6985   54.2679   25.7988 H         1 UNK         0.0000 
@<TRIPOS>BOND
     1    1    2 1    
     2    1   29 1    
     3    1   30 1    
     4    1   31 1    
     5    2    3 1    
     6    2   32 1    
     7    2   33 1    
     8    3    4 1    
     9    3    5 1    
    10    3   34 1    
    11    4   35 1    
    12    4   36 1    
    13    4   37 1    
    14    5    6 am   BACKBONE|DICT|INTERRES
    15    5   38 1    
    16    6    7 2    
    17    6    8 1    
    18    8   13 ar   
    19    8    9 ar   
    20    9   10 ar   
    21    9   39 1    
    22   10   11 ar   
    23   10   40 1    
    24   11   12 ar   
    25   11   15 1    
    26   12   13 ar   
    27   12   14 1    
    28   13   41 1    
    29   14   42 1    
    30   14   43 1    
    31   14   44 1    
    32   15   16 am   BACKBONE|DICT|INTERRES
    33   15   45 1    
    34   16   17 2    
    35   16   18 am   BACKBONE|DICT|INTERRES
    36   18   27 1    
    37   18   19 1    
    38   19   20 1    
    39   19   46 1    
    40   19   47 1    
    41   20   25 1    
    42   20   21 1    
    43   20   48 1    
    44   21   22 1    
    45   21   49 1    
    46   21   50 1    
    47   22   28 1    
    48   22   23 1    
    49   22   51 1    
    50   23   24 1    
    51   23   52 1    
    52   23   53 1    
    53   24   25 1    
    54   24   26 1    
    55   24   54 1    
    56   25   55 1    
    57   25   56 1    
    58   26   27 1    
    59   26   57 1    
    60   26   58 1    
    61   27   28 1    
    62   27   59 1    
    63   28   60 1    
    64   28   61 1    
@<TRIPOS>SUBSTRUCTURE
     1 UNK         1 GROUP             0       ****    0 ROOT    
