ZINC01217095_5579
                    3D
 Schrodinger Suite 2024-2.
 62 65  0  0  1  0            999 V2000
    5.9077   55.2064   21.5700 C   0  0  0  0  0  0
    4.8244   54.1092   21.6120 C   0  0  0  0  0  0
    3.8169   54.2212   22.6253 O   0  0  0  0  0  0
    4.0946   53.9796   23.9319 C   0  0  0  0  0  0
    5.2322   54.0962   24.3905 O   0  0  0  0  0  0
    2.9290   53.4990   24.7343 C   0  0  0  0  0  0
    3.0134   53.3004   26.0880 C   0  0  0  0  0  0
    1.9891   52.7916   26.8344 N   0  0  0  0  0  0
    0.8663   52.4982   26.3060 C   0  0  0  0  0  0
    0.5825   52.6515   24.9860 N   0  0  0  0  0  0
   -0.7183   52.4855   24.6266 C   0  0  0  0  0  0
   -1.1519   52.6821   23.4855 O   0  0  0  0  0  0
   -1.5221   52.0659   25.7608 C   0  0  0  0  0  0
   -2.8621   51.9027   25.6349 C   0  0  0  0  0  0
   -3.8275   51.4731   26.6698 C   0  0  0  0  0  0
   -5.1139   52.0159   26.6560 C   0  0  0  0  0  0
   -6.0565   51.6411   27.6153 C   0  0  0  0  0  0
   -5.7370   50.6972   28.6064 C   0  0  0  0  0  0
   -4.4464   50.1421   28.6141 C   0  0  0  0  0  0
   -3.5061   50.5373   27.6593 C   0  0  0  0  0  0
   -4.0957   49.2010   29.5545 O   0  0  0  0  0  0
   -6.6248   50.2845   29.5848 O   0  0  0  0  0  0
   -7.9584   50.7821   29.5801 C   0  0  0  0  0  0
   -0.5173   51.8967   27.2087 S   0  0  0  0  0  0
    1.6253   53.0690   23.9822 C   0  0  2  0  0  0
    1.2187   53.9635   23.5031 H   0  0  0  0  0  0
    1.7824   52.0036   22.8799 C   0  0  0  0  0  0
    1.8731   50.6401   23.1767 C   0  0  0  0  0  0
    1.9129   49.6969   22.1542 C   0  0  0  0  0  0
    1.8693   50.0905   20.8087 C   0  0  0  0  0  0
    1.7838   51.4604   20.5240 C   0  0  0  0  0  0
    1.7292   52.4020   21.5443 C   0  0  0  0  0  0
    1.9040   49.1387   19.7567 N   0  0  0  0  0  0
    2.1825   49.5748   18.3911 C   0  0  0  0  0  0
    1.8275   47.7038   20.0186 C   0  0  0  0  0  0
    4.1722   53.6779   27.0126 C   0  0  0  0  0  0
    6.6685   54.9500   20.8318 H   0  0  0  0  0  0
    5.5046   56.1726   21.2761 H   0  0  0  0  0  0
    6.4172   55.3246   22.5250 H   0  0  0  0  0  0
    5.3050   53.1337   21.7092 H   0  0  0  0  0  0
    4.3136   54.0867   20.6506 H   0  0  0  0  0  0
   -3.3092   52.0759   24.6654 H   0  0  0  0  0  0
   -5.3939   52.7384   25.9028 H   0  0  0  0  0  0
   -7.0342   52.0944   27.5686 H   0  0  0  0  0  0
   -2.5223   50.0967   27.6823 H   0  0  0  0  0  0
   -3.1695   48.8999   29.5412 H   0  0  0  0  0  0
   -8.5131   50.3250   30.3965 H   0  0  0  0  0  0
   -8.4731   50.5344   28.6520 H   0  0  0  0  0  0
   -7.9814   51.8621   29.7301 H   0  0  0  0  0  0
    1.8947   50.3011   24.2003 H   0  0  0  0  0  0
    1.9873   48.6566   22.4275 H   0  0  0  0  0  0
    1.7410   51.8212   19.5093 H   0  0  0  0  0  0
    1.6410   53.4449   21.2939 H   0  0  0  0  0  0
    3.1034   50.1610   18.3808 H   0  0  0  0  0  0
    2.3029   48.7378   17.7043 H   0  0  0  0  0  0
    1.3819   50.2084   18.0110 H   0  0  0  0  0  0
    2.6283   47.3970   20.6893 H   0  0  0  0  0  0
    0.8694   47.4709   20.4789 H   0  0  0  0  0  0
    1.9058   47.1141   19.1043 H   0  0  0  0  0  0
    4.6241   54.6283   26.7247 H   0  0  0  0  0  0
    3.8640   53.7973   28.0554 H   0  0  0  0  0  0
    4.9388   52.9016   26.9723 H   0  0  0  0  0  0
  1  2  1  0  0  0
  1 37  1  0  0  0
  1 38  1  0  0  0
  1 39  1  0  0  0
  2  3  1  0  0  0
  2 40  1  0  0  0
  2 41  1  0  0  0
  3  4  1  0  0  0
  4  5  2  0  0  0
  4  6  1  0  0  0
  6 25  1  0  0  0
  6  7  2  0  0  0
  7  8  1  0  0  0
  7 36  1  0  0  0
  8  9  2  0  0  0
  9 24  1  0  0  0
  9 10  1  0  0  0
 10 11  1  0  0  0
 10 25  1  0  0  0
 11 12  2  0  0  0
 11 13  1  0  0  0
 13 14  2  0  0  0
 13 24  1  0  0  0
 14 15  1  0  0  0
 14 42  1  0  0  0
 15 20  2  0  0  0
 15 16  1  0  0  0
 16 17  2  0  0  0
 16 43  1  0  0  0
 17 18  1  0  0  0
 17 44  1  0  0  0
 18 19  2  0  0  0
 18 22  1  0  0  0
 19 20  1  0  0  0
 19 21  1  0  0  0
 20 45  1  0  0  0
 21 46  1  0  0  0
 22 23  1  0  0  0
 23 47  1  0  0  0
 23 48  1  0  0  0
 23 49  1  0  0  0
 25 26  1  0  0  0
 25 27  1  0  0  0
 27 32  2  0  0  0
 27 28  1  0  0  0
 28 29  2  0  0  0
 28 50  1  0  0  0
 29 30  1  0  0  0
 29 51  1  0  0  0
 30 31  2  0  0  0
 30 33  1  0  0  0
 31 32  1  0  0  0
 31 52  1  0  0  0
 32 53  1  0  0  0
 33 34  1  0  0  0
 33 35  1  0  0  0
 34 54  1  0  0  0
 34 55  1  0  0  0
 34 56  1  0  0  0
 35 57  1  0  0  0
 35 58  1  0  0  0
 35 59  1  0  0  0
 36 60  1  0  0  0
 36 61  1  0  0  0
 36 62  1  0  0  0
M  END
> <i_i_glide_confnum>
2

> <i_i_glide_lignum>
5580

> <i_i_glide_posenum>
7

> <i_i_glide_rotatable_bonds>
8

> <i_m_Source_File_Index>
518

> <b_m_subgroup_collapsed>
0

> <r_i_docking_score>
-4.51662

> <r_i_glide_ecoul>
-7.53465

> <r_i_glide_eff_state_penalty>
0

> <r_i_glide_einternal>
7.71638

> <r_i_glide_emodel>
-52.3863

> <r_i_glide_energy>
-43.5461

> <r_i_glide_erotb>
0.3345

> <r_i_glide_esite>
-0.0395381

> <r_i_glide_evdw>
-36.0115

> <r_i_glide_gscore>
-4.51662

> <r_i_glide_hbond>
0

> <r_i_glide_ligand_efficiency>
-0.129046

> <r_i_glide_ligand_efficiency_ln>
-0.991499

> <r_i_glide_ligand_efficiency_sa>
-0.422119

> <r_i_glide_lipo>
-1.47339

> <r_i_glide_metal>
0

> <r_i_glide_rewards>
-0.407429

> <s_i_glide_gridfile>
wee1_glide-grid

> <s_m_Source_File>
wee1_decoys_glide_SP.sdf

> <s_m_Source_Path>
/Users/zhangxujun/Desktop

> <s_m_entry_id>
793

> <s_m_entry_name>
wee1_decoys_glide_SP.518

> <s_m_subgroup_title>
wee1_decoys_glide_SP

> <s_m_subgroupid>
wee1_decoys_glide_SP


$$$$
