ZINC39977440_1205
                    3D
 Schrodinger Suite 2024-2.
 44 47  0  0  1  0            999 V2000
    0.1714   53.0204   30.8406 C   0  0  0  0  0  0
    1.0886   53.9848   30.2308 C   0  0  0  0  0  0
    1.3526   53.9244   28.9027 C   0  0  0  0  0  0
    0.7162   52.9633   28.0253 C   0  0  0  0  0  0
    0.9560   52.8965   26.7628 N   0  0  0  0  0  0
    0.2486   52.0609   25.8869 C   0  0  0  0  0  0
    0.3524   52.0666   24.6208 N   0  0  0  0  0  0
    1.5689   53.0751   23.8540 S   0  0  0  0  0  0
    1.1044   54.3403   23.2816 O   0  0  0  0  0  0
    2.9124   53.1110   24.4379 O   0  0  0  0  0  0
    1.7432   51.9651   22.4412 C   0  0  0  0  0  0
    1.2589   52.3273   21.1809 C   0  0  0  0  0  0
    1.3267   51.4278   20.1192 C   0  0  0  0  0  0
    1.8638   50.1587   20.3218 C   0  0  0  0  0  0
    2.3515   49.7912   21.5720 C   0  0  0  0  0  0
    2.3041   50.6976   22.6258 C   0  0  0  0  0  0
    1.9125   48.9058   18.8910 Br  0  0  0  0  0  0
   -0.8106   51.0773   26.4860 C   0  0  2  0  0  0
   -1.7786   51.4059   26.1027 H   0  0  0  0  0  0
   -0.9843   51.2145   27.9693 N   0  3  0  0  0  0
   -0.2972   52.0544   28.7231 C   0  0  0  0  0  0
   -0.4952   52.0967   30.1012 C   0  0  0  0  0  0
   -0.6194   49.6768   26.0817 N   0  0  0  0  0  0
   -1.2416   49.2590   24.8943 C   0  0  0  0  0  0
   -0.4329   48.9505   23.7983 C   0  0  0  0  0  0
   -0.9979   48.5360   22.5927 C   0  0  0  0  0  0
   -2.3805   48.4007   22.4836 C   0  0  0  0  0  0
   -3.1953   48.6716   23.5829 C   0  0  0  0  0  0
   -2.6350   49.0935   24.7907 C   0  0  0  0  0  0
   -3.6959   49.3944   26.1266 Cl  0  0  0  0  0  0
    0.0144   53.0322   31.9129 H   0  0  0  0  0  0
    1.5208   54.7647   30.8386 H   0  0  0  0  0  0
    2.0288   54.6548   28.4804 H   0  0  0  0  0  0
    0.8157   53.2962   21.0183 H   0  0  0  0  0  0
    0.9539   51.7091   19.1451 H   0  0  0  0  0  0
    2.7650   48.8047   21.7248 H   0  0  0  0  0  0
    2.6647   50.3927   23.5975 H   0  0  0  0  0  0
   -1.1656   51.3922   30.5827 H   0  0  0  0  0  0
   -0.9079   49.0641   26.8454 H   0  0  0  0  0  0
    0.6399   49.0282   23.8884 H   0  0  0  0  0  0
   -0.3643   48.3170   21.7455 H   0  0  0  0  0  0
   -2.8199   48.0787   21.5506 H   0  0  0  0  0  0
   -4.2659   48.5517   23.4998 H   0  0  0  0  0  0
   -1.6365   50.5740   28.4224 H   0  0  0  0  0  0
  1 22  2  0  0  0
  1  2  1  0  0  0
  1 31  1  0  0  0
  2  3  2  0  0  0
  2 32  1  0  0  0
  3  4  1  0  0  0
  3 33  1  0  0  0
  4 21  1  0  0  0
  4  5  2  0  0  0
  5  6  1  0  0  0
  6  7  2  0  0  0
  6 18  1  0  0  0
  7  8  1  0  0  0
  8  9  2  0  0  0
  8 10  2  0  0  0
  8 11  1  0  0  0
 11 16  2  0  0  0
 11 12  1  0  0  0
 12 13  2  0  0  0
 12 34  1  0  0  0
 13 14  1  0  0  0
 13 35  1  0  0  0
 14 15  2  0  0  0
 14 17  1  0  0  0
 15 16  1  0  0  0
 15 36  1  0  0  0
 16 37  1  0  0  0
 18 19  1  0  0  0
 18 20  1  0  0  0
 18 23  1  0  0  0
 20 21  2  0  0  0
 20 44  1  0  0  0
 21 22  1  0  0  0
 22 38  1  0  0  0
 23 24  1  0  0  0
 23 39  1  0  0  0
 24 29  2  0  0  0
 24 25  1  0  0  0
 25 26  2  0  0  0
 25 40  1  0  0  0
 26 27  1  0  0  0
 26 41  1  0  0  0
 27 28  2  0  0  0
 27 42  1  0  0  0
 28 29  1  0  0  0
 28 43  1  0  0  0
 29 30  1  0  0  0
M  CHG  1  20   1
M  END
> <i_i_glide_confnum>
19

> <i_i_glide_lignum>
1206

> <i_i_glide_posenum>
376

> <i_i_glide_rotatable_bonds>
4

> <i_m_Source_File_Index>
196

> <b_m_subgroup_collapsed>
0

> <r_i_docking_score>
-3.39947

> <r_i_glide_ecoul>
-4.03193

> <r_i_glide_eff_state_penalty>
0

> <r_i_glide_einternal>
6.51751

> <r_i_glide_emodel>
-43.6776

> <r_i_glide_energy>
-37.7741

> <r_i_glide_erotb>
0.253497

> <r_i_glide_esite>
-0.253373

> <r_i_glide_evdw>
-33.7421

> <r_i_glide_gscore>
-3.39947

> <r_i_glide_hbond>
-0.219786

> <r_i_glide_ligand_efficiency>
-0.117223

> <r_i_glide_ligand_efficiency_ln>
-0.778392

> <r_i_glide_ligand_efficiency_sa>
-0.360146

> <r_i_glide_lipo>
-0.856489

> <r_i_glide_metal>
0

> <r_i_glide_rewards>
-0.0314188

> <s_i_glide_gridfile>
wee1_glide-grid

> <s_m_Source_File>
wee1_decoys_glide_SP.sdf

> <s_m_Source_Path>
/Users/zhangxujun/Desktop

> <s_m_entry_id>
471

> <s_m_entry_name>
wee1_decoys_glide_SP.196

> <s_m_subgroup_title>
wee1_decoys_glide_SP

> <s_m_subgroupid>
wee1_decoys_glide_SP


$$$$
