ZINC39652722_4897
                    3D
 Schrodinger Suite 2024-2.
 75 78  0  0  1  0            999 V2000
    3.0500   51.5576   20.7504 C   0  0  0  0  0  0
    2.3463   52.7609   21.4071 C   0  0  0  0  0  0
    2.5081   52.8239   22.9575 C   0  0  1  0  0  0
    2.7045   51.8077   23.2789 H   0  0  0  0  0  0
    3.7182   53.6803   23.4615 C   0  0  0  0  0  0
    3.7987   54.0962   24.8033 C   0  0  0  0  0  0
    4.9488   54.7061   25.2977 C   0  0  0  0  0  0
    6.0430   54.8969   24.4617 C   0  0  0  0  0  0
    5.9889   54.4957   23.1314 C   0  0  0  0  0  0
    4.8363   53.8895   22.6366 C   0  0  0  0  0  0
    1.1658   53.1715   23.6479 C   0  0  0  0  0  0
    0.8559   54.3578   23.6820 O   0  0  0  0  0  0
    0.3735   52.2091   24.1995 N   0  0  0  0  0  0
    0.5836   50.7547   24.1576 C   0  0  0  0  0  0
   -0.4640   50.1917   25.1545 C   0  0  1  0  0  0
   -0.0012   50.1129   26.1409 H   0  0  0  0  0  0
   -1.6115   51.2453   25.1603 C   0  0  0  0  0  0
   -0.8295   52.5610   24.9510 C   0  0  0  0  0  0
   -2.6680   51.0358   24.0241 C   0  0  0  0  0  0
   -3.7402   52.1448   23.9865 C   0  0  0  0  0  0
   -4.4263   52.2226   25.3686 N   0  3  0  0  0  0
   -3.4449   52.3645   26.5527 C   0  0  0  0  0  0
   -2.4235   51.2136   26.4772 C   0  0  0  0  0  0
   -0.8971   48.7640   24.7154 C   0  0  0  0  0  0
   -0.8111   48.4026   23.5396 O   0  0  0  0  0  0
   -1.3624   47.9519   25.6817 N   0  0  0  0  0  0
   -1.8675   46.5949   25.4622 C   0  0  0  0  0  0
   -3.3683   46.5296   25.1056 C   0  0  0  0  0  0
   -4.3060   46.4115   26.3107 C   0  0  0  0  0  0
   -4.4223   47.5007   27.1807 C   0  0  0  0  0  0
   -5.3023   47.4684   28.2588 C   0  0  0  0  0  0
   -6.0925   46.3437   28.4700 C   0  0  0  0  0  0
   -5.9778   45.2452   27.6204 C   0  0  0  0  0  0
   -5.0699   45.2506   26.5429 C   0  0  0  0  0  0
   -4.8962   44.1762   25.6821 O   0  0  0  0  0  0
   -5.6368   42.9679   25.8683 C   0  0  0  0  0  0
   -5.1191   42.1367   27.0533 C   0  0  0  0  0  0
    2.9480   51.5892   19.6651 H   0  0  0  0  0  0
    4.1160   51.5330   20.9745 H   0  0  0  0  0  0
    2.6227   50.6136   21.0897 H   0  0  0  0  0  0
    1.2945   52.7149   21.1168 H   0  0  0  0  0  0
    2.7049   53.6892   20.9590 H   0  0  0  0  0  0
    2.9807   53.9208   25.4856 H   0  0  0  0  0  0
    4.9964   55.0156   26.3303 H   0  0  0  0  0  0
    6.9405   55.3593   24.8437 H   0  0  0  0  0  0
    6.8443   54.6445   22.4882 H   0  0  0  0  0  0
    4.8448   53.5648   21.6080 H   0  0  0  0  0  0
    0.3608   50.4642   23.1298 H   0  0  0  0  0  0
    1.5809   50.4409   24.4629 H   0  0  0  0  0  0
   -0.4783   52.8936   25.9286 H   0  0  0  0  0  0
   -1.4241   53.3723   24.5368 H   0  0  0  0  0  0
   -2.1602   51.0221   23.0570 H   0  0  0  0  0  0
   -3.1581   50.0646   24.1016 H   0  0  0  0  0  0
   -3.3521   53.1382   23.7588 H   0  0  0  0  0  0
   -4.5390   51.9097   23.2823 H   0  0  0  0  0  0
   -5.0921   52.9827   25.3773 H   0  0  0  0  0  0
   -2.9926   53.3560   26.4807 H   0  0  0  0  0  0
   -4.0547   52.3077   27.4545 H   0  0  0  0  0  0
   -2.8956   50.2460   26.6282 H   0  0  0  0  0  0
   -1.7418   51.3230   27.3233 H   0  0  0  0  0  0
   -1.2953   48.2301   26.6645 H   0  0  0  0  0  0
   -1.2905   46.0963   24.6820 H   0  0  0  0  0  0
   -1.6776   45.9848   26.3467 H   0  0  0  0  0  0
   -3.6532   47.3956   24.5044 H   0  0  0  0  0  0
   -3.5354   45.6973   24.4244 H   0  0  0  0  0  0
   -3.8142   48.3752   27.0314 H   0  0  0  0  0  0
   -5.3740   48.3163   28.9235 H   0  0  0  0  0  0
   -6.7928   46.3261   29.2933 H   0  0  0  0  0  0
   -6.6122   44.3958   27.8160 H   0  0  0  0  0  0
   -6.7056   43.1722   25.9602 H   0  0  0  0  0  0
   -5.5301   42.3791   24.9563 H   0  0  0  0  0  0
   -5.7357   41.2510   27.1979 H   0  0  0  0  0  0
   -4.0953   41.8082   26.8809 H   0  0  0  0  0  0
   -5.1197   42.6876   27.9924 H   0  0  0  0  0  0
   -4.9610   51.3749   25.5040 H   0  0  0  0  0  0
  1  2  1  0  0  0
  1 38  1  0  0  0
  1 39  1  0  0  0
  1 40  1  0  0  0
  2  3  1  0  0  0
  2 41  1  0  0  0
  2 42  1  0  0  0
  3  4  1  0  0  0
  3  5  1  0  0  0
  3 11  1  0  0  0
  5 10  2  0  0  0
  5  6  1  0  0  0
  6  7  2  0  0  0
  6 43  1  0  0  0
  7  8  1  0  0  0
  7 44  1  0  0  0
  8  9  2  0  0  0
  8 45  1  0  0  0
  9 10  1  0  0  0
  9 46  1  0  0  0
 10 47  1  0  0  0
 11 12  2  0  0  0
 11 13  1  0  0  0
 13 18  1  0  0  0
 13 14  1  0  0  0
 14 15  1  0  0  0
 14 48  1  0  0  0
 14 49  1  0  0  0
 15 16  1  0  0  0
 15 17  1  0  0  0
 15 24  1  0  0  0
 17 23  1  0  0  0
 17 18  1  0  0  0
 17 19  1  0  0  0
 18 50  1  0  0  0
 18 51  1  0  0  0
 19 20  1  0  0  0
 19 52  1  0  0  0
 19 53  1  0  0  0
 20 21  1  0  0  0
 20 54  1  0  0  0
 20 55  1  0  0  0
 21 22  1  0  0  0
 21 56  1  0  0  0
 21 75  1  0  0  0
 22 23  1  0  0  0
 22 57  1  0  0  0
 22 58  1  0  0  0
 23 59  1  0  0  0
 23 60  1  0  0  0
 24 25  2  0  0  0
 24 26  1  0  0  0
 26 27  1  0  0  0
 26 61  1  0  0  0
 27 28  1  0  0  0
 27 62  1  0  0  0
 27 63  1  0  0  0
 28 29  1  0  0  0
 28 64  1  0  0  0
 28 65  1  0  0  0
 29 34  2  0  0  0
 29 30  1  0  0  0
 30 31  2  0  0  0
 30 66  1  0  0  0
 31 32  1  0  0  0
 31 67  1  0  0  0
 32 33  2  0  0  0
 32 68  1  0  0  0
 33 34  1  0  0  0
 33 69  1  0  0  0
 34 35  1  0  0  0
 35 36  1  0  0  0
 36 37  1  0  0  0
 36 70  1  0  0  0
 36 71  1  0  0  0
 37 72  1  0  0  0
 37 73  1  0  0  0
 37 74  1  0  0  0
M  CHG  1  21   1
M  END
> <i_i_glide_confnum>
149

> <i_i_glide_lignum>
4898

> <i_i_glide_posenum>
395

> <i_i_glide_rotatable_bonds>
11

> <i_m_Source_File_Index>
611

> <b_m_subgroup_collapsed>
0

> <r_i_docking_score>
-4.75503

> <r_i_glide_ecoul>
-5.92558

> <r_i_glide_eff_state_penalty>
0

> <r_i_glide_einternal>
12.2844

> <r_i_glide_emodel>
-51.8758

> <r_i_glide_energy>
-42.5873

> <r_i_glide_erotb>
0.796124

> <r_i_glide_esite>
-0.146876

> <r_i_glide_evdw>
-36.6618

> <r_i_glide_gscore>
-4.75503

> <r_i_glide_hbond>
-0.291655

> <r_i_glide_ligand_efficiency>
-0.135858

> <r_i_glide_ligand_efficiency_ln>
-1.04383

> <r_i_glide_ligand_efficiency_sa>
-0.444401

> <r_i_glide_lipo>
-1.78062

> <r_i_glide_metal>
0

> <r_i_glide_rewards>
-0.610081

> <s_i_glide_gridfile>
wee1_glide-grid

> <s_m_Source_File>
wee1_decoys_glide_SP.sdf

> <s_m_Source_Path>
/Users/zhangxujun/Desktop

> <s_m_entry_id>
886

> <s_m_entry_name>
wee1_decoys_glide_SP.611

> <s_m_subgroup_title>
wee1_decoys_glide_SP

> <s_m_subgroupid>
wee1_decoys_glide_SP


$$$$
