ZINC31978838_6143
                    3D
 Schrodinger Suite 2024-2.
 35 38  0  0  1  0            999 V2000
    1.0208   52.3481   31.2430 C   0  0  0  0  0  0
    0.0283   52.5015   30.2827 C   0  0  0  0  0  0
    0.3704   52.8572   28.9795 C   0  0  0  0  0  0
    1.7064   53.0636   28.6162 C   0  0  0  0  0  0
    2.7082   52.8724   29.5828 C   0  0  0  0  0  0
    2.3557   52.4969   30.8832 C   0  0  0  0  0  0
    4.1533   53.1047   29.1992 C   0  0  0  0  0  0
    4.2762   54.1662   28.0952 C   0  0  0  0  0  0
    3.4836   53.8101   26.9121 N   0  0  0  0  0  0
    2.0657   53.5226   27.2001 C   0  0  0  0  0  0
    3.9237   54.0109   25.6326 C   0  0  0  0  0  0
    3.2377   53.8137   24.5218 N   0  0  0  0  0  0
    4.1354   54.1008   23.5336 C   0  0  0  0  0  0
    4.0043   54.0936   22.1377 C   0  0  0  0  0  0
    5.1057   54.4962   21.3755 C   0  0  0  0  0  0
    6.3062   54.8968   21.9758 C   0  0  0  0  0  0
    6.4664   54.8946   23.3654 C   0  0  0  0  0  0
    5.3539   54.4972   24.1120 C   0  0  0  0  0  0
    5.2170   54.4289   25.4617 O   0  0  0  0  0  0
    4.9965   54.4969   19.9896 N   0  0  0  0  0  0
    0.7497   52.0813   32.2558 H   0  0  0  0  0  0
   -1.0020   52.3383   30.5575 H   0  0  0  0  0  0
   -0.4133   52.9853   28.2464 H   0  0  0  0  0  0
    3.1225   52.3512   31.6313 H   0  0  0  0  0  0
    4.6087   52.1684   28.8714 H   0  0  0  0  0  0
    4.7039   53.4380   30.0734 H   0  0  0  0  0  0
    5.3321   54.2352   27.8300 H   0  0  0  0  0  0
    4.0100   55.1634   28.4497 H   0  0  0  0  0  0
    1.5031   54.4245   26.9601 H   0  0  0  0  0  0
    1.7235   52.7525   26.5061 H   0  0  0  0  0  0
    3.0743   53.8059   21.6697 H   0  0  0  0  0  0
    7.1369   55.2036   21.3547 H   0  0  0  0  0  0
    7.3927   55.1938   23.8342 H   0  0  0  0  0  0
    5.8247   54.6160   19.4266 H   0  0  0  0  0  0
    4.1517   54.1309   19.5732 H   0  0  0  0  0  0
  1  6  2  0  0  0
  1  2  1  0  0  0
  1 21  1  0  0  0
  2  3  2  0  0  0
  2 22  1  0  0  0
  3  4  1  0  0  0
  3 23  1  0  0  0
  4 10  1  0  0  0
  4  5  2  0  0  0
  5  6  1  0  0  0
  5  7  1  0  0  0
  6 24  1  0  0  0
  7  8  1  0  0  0
  7 25  1  0  0  0
  7 26  1  0  0  0
  8  9  1  0  0  0
  8 27  1  0  0  0
  8 28  1  0  0  0
  9 10  1  0  0  0
  9 11  1  0  0  0
 10 29  1  0  0  0
 10 30  1  0  0  0
 11 19  1  0  0  0
 11 12  2  0  0  0
 12 13  1  0  0  0
 13 18  2  0  0  0
 13 14  1  0  0  0
 14 15  2  0  0  0
 14 31  1  0  0  0
 15 16  1  0  0  0
 15 20  1  0  0  0
 16 17  2  0  0  0
 16 32  1  0  0  0
 17 18  1  0  0  0
 17 33  1  0  0  0
 18 19  1  0  0  0
 20 34  1  0  0  0
 20 35  1  0  0  0
M  END
> <i_i_glide_confnum>
8

> <i_i_glide_lignum>
6144

> <i_i_glide_posenum>
245

> <i_i_glide_rotatable_bonds>
1

> <i_m_Source_File_Index>
4756

> <b_m_subgroup_collapsed>
0

> <r_i_docking_score>
-6.45627

> <r_i_glide_ecoul>
-2.54168

> <r_i_glide_eff_state_penalty>
0

> <r_i_glide_einternal>
0.41393

> <r_i_glide_emodel>
-49.9278

> <r_i_glide_energy>
-35.8594

> <r_i_glide_erotb>
0.252785

> <r_i_glide_esite>
0

> <r_i_glide_evdw>
-33.3177

> <r_i_glide_gscore>
-6.45627

> <r_i_glide_hbond>
0

> <r_i_glide_ligand_efficiency>
-0.322814

> <r_i_glide_ligand_efficiency_ln>
-1.61579

> <r_i_glide_ligand_efficiency_sa>
-0.876251

> <r_i_glide_lipo>
-2.72431

> <r_i_glide_metal>
0

> <r_i_glide_rewards>
-1.93761

> <s_i_glide_gridfile>
wee1_glide-grid

> <s_m_Source_File>
wee1_decoys_glide_SP.sdf

> <s_m_Source_Path>
/Users/zhangxujun/Desktop

> <s_m_entry_id>
5031

> <s_m_entry_name>
wee1_decoys_glide_SP.4756

> <s_m_subgroup_title>
wee1_decoys_glide_SP

> <s_m_subgroupid>
wee1_decoys_glide_SP


$$$$
