@<TRIPOS>MOLECULE
ZINC23362331_5715
67   70    1
SMALL
USER_CHARGES


@<TRIPOS>ATOM
      1 C1          1.8357   48.8071   19.8599 C.3       1 UNK         0.0000 
      2 N2          1.8611   50.2298   20.4642 N.4       1 UNK         0.0000 
      3 C3          2.0302   50.1802   22.0016 C.3       1 UNK         0.0000 
      4 C4          1.9788   51.6247   22.5541 C.3       1 UNK         0.0000 
      5 N5          2.9873   52.4952   21.9228 N.3       1 UNK         0.0000 
      6 C6          2.8847   52.5054   20.4532 C.3       1 UNK         0.0000 
      7 C7          3.0000   51.0807   19.8600 C.3       1 UNK         0.0000 
      8 C8          2.8718   53.8650   22.4448 C.3       1 UNK         0.0000 
      9 C9          3.5119   54.0294   23.8259 C.ar      1 UNK         0.0000 
     10 C10         2.7177   53.9568   24.9761 C.ar      1 UNK         0.0000 
     11 C11         3.2706   54.0902   26.2536 C.ar      1 UNK         0.0000 
     12 C12         4.6499   54.3065   26.3600 C.ar      1 UNK         0.0000 
     13 C13         5.4537   54.3908   25.2226 C.ar      1 UNK         0.0000 
     14 C14         4.8919   54.2497   23.9444 C.ar      1 UNK         0.0000 
     15 O15         5.6187   54.3199   22.7742 O.3       1 UNK         0.0000 
     16 C16         6.9086   54.9356   22.7437 C.3       1 UNK         0.0000 
     17 C17         7.0694   55.6492   21.3931 C.2       1 UNK         0.0000 
     18 O18         6.0912   56.1260   20.8188 O.2       1 UNK         0.0000 
     19 N19         8.3043   55.6966   20.8722 N.am      1 UNK         0.0000 
     20 C20         8.6358   56.1795   19.5302 C.3       1 UNK         0.0000 
     21 C21         8.6483   55.0684   18.4833 C.ar      1 UNK         0.0000 
     22 C22         7.4627   54.4080   18.1458 C.ar      1 UNK         0.0000 
     23 C23         7.4748   53.3816   17.2039 C.ar      1 UNK         0.0000 
     24 C24         8.6706   53.0243   16.5713 C.ar      1 UNK         0.0000 
     25 C25         9.8537   53.7001   16.8961 C.ar      1 UNK         0.0000 
     26 C26         9.8409   54.7194   17.8431 C.ar      1 UNK         0.0000 
     27 C27         8.6930   51.9117   15.5238 C.3       1 UNK         0.0000 
     28 F28         9.5326   52.2128   14.5317 F         1 UNK         0.0000 
     29 F29         7.4878   51.7009   14.9897 F         1 UNK         0.0000 
     30 F30         9.1072   50.7857   16.0987 F         1 UNK         0.0000 
     31 C31         2.4116   54.0035   27.4676 C.ar      1 UNK         0.0000 
     32 C32         1.4277   53.0124   27.5790 C.ar      1 UNK         0.0000 
     33 C33         0.5905   52.9617   28.6924 C.ar      1 UNK         0.0000 
     34 C34         0.7301   53.9107   29.7037 C.ar      1 UNK         0.0000 
     35 C35         1.7111   54.8928   29.6178 C.ar      1 UNK         0.0000 
     36 C36         2.5554   54.9274   28.5109 C.ar      1 UNK         0.0000 
     37 F37        -0.0945   53.8800   30.7735 F         1 UNK         0.0000 
     38 H38         2.7082   48.2610   20.2186 H         1 UNK         0.0000 
     39 H39         0.9158   48.3255   20.1960 H         1 UNK         0.0000 
     40 H40         1.8493   48.8983   18.7707 H         1 UNK         0.0000 
     41 H41         1.1952   49.5910   22.3907 H         1 UNK         0.0000 
     42 H42         2.9772   49.6786   22.2240 H         1 UNK         0.0000 
     43 H43         2.1104   51.5961   23.6371 H         1 UNK         0.0000 
     44 H44         0.9906   52.0317   22.3235 H         1 UNK         0.0000 
     45 H45         1.9048   52.9010   20.1747 H         1 UNK         0.0000 
     46 H46         3.6620   53.1383   20.0195 H         1 UNK         0.0000 
     47 H47         2.8478   51.0989   18.7766 H         1 UNK         0.0000 
     48 H48         3.9484   50.5803   20.0797 H         1 UNK         0.0000 
     49 H49         1.8322   54.2048   22.4734 H         1 UNK         0.0000 
     50 H50         3.3633   54.5807   21.7784 H         1 UNK         0.0000 
     51 H51         1.6545   53.8002   24.8718 H         1 UNK         0.0000 
     52 H52         5.1119   54.4027   27.3334 H         1 UNK         0.0000 
     53 H53         6.5171   54.5377   25.3485 H         1 UNK         0.0000 
     54 H54         7.6705   54.1661   22.8766 H         1 UNK         0.0000 
     55 H55         7.0381   55.6975   23.5130 H         1 UNK         0.0000 
     56 H56         9.0623   55.3017   21.4067 H         1 UNK         0.0000 
     57 H57         9.6049   56.6793   19.5693 H         1 UNK         0.0000 
     58 H58         7.9265   56.9400   19.1921 H         1 UNK         0.0000 
     59 H59         6.5304   54.6777   18.6227 H         1 UNK         0.0000 
     60 H60         6.5522   52.8669   16.9719 H         1 UNK         0.0000 
     61 H61        10.7852   53.4344   16.4178 H         1 UNK         0.0000 
     62 H62        10.7655   55.2255   18.0827 H         1 UNK         0.0000 
     63 H63         1.3033   52.2726   26.7979 H         1 UNK         0.0000 
     64 H64        -0.1685   52.1974   28.7738 H         1 UNK         0.0000 
     65 H65         1.8125   55.6270   30.4062 H         1 UNK         0.0000 
     66 H66         3.3119   55.6941   28.4588 H         1 UNK         0.0000 
     67 H67         0.9814   50.6801   20.2410 H         1 UNK         0.0000 
@<TRIPOS>BOND
     1    1    2 1    
     2    1   38 1    
     3    1   39 1    
     4    1   40 1    
     5    2    7 1    
     6    2    3 1    
     7    2   67 1    
     8    3    4 1    
     9    3   41 1    
    10    3   42 1    
    11    4    5 1    
    12    4   43 1    
    13    4   44 1    
    14    5    6 1    
    15    5    8 1    
    16    6    7 1    
    17    6   45 1    
    18    6   46 1    
    19    7   47 1    
    20    7   48 1    
    21    8    9 1    
    22    8   49 1    
    23    8   50 1    
    24    9   14 ar   
    25    9   10 ar   
    26   10   11 ar   
    27   10   51 1    
    28   11   12 ar   
    29   11   31 1    
    30   12   13 ar   
    31   12   52 1    
    32   13   14 ar   
    33   13   53 1    
    34   14   15 1    
    35   15   16 1    
    36   16   17 1    
    37   16   54 1    
    38   16   55 1    
    39   17   18 2    
    40   17   19 am   BACKBONE|DICT|INTERRES
    41   19   20 1    
    42   19   56 1    
    43   20   21 1    
    44   20   57 1    
    45   20   58 1    
    46   21   26 ar   
    47   21   22 ar   
    48   22   23 ar   
    49   22   59 1    
    50   23   24 ar   
    51   23   60 1    
    52   24   25 ar   
    53   24   27 1    
    54   25   26 ar   
    55   25   61 1    
    56   26   62 1    
    57   27   28 1    
    58   27   29 1    
    59   27   30 1    
    60   31   36 ar   
    61   31   32 ar   
    62   32   33 ar   
    63   32   63 1    
    64   33   34 ar   
    65   33   64 1    
    66   34   35 ar   
    67   34   37 1    
    68   35   36 ar   
    69   35   65 1    
    70   36   66 1    
@<TRIPOS>SUBSTRUCTURE
     1 UNK         1 GROUP             0       ****    0 ROOT    
