ZINC02188836_4116
                    3D
 Schrodinger Suite 2024-2.
 67 71  0  0  1  0            999 V2000
   -4.5400   54.7340   25.9255 C   0  0  0  0  0  0
   -4.1517   53.4135   25.2410 C   0  0  0  0  0  0
   -3.1735   52.6611   26.1702 C   0  0  0  0  0  0
   -2.9795   51.1873   25.7521 C   0  0  0  0  0  0
   -3.9932   50.4853   25.1638 C   0  0  0  0  0  0
   -3.8781   48.9622   24.9187 C   0  0  1  0  0  0
   -4.3241   48.7408   23.9461 H   0  0  0  0  0  0
   -2.4123   48.5346   24.9028 C   0  0  0  0  0  0
   -1.4311   49.3163   25.4128 C   0  0  0  0  0  0
   -1.7069   50.6057   25.9110 N   0  0  0  0  0  0
   -0.7646   51.2760   26.6946 C   0  0  0  0  0  0
    0.3590   52.0334   26.3125 C   0  0  0  0  0  0
    1.0599   52.4996   27.4754 C   0  0  0  0  0  0
    0.4164   52.1764   28.6806 C   0  0  0  0  0  0
   -1.0354   51.2996   28.3907 S   0  0  0  0  0  0
    0.8555   52.5483   30.0822 C   0  0  0  0  0  0
    0.9045   54.0697   30.3067 C   0  0  0  0  0  0
    2.1147   54.7783   29.6580 C   0  0  0  0  0  0
    2.2150   54.7027   28.1198 C   0  0  0  0  0  0
    2.3695   53.2840   27.5265 C   0  0  0  0  0  0
    0.7300   52.2828   24.9062 C   0  0  0  0  0  0
    0.4898   51.4999   23.9857 O   0  0  0  0  0  0
    1.3224   53.4861   24.7429 O   0  0  0  0  0  0
    1.8181   53.8853   23.4721 C   0  0  0  0  0  0
   -0.1234   48.8875   25.4959 N   0  0  0  0  0  0
   -2.1729   47.2000   24.4453 C   0  0  0  0  0  0
   -2.0948   46.1010   24.0823 N   0  0  0  0  0  0
   -4.6690   48.1228   25.9360 C   0  0  0  0  0  0
   -4.4178   48.2701   27.3060 C   0  0  0  0  0  0
   -5.0590   47.4556   28.2334 C   0  0  0  0  0  0
   -5.9683   46.4987   27.7949 C   0  0  0  0  0  0
   -6.2512   46.3604   26.4373 C   0  0  0  0  0  0
   -5.6011   47.1706   25.5069 C   0  0  0  0  0  0
   -6.5730   45.6912   28.6964 F   0  0  0  0  0  0
   -5.2929   51.1053   24.8291 C   0  0  0  0  0  0
   -6.2475   50.4477   24.4161 O   0  0  0  0  0  0
   -5.4665   52.6003   25.1200 C   0  0  0  0  0  0
   -3.5015   53.6344   23.8562 C   0  0  0  0  0  0
   -5.2434   55.2690   25.3040 H   0  0  0  0  0  0
   -5.0234   54.5756   26.8868 H   0  0  0  0  0  0
   -3.6961   55.3984   26.0811 H   0  0  0  0  0  0
   -3.5227   52.6358   27.2023 H   0  0  0  0  0  0
   -2.2499   53.2378   26.1126 H   0  0  0  0  0  0
    0.1945   52.0945   30.8236 H   0  0  0  0  0  0
    1.8453   52.1389   30.2855 H   0  0  0  0  0  0
   -0.0260   54.5203   29.9587 H   0  0  0  0  0  0
    0.9284   54.2592   31.3799 H   0  0  0  0  0  0
    2.0930   55.8302   29.9491 H   0  0  0  0  0  0
    3.0356   54.3787   30.0838 H   0  0  0  0  0  0
    1.3481   55.1978   27.6817 H   0  0  0  0  0  0
    3.0772   55.2961   27.8124 H   0  0  0  0  0  0
    3.0935   52.7357   28.1314 H   0  0  0  0  0  0
    2.8672   53.3433   26.5612 H   0  0  0  0  0  0
    2.2197   54.8966   23.5315 H   0  0  0  0  0  0
    2.6188   53.2214   23.1427 H   0  0  0  0  0  0
    1.0335   53.8754   22.7157 H   0  0  0  0  0  0
    0.0912   47.8994   25.5041 H   0  0  0  0  0  0
    0.5962   49.5077   25.8312 H   0  0  0  0  0  0
   -3.6906   48.9888   27.6573 H   0  0  0  0  0  0
   -4.8322   47.5564   29.2853 H   0  0  0  0  0  0
   -6.9630   45.6183   26.1084 H   0  0  0  0  0  0
   -5.8105   47.0444   24.4551 H   0  0  0  0  0  0
   -5.9689   52.6203   26.0882 H   0  0  0  0  0  0
   -6.1591   53.0264   24.3929 H   0  0  0  0  0  0
   -4.0985   54.3356   23.2817 H   0  0  0  0  0  0
   -2.5140   54.0905   23.9298 H   0  0  0  0  0  0
   -3.3944   52.7128   23.2839 H   0  0  0  0  0  0
  1  2  1  0  0  0
  1 39  1  0  0  0
  1 40  1  0  0  0
  1 41  1  0  0  0
  2 37  1  0  0  0
  2  3  1  0  0  0
  2 38  1  0  0  0
  3  4  1  0  0  0
  3 42  1  0  0  0
  3 43  1  0  0  0
  4 10  1  0  0  0
  4  5  2  0  0  0
  5  6  1  0  0  0
  5 35  1  0  0  0
  6  7  1  0  0  0
  6  8  1  0  0  0
  6 28  1  0  0  0
  8  9  2  0  0  0
  8 26  1  0  0  0
  9 10  1  0  0  0
  9 25  1  0  0  0
 10 11  1  0  0  0
 11 15  1  0  0  0
 11 12  2  0  0  0
 12 13  1  0  0  0
 12 21  1  0  0  0
 13 20  1  0  0  0
 13 14  2  0  0  0
 14 15  1  0  0  0
 14 16  1  0  0  0
 16 17  1  0  0  0
 16 44  1  0  0  0
 16 45  1  0  0  0
 17 18  1  0  0  0
 17 46  1  0  0  0
 17 47  1  0  0  0
 18 19  1  0  0  0
 18 48  1  0  0  0
 18 49  1  0  0  0
 19 20  1  0  0  0
 19 50  1  0  0  0
 19 51  1  0  0  0
 20 52  1  0  0  0
 20 53  1  0  0  0
 21 22  2  0  0  0
 21 23  1  0  0  0
 23 24  1  0  0  0
 24 54  1  0  0  0
 24 55  1  0  0  0
 24 56  1  0  0  0
 25 57  1  0  0  0
 25 58  1  0  0  0
 26 27  3  0  0  0
 28 33  2  0  0  0
 28 29  1  0  0  0
 29 30  2  0  0  0
 29 59  1  0  0  0
 30 31  1  0  0  0
 30 60  1  0  0  0
 31 32  2  0  0  0
 31 34  1  0  0  0
 32 33  1  0  0  0
 32 61  1  0  0  0
 33 62  1  0  0  0
 35 36  2  0  0  0
 35 37  1  0  0  0
 37 63  1  0  0  0
 37 64  1  0  0  0
 38 65  1  0  0  0
 38 66  1  0  0  0
 38 67  1  0  0  0
M  END
> <i_i_glide_confnum>
27

> <i_i_glide_lignum>
4117

> <i_i_glide_posenum>
86

> <i_i_glide_rotatable_bonds>
5

> <i_m_Source_File_Index>
4863

> <b_m_subgroup_collapsed>
0

> <r_i_docking_score>
-4.36931

> <r_i_glide_ecoul>
-2.36187

> <r_i_glide_eff_state_penalty>
0

> <r_i_glide_einternal>
2.69

> <r_i_glide_emodel>
-43.4147

> <r_i_glide_energy>
-35.6625

> <r_i_glide_erotb>
0.228275

> <r_i_glide_esite>
-0.240232

> <r_i_glide_evdw>
-33.3006

> <r_i_glide_gscore>
-4.36931

> <r_i_glide_hbond>
-0.153677

> <r_i_glide_ligand_efficiency>
-0.11809

> <r_i_glide_ligand_efficiency_ln>
-0.947602

> <r_i_glide_ligand_efficiency_sa>
-0.393501

> <r_i_glide_lipo>
-2.03936

> <r_i_glide_metal>
0

> <r_i_glide_rewards>
-0.145013

> <s_i_glide_gridfile>
wee1_glide-grid

> <s_m_Source_File>
wee1_decoys_glide_SP.sdf

> <s_m_Source_Path>
/Users/zhangxujun/Desktop

> <s_m_entry_id>
5138

> <s_m_entry_name>
wee1_decoys_glide_SP.4863

> <s_m_subgroup_title>
wee1_decoys_glide_SP

> <s_m_subgroupid>
wee1_decoys_glide_SP


$$$$
