@<TRIPOS>MOLECULE
ZINC14544861_2350
58   63    1
SMALL
USER_CHARGES


@<TRIPOS>ATOM
      1 C1          5.4217   54.4910   23.4965 C.ar      1 UNK         0.0000 
      2 C2          6.4979   54.4908   24.3801 C.ar      1 UNK         0.0000 
      3 C3          6.2671   54.4982   25.7530 C.ar      1 UNK         0.0000 
      4 C4          4.9577   54.5070   26.2357 C.ar      1 UNK         0.0000 
      5 C5          3.8814   54.4972   25.3485 C.ar      1 UNK         0.0000 
      6 C6          4.1134   54.4942   23.9773 C.ar      1 UNK         0.0000 
      7 C7          4.6954   54.5647   27.7255 C.3       1 UNK         0.0000 
      8 N8          4.4237   53.2385   28.3099 N.pl3     1 UNK         0.0000 
      9 S9          3.1593   53.0174   29.5106 S.o2      1 UNK         0.0000 
     10 O10         3.5484   51.8918   30.3689 O.2       1 UNK         0.0000 
     11 O11         2.8578   54.3335   30.0817 O.2       1 UNK         0.0000 
     12 C12         1.6758   52.4934   28.6684 C.ar      1 UNK         0.0000 
     13 C13         0.5444   52.2126   29.4343 C.ar      1 UNK         0.0000 
     14 C14        -0.5964   51.6968   28.8284 C.ar      1 UNK         0.0000 
     15 C15        -0.6135   51.4493   27.4566 C.ar      1 UNK         0.0000 
     16 C16         0.5045   51.7834   26.6594 C.ar      1 UNK         0.0000 
     17 C17         1.6412   52.3027   27.2860 C.ar      1 UNK         0.0000 
     18 C18         0.4329   51.4762   25.1695 C.3       1 UNK         0.0000 
     19 H19         0.6813   50.4160   25.0719 H         1 UNK         0.0000 
     20 C20         1.2295   52.2459   24.1405 C.2       1 UNK         0.0000 
     21 C21         0.5052   52.3679   23.0091 C.2       1 UNK         0.0000 
     22 C22        -0.9028   51.8188   23.1959 C.3       1 UNK         0.0000 
     23 C23        -0.9885   51.7625   24.7178 C.3       1 UNK         0.0000 
     24 H24        -1.2794   52.7676   25.0397 H         1 UNK         0.0000 
     25 C25        -1.9404   50.7708   25.4281 C.3       1 UNK         0.0000 
     26 H26        -1.6233   49.7567   25.1804 H         1 UNK         0.0000 
     27 N27        -1.7915   50.9045   26.8899 N.pl3     1 UNK         0.0000 
     28 C28        -3.3869   50.9319   25.0038 C.ar      1 UNK         0.0000 
     29 C29        -4.1428   50.0439   24.2599 C.ar      1 UNK         0.0000 
     30 N30        -5.4188   50.5178   24.1018 N.pl3     1 UNK         0.0000 
     31 H31        -6.1337   50.0118   23.6015 H         1 UNK         0.0000 
     32 C32        -5.5443   51.7351   24.7290 C.ar      1 UNK         0.0000 
     33 C33        -4.2675   52.0364   25.2948 C.ar      1 UNK         0.0000 
     34 C34        -4.1139   53.2522   25.9806 C.ar      1 UNK         0.0000 
     35 C35        -5.2016   54.1159   26.0868 C.ar      1 UNK         0.0000 
     36 C36        -6.4374   53.7907   25.5356 C.ar      1 UNK         0.0000 
     37 C37        -6.6413   52.5939   24.8499 C.ar      1 UNK         0.0000 
     38 H38         5.6033   54.4865   22.4311 H         1 UNK         0.0000 
     39 H39         7.5045   54.4856   23.9957 H         1 UNK         0.0000 
     40 H40         7.1024   54.5001   26.4379 H         1 UNK         0.0000 
     41 H41         2.8662   54.5087   25.7185 H         1 UNK         0.0000 
     42 H42         3.2823   54.4972   23.2870 H         1 UNK         0.0000 
     43 H43         5.5652   54.9819   28.2380 H         1 UNK         0.0000 
     44 H44         3.8983   55.2689   27.9710 H         1 UNK         0.0000 
     45 H45         5.0578   52.4618   28.1032 H         1 UNK         0.0000 
     46 H46         0.5558   52.3564   30.5066 H         1 UNK         0.0000 
     47 H47        -1.4550   51.4510   29.4366 H         1 UNK         0.0000 
     48 H48         2.5186   52.5029   26.6944 H         1 UNK         0.0000 
     49 H49         2.2638   52.5127   24.2782 H         1 UNK         0.0000 
     50 H50         0.8441   52.7972   22.0754 H         1 UNK         0.0000 
     51 H51        -1.0362   50.8409   22.7326 H         1 UNK         0.0000 
     52 H52        -1.6644   52.4833   22.7863 H         1 UNK         0.0000 
     53 H53        -2.2487   50.1563   27.3995 H         1 UNK         0.0000 
     54 H54        -3.8716   49.0843   23.8409 H         1 UNK         0.0000 
     55 H55        -3.1654   53.5110   26.4266 H         1 UNK         0.0000 
     56 H56        -5.0840   55.0475   26.6229 H         1 UNK         0.0000 
     57 H57        -7.2606   54.4824   25.6396 H         1 UNK         0.0000 
     58 H58        -7.6010   52.3556   24.4134 H         1 UNK         0.0000 
@<TRIPOS>BOND
     1    1    6 ar   
     2    1    2 ar   
     3    1   38 1    
     4    2    3 ar   
     5    2   39 1    
     6    3    4 ar   
     7    3   40 1    
     8    4    5 ar   
     9    4    7 1    
    10    5    6 ar   
    11    5   41 1    
    12    6   42 1    
    13    7    8 1    
    14    7   43 1    
    15    7   44 1    
    16    8    9 1    
    17    8   45 1    
    18    9   10 2    
    19    9   11 2    
    20    9   12 1    
    21   12   17 ar   
    22   12   13 ar   
    23   13   14 ar   
    24   13   46 1    
    25   14   15 ar   
    26   14   47 1    
    27   15   27 1    
    28   15   16 ar   
    29   16   17 ar   
    30   16   18 1    
    31   17   48 1    
    32   18   19 1    
    33   18   23 1    
    34   18   20 1    
    35   20   21 2    
    36   20   49 1    
    37   21   22 1    
    38   21   50 1    
    39   22   23 1    
    40   22   51 1    
    41   22   52 1    
    42   23   24 1    
    43   23   25 1    
    44   25   26 1    
    45   25   27 1    
    46   25   28 1    
    47   27   53 1    
    48   28   33 ar   
    49   28   29 ar   
    50   29   30 ar   
    51   29   54 1    
    52   30   31 1    
    53   30   32 ar   
    54   32   37 ar   
    55   32   33 ar   
    56   33   34 ar   
    57   34   35 ar   
    58   34   55 1    
    59   35   36 ar   
    60   35   56 1    
    61   36   37 ar   
    62   36   57 1    
    63   37   58 1    
@<TRIPOS>SUBSTRUCTURE
     1 UNK         1 GROUP             0       ****    0 ROOT    
