ZINC39995188_2225
                    3D
 Schrodinger Suite 2024-2.
 53 57  0  0  1  0            999 V2000
   -2.1337   50.0924   26.0823 C   0  0  0  0  0  0
   -0.6432   50.4263   26.3054 C   0  0  2  0  0  0
   -0.2173   49.6578   26.9384 H   0  0  0  0  0  0
   -0.4203   51.7324   27.0848 C   0  0  0  0  0  0
   -1.2949   52.5964   27.0864 O   0  0  0  0  0  0
    0.7990   51.8983   27.6387 N   0  0  0  0  0  0
    1.2631   53.0822   28.2386 C   0  0  0  0  0  0
    2.4311   53.6654   27.7309 C   0  0  0  0  0  0
    2.9114   54.8569   28.2636 C   0  0  0  0  0  0
    2.2322   55.4856   29.3034 C   0  0  0  0  0  0
    1.0964   54.8878   29.8508 C   0  0  0  0  0  0
    0.6070   53.6884   29.3250 C   0  0  0  0  0  0
   -0.4910   53.1266   29.8828 F   0  0  0  0  0  0
    3.0926   53.1036   26.6943 F   0  0  0  0  0  0
    0.3044   50.3419   24.7499 S   0  0  0  0  0  0
    0.1099   51.9964   23.9960 C   0  0  1  0  0  0
   -0.9082   52.3412   24.1836 H   0  0  0  0  0  0
    1.0817   52.9850   24.4317 N   0  0  0  0  0  0
    2.1647   52.9994   23.5576 N   0  0  0  0  0  0
    1.7336   52.4989   22.4817 C   0  0  0  0  0  0
    0.4300   52.0400   22.5808 N   0  0  0  0  0  0
   -0.3666   51.2381   21.6545 C   0  0  0  0  0  0
   -1.8171   51.6467   21.4843 C   0  0  0  0  0  0
   -0.8351   51.8833   20.3676 C   0  0  0  0  0  0
    2.5673   52.3958   21.3018 C   0  0  0  0  0  0
    3.6376   53.1686   20.9921 C   0  0  0  0  0  0
    4.3055   54.2929   21.6763 C   0  0  0  0  0  0
    5.3914   54.8905   21.1390 C   0  0  0  0  0  0
    5.8688   54.4133   19.8518 C   0  0  0  0  0  0
    5.2803   53.3687   19.2153 C   0  0  0  0  0  0
    4.1678   52.7297   19.7761 C   0  0  0  0  0  0
    3.5043   51.6970   19.3187 N   0  3  0  0  0  0
    2.4220   51.3284   20.2347 C   0  0  0  0  0  0
   -2.6857   50.1008   27.0232 H   0  0  0  0  0  0
   -2.6123   50.8004   25.4058 H   0  0  0  0  0  0
   -2.2475   49.0941   25.6559 H   0  0  0  0  0  0
    1.4913   51.1870   27.4542 H   0  0  0  0  0  0
    3.8062   55.2960   27.8552 H   0  0  0  0  0  0
    2.5898   56.4311   29.6824 H   0  0  0  0  0  0
    0.5858   55.3583   30.6782 H   0  0  0  0  0  0
    1.4289   52.9126   25.3770 H   0  0  0  0  0  0
   -0.1200   50.1747   21.6447 H   0  0  0  0  0  0
   -2.5614   50.8557   21.3881 H   0  0  0  0  0  0
   -2.1938   52.4949   22.0574 H   0  0  0  0  0  0
   -0.4421   52.8736   20.1494 H   0  0  0  0  0  0
   -0.9024   51.2635   19.4729 H   0  0  0  0  0  0
    3.9540   54.6559   22.6297 H   0  0  0  0  0  0
    5.9042   55.6959   21.6431 H   0  0  0  0  0  0
    6.7250   54.8930   19.3955 H   0  0  0  0  0  0
    5.6838   53.0375   18.2674 H   0  0  0  0  0  0
    2.6023   50.3127   20.5916 H   0  0  0  0  0  0
    1.5044   51.3682   19.6538 H   0  0  0  0  0  0
    3.7745   51.1663   18.4839 H   0  0  0  0  0  0
  1  2  1  0  0  0
  1 34  1  0  0  0
  1 35  1  0  0  0
  1 36  1  0  0  0
  2  3  1  0  0  0
  2  4  1  0  0  0
  2 15  1  0  0  0
  4  5  2  0  0  0
  4  6  1  0  0  0
  6  7  1  0  0  0
  6 37  1  0  0  0
  7 12  2  0  0  0
  7  8  1  0  0  0
  8  9  2  0  0  0
  8 14  1  0  0  0
  9 10  1  0  0  0
  9 38  1  0  0  0
 10 11  2  0  0  0
 10 39  1  0  0  0
 11 12  1  0  0  0
 11 40  1  0  0  0
 12 13  1  0  0  0
 15 16  1  0  0  0
 16 17  1  0  0  0
 16 21  1  0  0  0
 16 18  1  0  0  0
 18 19  1  0  0  0
 18 41  1  0  0  0
 19 20  2  0  0  0
 20 21  1  0  0  0
 20 25  1  0  0  0
 21 22  1  0  0  0
 22 24  1  0  0  0
 22 23  1  0  0  0
 22 42  1  0  0  0
 23 24  1  0  0  0
 23 43  1  0  0  0
 23 44  1  0  0  0
 24 45  1  0  0  0
 24 46  1  0  0  0
 25 33  1  0  0  0
 25 26  2  0  0  0
 26 31  1  0  0  0
 26 27  1  0  0  0
 27 28  2  0  0  0
 27 47  1  0  0  0
 28 29  1  0  0  0
 28 48  1  0  0  0
 29 30  2  0  0  0
 29 49  1  0  0  0
 30 31  1  0  0  0
 30 50  1  0  0  0
 31 32  2  0  0  0
 32 33  1  0  0  0
 32 53  1  0  0  0
 33 51  1  0  0  0
 33 52  1  0  0  0
M  CHG  1  32   1
M  END
> <i_i_glide_confnum>
102

> <i_i_glide_lignum>
2226

> <i_i_glide_posenum>
282

> <i_i_glide_rotatable_bonds>
7

> <i_m_Source_File_Index>
2136

> <b_m_subgroup_collapsed>
0

> <r_i_docking_score>
-4.45495

> <r_i_glide_ecoul>
-2.33517

> <r_i_glide_eff_state_penalty>
0

> <r_i_glide_einternal>
5.45788

> <r_i_glide_emodel>
-49.4286

> <r_i_glide_energy>
-39.5546

> <r_i_glide_erotb>
0.612342

> <r_i_glide_esite>
-0.161656

> <r_i_glide_evdw>
-37.2194

> <r_i_glide_gscore>
-4.45495

> <r_i_glide_hbond>
-0.112797

> <r_i_glide_ligand_efficiency>
-0.143708

> <r_i_glide_ligand_efficiency_ln>
-1.00473

> <r_i_glide_ligand_efficiency_sa>
-0.451442

> <r_i_glide_lipo>
-1.76898

> <r_i_glide_metal>
0

> <r_i_glide_rewards>
-0.812611

> <s_i_glide_gridfile>
wee1_glide-grid

> <s_m_Source_File>
wee1_decoys_glide_SP.sdf

> <s_m_Source_Path>
/Users/zhangxujun/Desktop

> <s_m_entry_id>
2411

> <s_m_entry_name>
wee1_decoys_glide_SP.2136

> <s_m_subgroup_title>
wee1_decoys_glide_SP

> <s_m_subgroupid>
wee1_decoys_glide_SP


$$$$
