@<TRIPOS>MOLECULE
ZINC49519797_1795
32   33    1
SMALL
USER_CHARGES


@<TRIPOS>ATOM
      1 C1          2.9029   53.9328   26.5556 C.2       1 UNK         0.0000 
      2 C2          3.6839   53.8249   27.7260 C.2       1 UNK         0.0000 
      3 C3          5.0326   54.0968   27.4302 C.2       1 UNK         0.0000 
      4 S4          5.3074   54.4510   25.7533 S.3       1 UNK         0.0000 
      5 C5          3.6272   54.2354   25.4124 C.2       1 UNK         0.0000 
      6 Cl6         3.0268   54.4364   23.8170 Cl        1 UNK         0.0000 
      7 Cl7         6.3931   54.0958   28.4819 Cl        1 UNK         0.0000 
      8 C8          3.1521   53.6133   29.0667 C.2       1 UNK         0.0000 
      9 O9          3.6376   54.2563   30.0030 O.2       1 UNK         0.0000 
     10 N10         2.1025   52.7601   29.2510 N.am      1 UNK         0.0000 
     11 C11         1.4374   52.6802   30.5671 C.3       1 UNK         0.0000 
     12 C12        -0.0667   52.8905   30.3176 C.3       1 UNK         0.0000 
     13 C13        -0.6420   51.8749   29.3181 C.3       1 UNK         0.0000 
     14 C14         0.1846   51.8055   28.0188 C.3       1 UNK         0.0000 
     15 H15         0.0342   52.7523   27.4950 H         1 UNK         0.0000 
     16 C16         1.7041   51.6960   28.3079 C.3       1 UNK         0.0000 
     17 N17        -0.2999   50.7551   27.1288 N.am      1 UNK         0.0000 
     18 C18        -0.1025   50.6999   25.8055 C.2       1 UNK         0.0000 
     19 O19         0.4132   51.5885   25.1315 O.2       1 UNK         0.0000 
     20 N20        -0.5089   49.5463   25.2946 N.am      1 UNK         0.0000 
     21 H21         1.8305   53.8050   26.5286 H         1 UNK         0.0000 
     22 H22         1.6155   51.6949   30.9956 H         1 UNK         0.0000 
     23 H23         1.7964   53.4186   31.2817 H         1 UNK         0.0000 
     24 H24        -0.5952   52.8112   31.2679 H         1 UNK         0.0000 
     25 H25        -0.2410   53.9079   29.9640 H         1 UNK         0.0000 
     26 H26        -0.6350   50.8968   29.8007 H         1 UNK         0.0000 
     27 H27        -1.6866   52.0965   29.0999 H         1 UNK         0.0000 
     28 H28         2.2816   51.6927   27.3863 H         1 UNK         0.0000 
     29 H29         1.9059   50.7323   28.7770 H         1 UNK         0.0000 
     30 H30        -0.6669   49.9207   27.5773 H         1 UNK         0.0000 
     31 H31        -0.8856   48.8290   25.8999 H         1 UNK         0.0000 
     32 H32        -0.3833   49.3720   24.3087 H         1 UNK         0.0000 
@<TRIPOS>BOND
     1    1    5 2    
     2    1    2 1    
     3    1   21 1    
     4    2    3 2    
     5    2    8 1    
     6    3    4 1    
     7    3    7 1    
     8    4    5 1    
     9    5    6 1    
    10    8    9 2    
    11    8   10 am   BACKBONE|DICT|INTERRES
    12   10   16 1    
    13   10   11 1    
    14   11   12 1    
    15   11   22 1    
    16   11   23 1    
    17   12   13 1    
    18   12   24 1    
    19   12   25 1    
    20   13   14 1    
    21   13   26 1    
    22   13   27 1    
    23   14   15 1    
    24   14   16 1    
    25   14   17 1    
    26   16   28 1    
    27   16   29 1    
    28   17   18 am   BACKBONE|DICT|INTERRES
    29   17   30 1    
    30   18   19 2    
    31   18   20 am   BACKBONE|DICT|INTERRES
    32   20   31 1    
    33   20   32 1    
@<TRIPOS>SUBSTRUCTURE
     1 UNK         1 GROUP             0       ****    0 ROOT    
