ZINC64048348_2228
                    3D
 Schrodinger Suite 2024-2.
 59 63  0  0  1  0            999 V2000
    3.1082   56.9338   16.4886 C   0  0  0  0  0  0
    4.0559   58.0342   16.5817 C   0  0  0  0  0  0
    5.2171   57.9264   17.2826 C   0  0  0  0  0  0
    5.5303   56.7325   17.9527 C   0  0  0  0  0  0
    6.5889   56.4297   18.6666 N   0  3  0  0  0  0
    6.4841   55.0457   19.1605 C   0  0  0  0  0  0
    5.1608   54.5953   18.5694 C   0  0  0  0  0  0
    4.6527   55.6434   17.8914 C   0  0  0  0  0  0
    3.4065   55.7807   17.1217 C   0  0  0  0  0  0
    4.6600   53.1645   18.7068 C   0  0  0  0  0  0
    4.2437   52.8135   20.1411 C   0  0  0  0  0  0
    5.1031   52.7541   21.0253 O   0  0  0  0  0  0
    2.9335   52.5543   20.3197 N   0  0  0  0  0  0
    2.3034   52.2709   21.5233 C   0  0  0  0  0  0
    2.3788   52.8489   22.8147 C   0  0  0  0  0  0
    1.4748   52.1950   23.7134 C   0  0  0  0  0  0
    0.7914   51.1301   23.1028 C   0  0  0  0  0  0
    1.1854   50.9576   21.4340 S   0  0  0  0  0  0
   -0.2629   50.2513   23.7659 C   0  0  0  0  0  0
   -0.2214   50.4530   25.2932 C   0  0  0  0  0  0
   -0.1500   51.9423   25.6601 C   0  0  0  0  0  0
    1.1642   52.5912   25.1681 C   0  0  0  0  0  0
    3.1880   54.0121   23.1519 C   0  0  0  0  0  0
    3.5046   54.8637   22.3220 O   0  0  0  0  0  0
    3.6468   54.0135   24.4118 N   0  0  0  0  0  0
    4.6833   54.8812   24.9650 C   0  0  0  0  0  0
    5.6152   54.0672   25.8750 C   0  0  2  0  0  0
    6.1181   53.3012   25.2845 H   0  0  0  0  0  0
    4.9345   53.4194   27.0824 C   0  0  0  0  0  0
    6.0918   53.2548   28.0206 C   0  0  0  0  0  0
    6.8022   54.5750   27.8273 C   0  0  0  0  0  0
    6.6005   54.9231   26.4575 O   0  0  0  0  0  0
    2.1900   57.0424   15.9258 H   0  0  0  0  0  0
    3.8315   58.9691   16.0849 H   0  0  0  0  0  0
    5.8758   58.7832   17.3149 H   0  0  0  0  0  0
    7.3451   54.4804   18.8007 H   0  0  0  0  0  0
    6.4787   55.0699   20.2532 H   0  0  0  0  0  0
    2.6963   54.9699   17.0554 H   0  0  0  0  0  0
    3.8433   52.9894   18.0072 H   0  0  0  0  0  0
    5.4639   52.4974   18.4016 H   0  0  0  0  0  0
    2.4028   52.3466   19.4878 H   0  0  0  0  0  0
   -1.2537   50.5252   23.3980 H   0  0  0  0  0  0
   -0.1111   49.1985   23.5234 H   0  0  0  0  0  0
   -1.0962   49.9903   25.7519 H   0  0  0  0  0  0
    0.6426   49.9298   25.7143 H   0  0  0  0  0  0
   -1.0060   52.4643   25.2335 H   0  0  0  0  0  0
   -0.2377   52.0625   26.7428 H   0  0  0  0  0  0
    1.9737   52.2624   25.8176 H   0  0  0  0  0  0
    1.0957   53.6744   25.2843 H   0  0  0  0  0  0
    3.2396   53.3495   25.0531 H   0  0  0  0  0  0
    5.2892   55.3109   24.1679 H   0  0  0  0  0  0
    4.2123   55.6940   25.5232 H   0  0  0  0  0  0
    4.1719   54.0798   27.4961 H   0  0  0  0  0  0
    4.4086   52.4990   26.8499 H   0  0  0  0  0  0
    5.7822   53.0704   29.0472 H   0  0  0  0  0  0
    6.7500   52.4569   27.6987 H   0  0  0  0  0  0
    6.3044   55.3030   28.4654 H   0  0  0  0  0  0
    7.8610   54.4960   28.0789 H   0  0  0  0  0  0
    7.3770   57.0452   18.8439 H   0  0  0  0  0  0
  1  9  2  0  0  0
  1  2  1  0  0  0
  1 33  1  0  0  0
  2  3  2  0  0  0
  2 34  1  0  0  0
  3  4  1  0  0  0
  3 35  1  0  0  0
  4  8  1  0  0  0
  4  5  2  0  0  0
  5  6  1  0  0  0
  5 59  1  0  0  0
  6  7  1  0  0  0
  6 36  1  0  0  0
  6 37  1  0  0  0
  7  8  2  0  0  0
  7 10  1  0  0  0
  8  9  1  0  0  0
  9 38  1  0  0  0
 10 11  1  0  0  0
 10 39  1  0  0  0
 10 40  1  0  0  0
 11 12  2  0  0  0
 11 13  1  0  0  0
 13 14  1  0  0  0
 13 41  1  0  0  0
 14 18  1  0  0  0
 14 15  2  0  0  0
 15 16  1  0  0  0
 15 23  1  0  0  0
 16 22  1  0  0  0
 16 17  2  0  0  0
 17 18  1  0  0  0
 17 19  1  0  0  0
 19 20  1  0  0  0
 19 42  1  0  0  0
 19 43  1  0  0  0
 20 21  1  0  0  0
 20 44  1  0  0  0
 20 45  1  0  0  0
 21 22  1  0  0  0
 21 46  1  0  0  0
 21 47  1  0  0  0
 22 48  1  0  0  0
 22 49  1  0  0  0
 23 24  2  0  0  0
 23 25  1  0  0  0
 25 26  1  0  0  0
 25 50  1  0  0  0
 26 27  1  0  0  0
 26 51  1  0  0  0
 26 52  1  0  0  0
 27 28  1  0  0  0
 27 32  1  0  0  0
 27 29  1  0  0  0
 29 30  1  0  0  0
 29 53  1  0  0  0
 29 54  1  0  0  0
 30 31  1  0  0  0
 30 55  1  0  0  0
 30 56  1  0  0  0
 31 32  1  0  0  0
 31 57  1  0  0  0
 31 58  1  0  0  0
M  CHG  1   5   1
M  END
> <i_i_glide_confnum>
353

> <i_i_glide_lignum>
2229

> <i_i_glide_posenum>
65

> <i_i_glide_rotatable_bonds>
8

> <i_m_Source_File_Index>
4901

> <b_m_subgroup_collapsed>
0

> <r_i_docking_score>
-5.12502

> <r_i_glide_ecoul>
-6.83059

> <r_i_glide_eff_state_penalty>
0

> <r_i_glide_einternal>
15.0508

> <r_i_glide_emodel>
-50.868

> <r_i_glide_energy>
-42.323

> <r_i_glide_erotb>
0.622369

> <r_i_glide_esite>
-0.0414092

> <r_i_glide_evdw>
-35.4924

> <r_i_glide_gscore>
-5.12502

> <r_i_glide_hbond>
-0.173278

> <r_i_glide_ligand_efficiency>
-0.165323

> <r_i_glide_ligand_efficiency_ln>
-1.15585

> <r_i_glide_ligand_efficiency_sa>
-0.519344

> <r_i_glide_lipo>
-1.91362

> <r_i_glide_metal>
0

> <r_i_glide_rewards>
-0.819881

> <s_i_glide_gridfile>
wee1_glide-grid

> <s_m_Source_File>
wee1_decoys_glide_SP.sdf

> <s_m_Source_Path>
/Users/zhangxujun/Desktop

> <s_m_entry_id>
5176

> <s_m_entry_name>
wee1_decoys_glide_SP.4901

> <s_m_subgroup_title>
wee1_decoys_glide_SP

> <s_m_subgroupid>
wee1_decoys_glide_SP


$$$$
