@<TRIPOS>MOLECULE
ZINC63303182_141
56   59    1
SMALL
USER_CHARGES


@<TRIPOS>ATOM
      1 C1          5.3676   54.6446   26.8644 C.3       1 UNK         0.0000 
      2 O2          6.1288   55.0710   25.7359 O.3       1 UNK         0.0000 
      3 C3          5.7115   54.7271   24.4834 C.2       1 UNK         0.0000 
      4 C4          6.5942   55.0439   23.3687 C.2       1 UNK         0.0000 
      5 C5          6.3046   54.7187   22.0823 C.2       1 UNK         0.0000 
      6 C6          5.1351   54.0200   21.7751 C.2       1 UNK         0.0000 
      7 N7          4.7086   53.5696   20.6184 N.pl3     1 UNK         0.0000 
      8 C8          3.4340   52.8582   20.7951 C.3       1 UNK         0.0000 
      9 C9          3.1615   53.0712   22.2707 C.2       1 UNK         0.0000 
     10 C10         4.2279   53.7128   22.7879 C.2       1 UNK         0.0000 
     11 C11         4.5475   54.0967   24.1734 C.2       1 UNK         0.0000 
     12 C12         1.8754   52.6109   22.9268 C.3       1 UNK         0.0000 
     13 C13         1.7863   51.0884   23.1440 C.3       1 UNK         0.0000 
     14 N14         0.5882   50.6502   23.8594 N.am      1 UNK         0.0000 
     15 C15         0.2208   50.9924   25.1090 C.2       1 UNK         0.0000 
     16 O16         0.8521   51.7920   25.7997 O.2       1 UNK         0.0000 
     17 C17        -1.0430   50.3472   25.6950 C.3       1 UNK         0.0000 
     18 S18        -2.0543   49.3756   24.5241 S.3       1 UNK         0.0000 
     19 C19        -3.2363   48.5382   25.6389 C.3       1 UNK         0.0000 
     20 H20        -3.0721   48.9689   26.6279 H         1 UNK         0.0000 
     21 C21        -4.7173   48.8319   25.2773 C.3       1 UNK         0.0000 
     22 C22        -5.4271   47.8535   24.3073 C.3       1 UNK         0.0000 
     23 C23        -4.5647   47.3188   23.1650 C.ar      1 UNK         0.0000 
     24 C24        -4.9068   47.6031   21.8362 C.ar      1 UNK         0.0000 
     25 C25        -4.1112   47.1646   20.7831 C.ar      1 UNK         0.0000 
     26 C26        -2.9569   46.4394   21.0474 C.ar      1 UNK         0.0000 
     27 C27        -2.6097   46.1507   22.3644 C.ar      1 UNK         0.0000 
     28 C28        -3.3849   46.5799   23.4500 C.ar      1 UNK         0.0000 
     29 N29        -2.9938   46.1906   24.7475 N.2       1 UNK         0.0000 
     30 C30        -2.8969   47.0425   25.6978 C.2       1 UNK         0.0000 
     31 O31        -2.4942   46.4933   26.8817 O.3       1 UNK         0.0000 
     32 H32         5.8635   54.9741   27.7787 H         1 UNK         0.0000 
     33 H33         4.3659   55.0769   26.8635 H         1 UNK         0.0000 
     34 H34         5.2899   53.5555   26.9069 H         1 UNK         0.0000 
     35 H35         7.5037   55.5828   23.5806 H         1 UNK         0.0000 
     36 H36         7.0078   54.9978   21.3102 H         1 UNK         0.0000 
     37 H37         3.5909   51.8136   20.5218 H         1 UNK         0.0000 
     38 H38         2.7043   53.2965   20.1197 H         1 UNK         0.0000 
     39 H39         3.8639   53.8369   24.9680 H         1 UNK         0.0000 
     40 H40         1.0385   52.9567   22.3184 H         1 UNK         0.0000 
     41 H41         1.7959   53.1330   23.8791 H         1 UNK         0.0000 
     42 H42         2.6673   50.7110   23.6678 H         1 UNK         0.0000 
     43 H43         1.8062   50.5815   22.1777 H         1 UNK         0.0000 
     44 H44        -0.0082   49.9876   23.3830 H         1 UNK         0.0000 
     45 H45        -1.6644   51.1191   26.1481 H         1 UNK         0.0000 
     46 H46        -0.7233   49.6935   26.5059 H         1 UNK         0.0000 
     47 H47        -5.3042   48.8582   26.1980 H         1 UNK         0.0000 
     48 H48        -4.7901   49.8464   24.8806 H         1 UNK         0.0000 
     49 H49        -6.3230   48.3348   23.9104 H         1 UNK         0.0000 
     50 H50        -5.8039   46.9894   24.8569 H         1 UNK         0.0000 
     51 H51        -5.7951   48.1779   21.6161 H         1 UNK         0.0000 
     52 H52        -4.3854   47.3943   19.7627 H         1 UNK         0.0000 
     53 H53        -2.3287   46.1034   20.2354 H         1 UNK         0.0000 
     54 H54        -1.7008   45.5987   22.5515 H         1 UNK         0.0000 
     55 H55        -2.1442   47.1847   27.4797 H         1 UNK         0.0000 
     56 H56         5.1865   53.6635   19.7255 H         1 UNK         0.0000 
@<TRIPOS>BOND
     1    1    2 1    
     2    1   32 1    
     3    1   33 1    
     4    1   34 1    
     5    2    3 1    
     6    3   11 2    
     7    3    4 1    
     8    4    5 2    
     9    4   35 1    
    10    5    6 1    
    11    5   36 1    
    12    6   10 1    
    13    6    7 2    
    14    7    8 1    
    15    7   56 1    
    16    8    9 1    
    17    8   37 1    
    18    8   38 1    
    19    9   10 2    
    20    9   12 1    
    21   10   11 1    
    22   11   39 1    
    23   12   13 1    
    24   12   40 1    
    25   12   41 1    
    26   13   14 1    
    27   13   42 1    
    28   13   43 1    
    29   14   15 am   BACKBONE|DICT|INTERRES
    30   14   44 1    
    31   15   16 2    
    32   15   17 1    
    33   17   18 1    
    34   17   45 1    
    35   17   46 1    
    36   18   19 1    
    37   19   20 1    
    38   19   30 1    
    39   19   21 1    
    40   21   22 1    
    41   21   47 1    
    42   21   48 1    
    43   22   23 1    
    44   22   49 1    
    45   22   50 1    
    46   23   28 ar   
    47   23   24 ar   
    48   24   25 ar   
    49   24   51 1    
    50   25   26 ar   
    51   25   52 1    
    52   26   27 ar   
    53   26   53 1    
    54   27   28 ar   
    55   27   54 1    
    56   28   29 1    
    57   29   30 2    
    58   30   31 1    
    59   31   55 1    
@<TRIPOS>SUBSTRUCTURE
     1 UNK         1 GROUP             0       ****    0 ROOT    
