@<TRIPOS>MOLECULE
ZINC63752908_198
62   65    1
SMALL
USER_CHARGES


@<TRIPOS>ATOM
      1 C1          5.9361   54.3805   22.6484 C.3       1 UNK         0.0000 
      2 C2          5.6947   54.4481   24.1391 C.ar      1 UNK         0.0000 
      3 C3          6.7744   54.6611   24.9952 C.ar      1 UNK         0.0000 
      4 C4          6.5914   54.6854   26.3753 C.ar      1 UNK         0.0000 
      5 C5          5.3199   54.4968   26.9045 C.ar      1 UNK         0.0000 
      6 C6          4.2229   54.2668   26.0613 C.ar      1 UNK         0.0000 
      7 C7          4.4174   54.2524   24.6682 C.ar      1 UNK         0.0000 
      8 C8          2.8737   54.0381   26.6726 C.2       1 UNK         0.0000 
      9 O9          2.5579   54.6545   27.6935 O.2       1 UNK         0.0000 
     10 N10         2.0910   53.1308   26.0495 N.am      1 UNK         0.0000 
     11 C11         0.9112   52.6367   26.5281 C.2       1 UNK         0.0000 
     12 C12         0.4757   52.3742   27.7771 C.2       1 UNK         0.0000 
     13 C13         1.1193   52.4897   29.0949 C.2       1 UNK         0.0000 
     14 C14         0.4695   52.1770   30.2349 C.2       1 UNK         0.0000 
     15 C15        -0.8949   51.6957   30.0817 C.2       1 UNK         0.0000 
     16 C16        -1.5118   51.5753   28.8793 C.2       1 UNK         0.0000 
     17 C17        -0.8442   51.9279   27.7085 C.2       1 UNK         0.0000 
     18 N18        -1.2719   51.9018   26.4655 N.pl3     1 UNK         0.0000 
     19 C19        -0.1720   52.2477   25.5342 C.3       1 UNK         0.0000 
     20 H20        -0.5119   53.0654   24.8965 H         1 UNK         0.0000 
     21 C21         0.1603   51.0295   24.6489 C.2       1 UNK         0.0000 
     22 O22         0.3193   51.1909   23.4399 O.2       1 UNK         0.0000 
     23 N23         0.2422   49.8318   25.2565 N.am      1 UNK         0.0000 
     24 C24         0.4221   48.5517   24.5866 C.3       1 UNK         0.0000 
     25 C25        -0.8964   47.8940   24.1998 C.ar      1 UNK         0.0000 
     26 C26        -1.3260   47.8937   22.8727 C.ar      1 UNK         0.0000 
     27 C27        -2.4830   47.2049   22.5126 C.ar      1 UNK         0.0000 
     28 C28        -3.2230   46.4919   23.4735 C.ar      1 UNK         0.0000 
     29 C29        -2.8003   46.4988   24.8122 C.ar      1 UNK         0.0000 
     30 C30        -1.6434   47.2134   25.1627 C.ar      1 UNK         0.0000 
     31 O31        -3.5462   45.7670   25.7207 O.3       1 UNK         0.0000 
     32 C32        -3.2348   45.8610   27.1084 C.3       1 UNK         0.0000 
     33 O33        -4.3563   45.7554   23.1777 O.3       1 UNK         0.0000 
     34 C34        -4.8783   45.7731   21.8544 C.3       1 UNK         0.0000 
     35 C35         1.1259   52.3200   31.5926 C.3       1 UNK         0.0000 
     36 H36         6.2281   55.3544   22.2537 H         1 UNK         0.0000 
     37 H37         6.7644   53.6967   22.4814 H         1 UNK         0.0000 
     38 H38         5.0704   54.0043   22.1006 H         1 UNK         0.0000 
     39 H39         7.7655   54.7885   24.5876 H         1 UNK         0.0000 
     40 H40         7.4285   54.8298   27.0443 H         1 UNK         0.0000 
     41 H41         5.1958   54.5118   27.9783 H         1 UNK         0.0000 
     42 H42         3.5905   54.0835   23.9923 H         1 UNK         0.0000 
     43 H43         2.4058   52.7730   25.1596 H         1 UNK         0.0000 
     44 H44         2.1423   52.8191   29.1942 H         1 UNK         0.0000 
     45 H45        -1.4258   51.3340   30.9464 H         1 UNK         0.0000 
     46 H46        -2.5028   51.1512   28.8450 H         1 UNK         0.0000 
     47 H47         0.0392   49.7832   26.2466 H         1 UNK         0.0000 
     48 H48         0.9420   47.8929   25.2815 H         1 UNK         0.0000 
     49 H49         1.0720   48.6464   23.7117 H         1 UNK         0.0000 
     50 H50        -0.7578   48.4161   22.1160 H         1 UNK         0.0000 
     51 H51        -2.7814   47.2226   21.4754 H         1 UNK         0.0000 
     52 H52        -1.2951   47.2283   26.1870 H         1 UNK         0.0000 
     53 H53        -3.9562   45.2825   27.6832 H         1 UNK         0.0000 
     54 H54        -2.2424   45.4627   27.3226 H         1 UNK         0.0000 
     55 H55        -3.2944   46.8912   27.4627 H         1 UNK         0.0000 
     56 H56        -5.7876   45.1707   21.8206 H         1 UNK         0.0000 
     57 H57        -4.1742   45.3477   21.1373 H         1 UNK         0.0000 
     58 H58        -5.1429   46.7851   21.5430 H         1 UNK         0.0000 
     59 H59         1.4850   53.3375   31.6934 H         1 UNK         0.0000 
     60 H60         0.4512   52.1121   32.4223 H         1 UNK         0.0000 
     61 H61         2.0090   51.6895   31.6666 H         1 UNK         0.0000 
     62 H62        -2.1971   51.5999   26.1703 H         1 UNK         0.0000 
@<TRIPOS>BOND
     1    1    2 1    
     2    1   36 1    
     3    1   37 1    
     4    1   38 1    
     5    2    7 ar   
     6    2    3 ar   
     7    3    4 ar   
     8    3   39 1    
     9    4    5 ar   
    10    4   40 1    
    11    5    6 ar   
    12    5   41 1    
    13    6    7 ar   
    14    6    8 1    
    15    7   42 1    
    16    8    9 2    
    17    8   10 am   BACKBONE|DICT|INTERRES
    18   10   11 1    
    19   10   43 1    
    20   11   19 1    
    21   11   12 2    
    22   12   17 1    
    23   12   13 1    
    24   13   14 2    
    25   13   44 1    
    26   14   15 1    
    27   14   35 1    
    28   15   16 2    
    29   15   45 1    
    30   16   17 1    
    31   16   46 1    
    32   17   18 2    
    33   18   19 1    
    34   18   62 1    
    35   19   20 1    
    36   19   21 1    
    37   21   22 2    
    38   21   23 am   BACKBONE|DICT|INTERRES
    39   23   24 1    
    40   23   47 1    
    41   24   25 1    
    42   24   48 1    
    43   24   49 1    
    44   25   30 ar   
    45   25   26 ar   
    46   26   27 ar   
    47   26   50 1    
    48   27   28 ar   
    49   27   51 1    
    50   28   29 ar   
    51   28   33 1    
    52   29   30 ar   
    53   29   31 1    
    54   30   52 1    
    55   31   32 1    
    56   32   53 1    
    57   32   54 1    
    58   32   55 1    
    59   33   34 1    
    60   34   56 1    
    61   34   57 1    
    62   34   58 1    
    63   35   59 1    
    64   35   60 1    
    65   35   61 1    
@<TRIPOS>SUBSTRUCTURE
     1 UNK         1 GROUP             0       ****    0 ROOT    
