ZINC44784440_1851
                    3D
 Schrodinger Suite 2024-2.
 44 45  0  0  1  0            999 V2000
    5.0177   54.0749   27.7397 C   0  0  0  0  0  0
    3.5345   54.0929   28.0629 C   0  0  0  0  0  0
    3.0415   54.9176   29.0770 C   0  0  0  0  0  0
    1.6765   54.9355   29.3756 C   0  0  0  0  0  0
    0.8068   54.0971   28.6737 C   0  0  0  0  0  0
    1.2813   53.2934   27.6345 C   0  0  0  0  0  0
    2.6508   53.2962   27.3325 C   0  0  0  0  0  0
    0.3436   52.4876   26.9699 N   0  0  0  0  0  0
    0.3416   52.0947   25.6729 C   0  0  0  0  0  0
    1.1959   52.4675   24.8647 O   0  0  0  0  0  0
   -0.8024   51.1137   25.2085 C   0  0  0  0  0  0
   -2.0715   51.1994   26.1408 C   0  0  0  0  0  0
   -2.8435   52.5372   26.0585 C   0  0  0  0  0  0
   -3.2216   52.9037   24.6137 C   0  0  0  0  0  0
   -1.9988   52.8838   23.6812 C   0  0  0  0  0  0
   -1.2515   51.5338   23.7533 C   0  0  0  0  0  0
   -0.2626   49.6386   25.2664 C   0  0  0  0  0  0
   -0.4253   48.8810   24.2508 N   0  0  0  0  0  0
   -0.1015   47.5262   24.4816 O   0  0  0  0  0  0
    0.3044   49.2967   26.4817 N   0  0  0  0  0  0
    1.1343   55.8557   30.4554 C   0  0  0  0  0  0
    5.5218   54.9784   28.0911 H   0  0  0  0  0  0
    5.4957   53.2020   28.1878 H   0  0  0  0  0  0
    5.1708   54.0235   26.6598 H   0  0  0  0  0  0
    3.7213   55.5514   29.6266 H   0  0  0  0  0  0
   -0.2455   54.0962   28.9169 H   0  0  0  0  0  0
    3.0405   52.6620   26.5501 H   0  0  0  0  0  0
   -0.4673   52.2377   27.5131 H   0  0  0  0  0  0
   -1.8320   50.9806   27.1831 H   0  0  0  0  0  0
   -2.7703   50.4082   25.8579 H   0  0  0  0  0  0
   -2.2414   53.3385   26.4829 H   0  0  0  0  0  0
   -3.7435   52.4822   26.6736 H   0  0  0  0  0  0
   -3.6947   53.8867   24.5901 H   0  0  0  0  0  0
   -3.9702   52.1989   24.2461 H   0  0  0  0  0  0
   -1.3193   53.6965   23.9436 H   0  0  0  0  0  0
   -2.3152   53.0723   22.6554 H   0  0  0  0  0  0
   -1.9312   50.7820   23.3463 H   0  0  0  0  0  0
   -0.4029   51.5448   23.0657 H   0  0  0  0  0  0
    0.1103   47.5071   25.4217 H   0  0  0  0  0  0
    0.6757   48.3709   26.6481 H   0  0  0  0  0  0
   -0.0146   49.7858   27.3067 H   0  0  0  0  0  0
    1.9044   56.1700   31.1573 H   0  0  0  0  0  0
    0.7043   56.7501   30.0055 H   0  0  0  0  0  0
    0.3614   55.3499   31.0350 H   0  0  0  0  0  0
  1  2  1  0  0  0
  1 22  1  0  0  0
  1 23  1  0  0  0
  1 24  1  0  0  0
  2  7  2  0  0  0
  2  3  1  0  0  0
  3  4  2  0  0  0
  3 25  1  0  0  0
  4  5  1  0  0  0
  4 21  1  0  0  0
  5  6  2  0  0  0
  5 26  1  0  0  0
  6  7  1  0  0  0
  6  8  1  0  0  0
  7 27  1  0  0  0
  8  9  1  0  0  0
  8 28  1  0  0  0
  9 10  2  0  0  0
  9 11  1  0  0  0
 11 16  1  0  0  0
 11 12  1  0  0  0
 11 17  1  0  0  0
 12 13  1  0  0  0
 12 29  1  0  0  0
 12 30  1  0  0  0
 13 14  1  0  0  0
 13 31  1  0  0  0
 13 32  1  0  0  0
 14 15  1  0  0  0
 14 33  1  0  0  0
 14 34  1  0  0  0
 15 16  1  0  0  0
 15 35  1  0  0  0
 15 36  1  0  0  0
 16 37  1  0  0  0
 16 38  1  0  0  0
 17 18  2  0  0  0
 17 20  1  0  0  0
 18 19  1  0  0  0
 19 39  1  0  0  0
 20 40  1  0  0  0
 20 41  1  0  0  0
 21 42  1  0  0  0
 21 43  1  0  0  0
 21 44  1  0  0  0
M  END
> <i_i_glide_confnum>
72

> <i_i_glide_lignum>
1852

> <i_i_glide_posenum>
194

> <i_i_glide_rotatable_bonds>
5

> <i_m_Source_File_Index>
2716

> <b_m_subgroup_collapsed>
0

> <r_i_docking_score>
-5.668

> <r_i_glide_ecoul>
-6.48471

> <r_i_glide_eff_state_penalty>
0

> <r_i_glide_einternal>
5.02536

> <r_i_glide_emodel>
-45.0047

> <r_i_glide_energy>
-34.913

> <r_i_glide_erotb>
1.08721

> <r_i_glide_esite>
-0.197251

> <r_i_glide_evdw>
-28.4283

> <r_i_glide_gscore>
-5.668

> <r_i_glide_hbond>
-0.541077

> <r_i_glide_ligand_efficiency>
-0.269905

> <r_i_glide_ligand_efficiency_ln>
-1.4014

> <r_i_glide_ligand_efficiency_sa>
-0.744647

> <r_i_glide_lipo>
-2.16151

> <r_i_glide_metal>
0

> <r_i_glide_rewards>
-1.46126

> <s_i_glide_gridfile>
wee1_glide-grid

> <s_m_Source_File>
wee1_decoys_glide_SP.sdf

> <s_m_Source_Path>
/Users/zhangxujun/Desktop

> <s_m_entry_id>
2991

> <s_m_entry_name>
wee1_decoys_glide_SP.2716

> <s_m_subgroup_title>
wee1_decoys_glide_SP

> <s_m_subgroupid>
wee1_decoys_glide_SP


$$$$
