@<TRIPOS>MOLECULE
ZINC39510498_1738
40   42    1
SMALL
USER_CHARGES


@<TRIPOS>ATOM
      1 C1          0.6153   50.8774   24.2441 C.ar      1 UNK         0.0000 
      2 C2         -0.3888   49.9179   24.1688 C.ar      1 UNK         0.0000 
      3 C3         -1.3170   49.8097   25.2000 C.ar      1 UNK         0.0000 
      4 C4         -1.2381   50.6484   26.3122 C.ar      1 UNK         0.0000 
      5 C5         -0.2014   51.5967   26.4288 C.ar      1 UNK         0.0000 
      6 C6          0.7037   51.7116   25.3581 C.ar      1 UNK         0.0000 
      7 C7         -0.0942   52.4967   27.6819 C.3       1 UNK         0.0000 
      8 H8         -0.9964   53.1073   27.6803 H         1 UNK         0.0000 
      9 C9         -0.1273   51.7768   29.0404 C.3       1 UNK         0.0000 
     10 C10         0.5003   52.7369   30.0406 C.3       1 UNK         0.0000 
     11 C11         1.6910   53.3605   29.2732 C.3       1 UNK         0.0000 
     12 C12         1.1044   53.4756   27.8256 C.3       1 UNK         0.0000 
     13 C13         2.9537   52.4013   29.2958 C.3       1 UNK         0.0000 
     14 H14         2.7176   51.4690   28.7808 H         1 UNK         0.0000 
     15 C15         4.2158   53.0007   28.6323 C.3       1 UNK         0.0000 
     16 C16         4.4504   54.4504   29.0845 C.3       1 UNK         0.0000 
     17 C17         3.1688   55.2967   29.0520 C.3       1 UNK         0.0000 
     18 N18         2.0936   54.6752   29.8202 N.3       1 UNK         0.0000 
     19 O19         1.1045   55.5961   30.0778 O.3       1 UNK         0.0000 
     20 O20         3.2951   52.0250   30.6224 O.3       1 UNK         0.0000 
     21 O21        -2.1942   50.4967   27.2811 O.3       1 UNK         0.0000 
     22 H22         1.3299   50.9732   23.4397 H         1 UNK         0.0000 
     23 H23        -0.4531   49.2660   23.3103 H         1 UNK         0.0000 
     24 H24        -2.1036   49.0723   25.1360 H         1 UNK         0.0000 
     25 H25         1.4967   52.4390   25.3494 H         1 UNK         0.0000 
     26 H26        -1.1122   51.4156   29.3367 H         1 UNK         0.0000 
     27 H27         0.5000   50.8949   28.9759 H         1 UNK         0.0000 
     28 H28         0.7811   52.2430   30.9714 H         1 UNK         0.0000 
     29 H29        -0.2486   53.4829   30.3092 H         1 UNK         0.0000 
     30 H30         0.7289   54.4899   27.6827 H         1 UNK         0.0000 
     31 H31         1.9160   53.3147   27.1264 H         1 UNK         0.0000 
     32 H32         4.0655   53.0494   27.5537 H         1 UNK         0.0000 
     33 H33         5.1056   52.3941   28.8137 H         1 UNK         0.0000 
     34 H34         5.2004   54.9088   28.4384 H         1 UNK         0.0000 
     35 H35         4.8833   54.4968   30.0817 H         1 UNK         0.0000 
     36 H36         2.8481   55.4757   28.0252 H         1 UNK         0.0000 
     37 H37         3.3785   56.2740   29.4842 H         1 UNK         0.0000 
     38 H38         1.1088   55.6192   31.0389 H         1 UNK         0.0000 
     39 H39         3.9828   52.6191   30.9310 H         1 UNK         0.0000 
     40 H40        -2.0928   49.6111   27.6974 H         1 UNK         0.0000 
@<TRIPOS>BOND
     1    1    6 ar   
     2    1    2 ar   
     3    1   22 1    
     4    2    3 ar   
     5    2   23 1    
     6    3    4 ar   
     7    3   24 1    
     8    4    5 ar   
     9    4   21 1    
    10    5    6 ar   
    11    5    7 1    
    12    6   25 1    
    13    7    8 1    
    14    7   12 1    
    15    7    9 1    
    16    9   10 1    
    17    9   26 1    
    18    9   27 1    
    19   10   11 1    
    20   10   28 1    
    21   10   29 1    
    22   11   18 1    
    23   11   12 1    
    24   11   13 1    
    25   12   30 1    
    26   12   31 1    
    27   13   14 1    
    28   13   15 1    
    29   13   20 1    
    30   15   16 1    
    31   15   32 1    
    32   15   33 1    
    33   16   17 1    
    34   16   34 1    
    35   16   35 1    
    36   17   18 1    
    37   17   36 1    
    38   17   37 1    
    39   18   19 1    
    40   19   38 1    
    41   20   39 1    
    42   21   40 1    
@<TRIPOS>SUBSTRUCTURE
     1 UNK         1 GROUP             0       ****    0 ROOT    
