@<TRIPOS>MOLECULE
ZINC12347065_3639
67   71    1
SMALL
USER_CHARGES


@<TRIPOS>ATOM
      1 C1          3.4488   58.7944   14.3207 C.3       1 UNK         0.0000 
      2 C2          2.1822   57.9533   14.5603 C.3       1 UNK         0.0000 
      3 N3          1.9429   57.6977   16.0725 N.4       1 UNK         0.0000 
      4 C4          0.5206   57.1410   16.3508 C.3       1 UNK         0.0000 
      5 C5         -0.5857   58.1648   16.0332 C.3       1 UNK         0.0000 
      6 C6          3.0446   56.9262   16.7302 C.ar      1 UNK         0.0000 
      7 C7          4.0963   57.6563   17.2772 C.ar      1 UNK         0.0000 
      8 C8          5.1280   56.9737   17.9145 C.ar      1 UNK         0.0000 
      9 C9          5.1082   55.5765   17.9993 C.ar      1 UNK         0.0000 
     10 C10         4.0420   54.8598   17.4434 C.ar      1 UNK         0.0000 
     11 C11         3.0052   55.5313   16.7990 C.ar      1 UNK         0.0000 
     12 C12         6.2926   54.8418   18.6521 C.3       1 UNK         0.0000 
     13 H13         6.0994   53.7847   18.4612 H         1 UNK         0.0000 
     14 C14         6.3842   55.0952   20.1732 C.ar      1 UNK         0.0000 
     15 C15         7.4766   55.6214   20.7197 C.ar      1 UNK         0.0000 
     16 N16         7.4207   55.5733   22.0812 N.pl3     1 UNK         0.0000 
     17 H17         8.1364   55.1608   22.6678 H         1 UNK         0.0000 
     18 N18         6.2382   54.8935   22.3973 N.pl3     1 UNK         0.0000 
     19 C19         5.5410   54.6192   21.2519 C.ar      1 UNK         0.0000 
     20 O20         4.4318   54.1047   21.1303 O.2       1 UNK         0.0000 
     21 C21         5.8563   54.6891   23.7661 C.ar      1 UNK         0.0000 
     22 C22         4.6252   54.1011   24.1172 C.ar      1 UNK         0.0000 
     23 C23         4.2436   53.9821   25.4509 C.ar      1 UNK         0.0000 
     24 C24         5.1025   54.3996   26.4604 C.ar      1 UNK         0.0000 
     25 C25         6.3317   54.9644   26.1436 C.ar      1 UNK         0.0000 
     26 C26         6.6965   55.1219   24.8095 C.ar      1 UNK         0.0000 
     27 N27         8.6001   55.9576   20.0169 N.pl3     1 UNK         0.0000 
     28 C28         8.7145   55.6955   18.6677 C.2       1 UNK         0.0000 
     29 C29         7.6578   55.1842   17.9656 C.2       1 UNK         0.0000 
     30 C30         7.7770   54.9411   16.5085 C.2       1 UNK         0.0000 
     31 O31         6.9695   54.2461   15.8935 O.2       1 UNK         0.0000 
     32 C32         9.0700   55.4197   15.8184 C.3       1 UNK         0.0000 
     33 C33         9.7742   56.6016   16.5373 C.3       1 UNK         0.0000 
     34 C34        10.0176   56.1548   18.0082 C.3       1 UNK         0.0000 
     35 C35        11.1462   56.8070   15.8643 C.3       1 UNK         0.0000 
     36 C36         8.8997   57.8834   16.4793 C.3       1 UNK         0.0000 
     37 H37         3.5510   59.0520   13.2671 H         1 UNK         0.0000 
     38 H38         4.3544   58.2567   14.6049 H         1 UNK         0.0000 
     39 H39         3.4257   59.7308   14.8836 H         1 UNK         0.0000 
     40 H40         1.3115   58.4839   14.1812 H         1 UNK         0.0000 
     41 H41         2.2359   56.9690   14.0895 H         1 UNK         0.0000 
     42 H42         0.4166   56.2188   15.7759 H         1 UNK         0.0000 
     43 H43         0.5216   56.9019   17.4175 H         1 UNK         0.0000 
     44 H44        -1.5429   57.8223   16.4268 H         1 UNK         0.0000 
     45 H45        -0.3904   59.1412   16.4760 H         1 UNK         0.0000 
     46 H46        -0.7295   58.3079   14.9613 H         1 UNK         0.0000 
     47 H47         4.1234   58.7367   17.2184 H         1 UNK         0.0000 
     48 H48         5.9482   57.5299   18.3403 H         1 UNK         0.0000 
     49 H49         4.0240   53.7796   17.4892 H         1 UNK         0.0000 
     50 H50         2.1989   54.9576   16.3626 H         1 UNK         0.0000 
     51 H51         3.9241   53.7467   23.3787 H         1 UNK         0.0000 
     52 H52         3.2884   53.5406   25.7035 H         1 UNK         0.0000 
     53 H53         4.8123   54.2898   27.4944 H         1 UNK         0.0000 
     54 H54         6.9814   55.2962   26.9404 H         1 UNK         0.0000 
     55 H55         7.6350   55.6061   24.5995 H         1 UNK         0.0000 
     56 H56         9.4210   56.2805   20.5077 H         1 UNK         0.0000 
     57 H57         9.7364   54.5583   15.8378 H         1 UNK         0.0000 
     58 H58         8.8609   55.6290   14.7724 H         1 UNK         0.0000 
     59 H59        10.7385   55.3391   18.0838 H         1 UNK         0.0000 
     60 H60        10.4161   57.0280   18.5254 H         1 UNK         0.0000 
     61 H61        11.7020   57.6206   16.3364 H         1 UNK         0.0000 
     62 H62        11.7676   55.9109   15.9165 H         1 UNK         0.0000 
     63 H63        11.0316   57.0652   14.8092 H         1 UNK         0.0000 
     64 H64         9.3967   58.7189   16.9722 H         1 UNK         0.0000 
     65 H65         8.7186   58.1856   15.4477 H         1 UNK         0.0000 
     66 H66         7.9278   57.7680   16.9540 H         1 UNK         0.0000 
     67 H67         1.9168   58.6151   16.5030 H         1 UNK         0.0000 
@<TRIPOS>BOND
     1    1    2 1    
     2    1   37 1    
     3    1   38 1    
     4    1   39 1    
     5    2    3 1    
     6    2   40 1    
     7    2   41 1    
     8    3    4 1    
     9    3    6 1    
    10    3   67 1    
    11    4    5 1    
    12    4   42 1    
    13    4   43 1    
    14    5   44 1    
    15    5   45 1    
    16    5   46 1    
    17    6   11 ar   
    18    6    7 ar   
    19    7    8 ar   
    20    7   47 1    
    21    8    9 ar   
    22    8   48 1    
    23    9   10 ar   
    24    9   12 1    
    25   10   11 ar   
    26   10   49 1    
    27   11   50 1    
    28   12   13 1    
    29   12   29 1    
    30   12   14 1    
    31   14   19 ar   
    32   14   15 ar   
    33   15   16 ar   
    34   15   27 1    
    35   16   17 1    
    36   16   18 1    
    37   18   19 ar   
    38   18   21 1    
    39   19   20 2    
    40   21   26 ar   
    41   21   22 ar   
    42   22   23 ar   
    43   22   51 1    
    44   23   24 ar   
    45   23   52 1    
    46   24   25 ar   
    47   24   53 1    
    48   25   26 ar   
    49   25   54 1    
    50   26   55 1    
    51   27   28 1    
    52   27   56 1    
    53   28   34 1    
    54   28   29 2    
    55   29   30 1    
    56   30   31 2    
    57   30   32 1    
    58   32   33 1    
    59   32   57 1    
    60   32   58 1    
    61   33   34 1    
    62   33   35 1    
    63   33   36 1    
    64   34   59 1    
    65   34   60 1    
    66   35   61 1    
    67   35   62 1    
    68   35   63 1    
    69   36   64 1    
    70   36   65 1    
    71   36   66 1    
@<TRIPOS>SUBSTRUCTURE
     1 UNK         1 GROUP             0       ****    0 ROOT    
