@<TRIPOS>MOLECULE
ZINC43978883_2678
64   66    1
SMALL
USER_CHARGES


@<TRIPOS>ATOM
      1 C1          3.1525   53.0584   30.1356 C.3       1 UNK         0.0000 
      2 C2          3.5992   53.4346   28.7356 C.ar      1 UNK         0.0000 
      3 C3          4.9237   53.7852   28.4858 C.ar      1 UNK         0.0000 
      4 C4          5.3342   54.0957   27.1967 C.ar      1 UNK         0.0000 
      5 C5          4.4250   54.0720   26.1227 C.ar      1 UNK         0.0000 
      6 C6          3.0852   53.7453   26.4028 C.ar      1 UNK         0.0000 
      7 C7          2.6766   53.4261   27.6938 C.ar      1 UNK         0.0000 
      8 N8          4.8058   54.3281   24.7697 N.am      1 UNK         0.0000 
      9 C9          3.8207   54.3140   23.6721 C.3       1 UNK         0.0000 
     10 C10         4.5612   54.4965   22.3607 C.3       1 UNK         0.0000 
     11 H11         4.1474   55.2965   21.7545 H         1 UNK         0.0000 
     12 C12         5.9911   54.8120   22.8025 C.3       1 UNK         0.0000 
     13 C13         6.0594   54.6511   24.3185 C.2       1 UNK         0.0000 
     14 O14         7.1043   54.8019   24.9520 O.2       1 UNK         0.0000 
     15 C15         4.4515   53.2375   21.4814 C.2       1 UNK         0.0000 
     16 O16         5.1968   52.2781   21.6651 O.2       1 UNK         0.0000 
     17 N17         3.5045   53.2690   20.5261 N.am      1 UNK         0.0000 
     18 C18         3.3516   52.2881   19.4524 C.3       1 UNK         0.0000 
     19 C19         2.5701   50.9795   19.7817 C.3       1 UNK         0.0000 
     20 C20         2.8414   50.3658   21.1804 C.3       1 UNK         0.0000 
     21 C21         2.0692   49.0528   21.4145 C.3       1 UNK         0.0000 
     22 N22         0.6329   49.3565   21.2298 N.am      1 UNK         0.0000 
     23 C23         0.3075   49.7747   19.8503 C.3       1 UNK         0.0000 
     24 C24         1.0375   51.1225   19.6069 C.3       1 UNK         0.0000 
     25 C25        -0.2219   49.6821   22.2425 C.2       1 UNK         0.0000 
     26 O26        -1.3632   50.0957   22.0256 O.2       1 UNK         0.0000 
     27 N27         0.2101   49.4081   23.4938 N.am      1 UNK         0.0000 
     28 C28        -0.5418   49.4623   24.7616 C.3       1 UNK         0.0000 
     29 C29        -1.3181   50.7899   24.9518 C.3       1 UNK         0.0000 
     30 C30         0.4732   49.3677   25.9149 C.3       1 UNK         0.0000 
     31 C31        -1.5157   48.2663   24.8532 C.3       1 UNK         0.0000 
     32 H32         2.9546   51.9863   30.1905 H         1 UNK         0.0000 
     33 H33         3.9013   53.3203   30.8834 H         1 UNK         0.0000 
     34 H34         2.2254   53.5759   30.3898 H         1 UNK         0.0000 
     35 H35         5.6525   53.8077   29.2778 H         1 UNK         0.0000 
     36 H36         6.3771   54.3326   27.0787 H         1 UNK         0.0000 
     37 H37         2.3321   53.7151   25.6313 H         1 UNK         0.0000 
     38 H38         1.6467   53.1624   27.8808 H         1 UNK         0.0000 
     39 H39         3.1528   55.1627   23.8169 H         1 UNK         0.0000 
     40 H40         3.1818   53.4289   23.6706 H         1 UNK         0.0000 
     41 H41         6.7408   54.1471   22.3733 H         1 UNK         0.0000 
     42 H42         6.3041   55.8146   22.5136 H         1 UNK         0.0000 
     43 H43         2.8728   54.0609   20.4816 H         1 UNK         0.0000 
     44 H44         4.3326   52.0942   19.0204 H         1 UNK         0.0000 
     45 H45         2.8222   52.8118   18.6543 H         1 UNK         0.0000 
     46 H46         2.8895   50.2311   19.0516 H         1 UNK         0.0000 
     47 H47         2.6082   51.0760   21.9750 H         1 UNK         0.0000 
     48 H48         3.9044   50.1680   21.2777 H         1 UNK         0.0000 
     49 H49         2.2996   48.5422   22.3496 H         1 UNK         0.0000 
     50 H50         2.3436   48.3261   20.6488 H         1 UNK         0.0000 
     51 H51         0.6933   49.0073   19.1781 H         1 UNK         0.0000 
     52 H52        -0.7655   49.7876   19.6464 H         1 UNK         0.0000 
     53 H53         0.8184   51.4706   18.5969 H         1 UNK         0.0000 
     54 H54         0.6438   51.9052   20.2587 H         1 UNK         0.0000 
     55 H55         1.1506   49.0540   23.5817 H         1 UNK         0.0000 
     56 H56        -1.7317   50.8653   25.9583 H         1 UNK         0.0000 
     57 H57        -2.1590   50.8805   24.2652 H         1 UNK         0.0000 
     58 H58        -0.6745   51.6560   24.8006 H         1 UNK         0.0000 
     59 H59         1.1225   48.4974   25.8246 H         1 UNK         0.0000 
     60 H60         1.1041   50.2544   25.9530 H         1 UNK         0.0000 
     61 H61        -0.0283   49.2963   26.8805 H         1 UNK         0.0000 
     62 H62        -0.9870   47.3131   24.7922 H         1 UNK         0.0000 
     63 H63        -2.0644   48.2692   25.7960 H         1 UNK         0.0000 
     64 H64        -2.2528   48.2846   24.0506 H         1 UNK         0.0000 
@<TRIPOS>BOND
     1    1    2 1    
     2    1   32 1    
     3    1   33 1    
     4    1   34 1    
     5    2    7 ar   
     6    2    3 ar   
     7    3    4 ar   
     8    3   35 1    
     9    4    5 ar   
    10    4   36 1    
    11    5    6 ar   
    12    5    8 1    
    13    6    7 ar   
    14    6   37 1    
    15    7   38 1    
    16    8   13 am   BACKBONE|DICT|INTERRES
    17    8    9 1    
    18    9   10 1    
    19    9   39 1    
    20    9   40 1    
    21   10   11 1    
    22   10   12 1    
    23   10   15 1    
    24   12   13 1    
    25   12   41 1    
    26   12   42 1    
    27   13   14 2    
    28   15   16 2    
    29   15   17 am   BACKBONE|DICT|INTERRES
    30   17   18 1    
    31   17   43 1    
    32   18   19 1    
    33   18   44 1    
    34   18   45 1    
    35   19   24 1    
    36   19   20 1    
    37   19   46 1    
    38   20   21 1    
    39   20   47 1    
    40   20   48 1    
    41   21   22 1    
    42   21   49 1    
    43   21   50 1    
    44   22   23 1    
    45   22   25 am   BACKBONE|DICT|INTERRES
    46   23   24 1    
    47   23   51 1    
    48   23   52 1    
    49   24   53 1    
    50   24   54 1    
    51   25   26 2    
    52   25   27 am   BACKBONE|DICT|INTERRES
    53   27   28 1    
    54   27   55 1    
    55   28   29 1    
    56   28   30 1    
    57   28   31 1    
    58   29   56 1    
    59   29   57 1    
    60   29   58 1    
    61   30   59 1    
    62   30   60 1    
    63   30   61 1    
    64   31   62 1    
    65   31   63 1    
    66   31   64 1    
@<TRIPOS>SUBSTRUCTURE
     1 UNK         1 GROUP             0       ****    0 ROOT    
