@<TRIPOS>MOLECULE
ZINC63374180_5363
64   69    1
SMALL
USER_CHARGES


@<TRIPOS>ATOM
      1 C1         -0.2982   50.0838   26.4874 C.3       1 UNK         0.0000 
      2 C2          0.2558   50.7099   25.2233 C.ar      1 UNK         0.0000 
      3 C3          0.8708   49.9038   24.2647 C.ar      1 UNK         0.0000 
      4 C4          1.3827   50.4740   23.1063 C.ar      1 UNK         0.0000 
      5 C5          1.2594   51.8503   22.8862 C.ar      1 UNK         0.0000 
      6 C6          0.6610   52.6591   23.8580 C.ar      1 UNK         0.0000 
      7 C7          0.1634   52.0877   25.0261 C.ar      1 UNK         0.0000 
      8 C8          1.7660   52.4633   21.5760 C.3       1 UNK         0.0000 
      9 H9          1.4899   53.5173   21.6475 H         1 UNK         0.0000 
     10 C10         3.3159   52.3697   21.4390 C.3       1 UNK         0.0000 
     11 H11         3.6510   51.3574   21.6770 H         1 UNK         0.0000 
     12 C12         3.8000   52.7492   20.0648 C.2       1 UNK         0.0000 
     13 C13         4.7705   53.6665   20.1639 C.2       1 UNK         0.0000 
     14 C14         5.5814   54.3449   19.1447 C.2       1 UNK         0.0000 
     15 C15         6.5272   55.2356   19.5081 C.2       1 UNK         0.0000 
     16 C16         6.7145   55.4961   20.9293 C.2       1 UNK         0.0000 
     17 C17         5.9513   54.8953   21.8801 C.2       1 UNK         0.0000 
     18 C18         4.9605   53.9730   21.5147 C.2       1 UNK         0.0000 
     19 N19         4.1172   53.2979   22.2671 N.pl3     1 UNK         0.0000 
     20 C20         3.1073   52.0616   18.9170 C.3       1 UNK         0.0000 
     21 C21         1.5899   52.3622   19.0253 C.3       1 UNK         0.0000 
     22 H22         1.3822   53.4064   18.8023 H         1 UNK         0.0000 
     23 N23         1.0696   51.9995   20.3312 N.am      1 UNK         0.0000 
     24 C24        -0.1047   51.3336   20.2216 C.2       1 UNK         0.0000 
     25 O25        -0.9346   51.1191   21.1055 O.2       1 UNK         0.0000 
     26 N26        -0.1791   50.9228   18.9256 N.am      1 UNK         0.0000 
     27 C27         0.7403   51.5039   18.1247 C.2       1 UNK         0.0000 
     28 O28         0.8881   51.3775   16.9089 O.2       1 UNK         0.0000 
     29 C29        -1.1380   50.0024   18.4516 C.ar      1 UNK         0.0000 
     30 C30        -0.8217   48.6388   18.5163 C.ar      1 UNK         0.0000 
     31 C31        -1.7048   47.6841   18.0151 C.ar      1 UNK         0.0000 
     32 C32        -2.9093   48.0808   17.4398 C.ar      1 UNK         0.0000 
     33 C33        -3.2368   49.4342   17.3669 C.ar      1 UNK         0.0000 
     34 C34        -2.3665   50.4100   17.8787 C.ar      1 UNK         0.0000 
     35 C35        -2.7671   51.8575   17.8336 C.2       1 UNK         0.0000 
     36 O36        -2.8911   52.4998   18.8769 O.2       1 UNK         0.0000 
     37 N37        -2.9017   52.3702   16.5992 N.am      1 UNK         0.0000 
     38 C38        -2.9942   53.7991   16.3084 C.3       1 UNK         0.0000 
     39 C39        -1.6516   54.5026   16.4087 C.2       1 UNK         0.0000 
     40 C40        -1.3556   55.4810   17.2800 C.2       1 UNK         0.0000 
     41 H41        -1.3174   49.7278   26.3284 H         1 UNK         0.0000 
     42 H42         0.3052   49.2307   26.8015 H         1 UNK         0.0000 
     43 H43        -0.2978   50.7882   27.3211 H         1 UNK         0.0000 
     44 H44         0.9613   48.8378   24.4208 H         1 UNK         0.0000 
     45 H45         1.8449   49.8389   22.3632 H         1 UNK         0.0000 
     46 H46         0.5607   53.7241   23.7056 H         1 UNK         0.0000 
     47 H47        -0.3102   52.7116   25.7704 H         1 UNK         0.0000 
     48 H48         5.4441   54.1462   18.0922 H         1 UNK         0.0000 
     49 H49         7.1284   55.7378   18.7650 H         1 UNK         0.0000 
     50 H50         7.4968   56.1715   21.2390 H         1 UNK         0.0000 
     51 H51         6.1463   55.1217   22.9175 H         1 UNK         0.0000 
     52 H52         3.4938   52.3958   17.9540 H         1 UNK         0.0000 
     53 H53         3.2967   50.9848   18.9454 H         1 UNK         0.0000 
     54 H54         0.1180   48.3143   18.9430 H         1 UNK         0.0000 
     55 H55        -1.4528   46.6326   18.0680 H         1 UNK         0.0000 
     56 H56        -3.5938   47.3408   17.0501 H         1 UNK         0.0000 
     57 H57        -4.1825   49.7207   16.9264 H         1 UNK         0.0000 
     58 H58        -2.7620   51.7547   15.8117 H         1 UNK         0.0000 
     59 H59        -3.3261   53.8948   15.2731 H         1 UNK         0.0000 
     60 H60        -3.7637   54.2836   16.9125 H         1 UNK         0.0000 
     61 H61        -0.8895   54.1687   15.7173 H         1 UNK         0.0000 
     62 H62        -2.0804   55.8432   17.9936 H         1 UNK         0.0000 
     63 H63        -0.3727   55.9333   17.2936 H         1 UNK         0.0000 
     64 H64         4.0491   53.3544   23.2805 H         1 UNK         0.0000 
@<TRIPOS>BOND
     1    1    2 1    
     2    1   41 1    
     3    1   42 1    
     4    1   43 1    
     5    2    7 ar   
     6    2    3 ar   
     7    3    4 ar   
     8    3   44 1    
     9    4    5 ar   
    10    4   45 1    
    11    5    6 ar   
    12    5    8 1    
    13    6    7 ar   
    14    6   46 1    
    15    7   47 1    
    16    8    9 1    
    17    8   23 1    
    18    8   10 1    
    19   10   11 1    
    20   10   19 1    
    21   10   12 1    
    22   12   13 2    
    23   12   20 1    
    24   13   18 1    
    25   13   14 1    
    26   14   15 2    
    27   14   48 1    
    28   15   16 1    
    29   15   49 1    
    30   16   17 2    
    31   16   50 1    
    32   17   18 1    
    33   17   51 1    
    34   18   19 2    
    35   19   64 1    
    36   20   21 1    
    37   20   52 1    
    38   20   53 1    
    39   21   22 1    
    40   21   27 1    
    41   21   23 1    
    42   23   24 am   BACKBONE|DICT|INTERRES
    43   24   25 2    
    44   24   26 am   BACKBONE|DICT|INTERRES
    45   26   27 am   BACKBONE|DICT|INTERRES
    46   26   29 1    
    47   27   28 2    
    48   29   34 ar   
    49   29   30 ar   
    50   30   31 ar   
    51   30   54 1    
    52   31   32 ar   
    53   31   55 1    
    54   32   33 ar   
    55   32   56 1    
    56   33   34 ar   
    57   33   57 1    
    58   34   35 1    
    59   35   36 2    
    60   35   37 am   BACKBONE|DICT|INTERRES
    61   37   38 1    
    62   37   58 1    
    63   38   39 1    
    64   38   59 1    
    65   38   60 1    
    66   39   40 2    
    67   39   61 1    
    68   40   62 1    
    69   40   63 1    
@<TRIPOS>SUBSTRUCTURE
     1 UNK         1 GROUP             0       ****    0 ROOT    
