@<TRIPOS>MOLECULE
ZINC00718461_4254
41   45    1
SMALL
USER_CHARGES


@<TRIPOS>ATOM
      1 C1          2.7875   53.2973   25.3993 C.ar      1 UNK         0.0000 
      2 C2          1.9056   53.1690   26.4711 C.ar      1 UNK         0.0000 
      3 C3          2.2451   53.6851   27.7181 C.ar      1 UNK         0.0000 
      4 C4          3.4786   54.3220   27.8826 C.ar      1 UNK         0.0000 
      5 C5          4.3329   54.4750   26.7884 C.ar      1 UNK         0.0000 
      6 C6          4.0036   53.9722   25.5153 C.ar      1 UNK         0.0000 
      7 C7          4.9704   54.1210   24.3545 C.ar      1 UNK         0.0000 
      8 C8          4.7904   54.1519   22.9217 C.ar      1 UNK         0.0000 
      9 C9          6.0454   54.5476   22.4835 C.ar      1 UNK         0.0000 
     10 N10         6.8750   54.6402   23.5453 N.pl3     1 UNK         0.0000 
     11 H11         7.8550   54.8973   23.5103 H         1 UNK         0.0000 
     12 N12         6.2369   54.3676   24.6744 N.2       1 UNK         0.0000 
     13 O13         6.4586   54.8967   21.2246 O.3       1 UNK         0.0000 
     14 C14         5.5656   54.5782   20.2526 C.2       1 UNK         0.0000 
     15 C15         4.3043   54.1211   20.4400 C.2       1 UNK         0.0000 
     16 C16         3.6718   53.9916   21.8535 C.3       1 UNK         0.0000 
     17 H17         3.0695   54.8968   21.9365 H         1 UNK         0.0000 
     18 C18         2.6848   52.8213   21.9947 C.ar      1 UNK         0.0000 
     19 C19         1.3855   53.1001   22.4580 C.ar      1 UNK         0.0000 
     20 C20         0.4956   52.0468   22.6200 C.ar      1 UNK         0.0000 
     21 C21         0.8403   50.7642   22.3109 C.ar      1 UNK         0.0000 
     22 C22         2.0926   50.4478   21.8027 C.ar      1 UNK         0.0000 
     23 C23         3.0173   51.4893   21.6395 C.ar      1 UNK         0.0000 
     24 Br24        4.7043   51.0451   20.8818 Br        1 UNK         0.0000 
     25 O25        -0.2187   49.9459   22.5452 O.3       1 UNK         0.0000 
     26 C26        -1.1437   50.7304   23.2503 C.3       1 UNK         0.0000 
     27 O27        -0.7877   52.0756   23.0652 O.3       1 UNK         0.0000 
     28 C28         3.5601   53.6962   19.2916 C.1       1 UNK         0.0000 
     29 N29         3.0052   53.3182   18.3486 N.1       1 UNK         0.0000 
     30 N30         6.2021   54.7395   19.0523 N.pl3     1 UNK         0.0000 
     31 Cl31        3.9890   54.8968   29.4296 Cl        1 UNK         0.0000 
     32 Cl32        1.1417   53.4924   29.0363 Cl        1 UNK         0.0000 
     33 H33         2.5530   52.7843   24.4970 H         1 UNK         0.0000 
     34 H34         0.9768   52.6325   26.3406 H         1 UNK         0.0000 
     35 H35         5.2773   54.9735   26.9505 H         1 UNK         0.0000 
     36 H36         1.1103   54.1053   22.7336 H         1 UNK         0.0000 
     37 H37         2.3523   49.4349   21.5313 H         1 UNK         0.0000 
     38 H38        -1.0863   50.4831   24.3134 H         1 UNK         0.0000 
     39 H39        -2.1592   50.5425   22.8988 H         1 UNK         0.0000 
     40 H40         5.7105   54.5547   18.1894 H         1 UNK         0.0000 
     41 H41         7.2102   54.7604   19.0117 H         1 UNK         0.0000 
@<TRIPOS>BOND
     1    1    6 ar   
     2    1    2 ar   
     3    1   33 1    
     4    2    3 ar   
     5    2   34 1    
     6    3    4 ar   
     7    3   32 1    
     8    4    5 ar   
     9    4   31 1    
    10    5    6 ar   
    11    5   35 1    
    12    6    7 1    
    13    7   12 ar   
    14    7    8 ar   
    15    8   16 1    
    16    8    9 ar   
    17    9   10 ar   
    18    9   13 1    
    19   10   11 1    
    20   10   12 ar   
    21   13   14 1    
    22   14   15 2    
    23   14   30 1    
    24   15   16 1    
    25   15   28 1    
    26   16   17 1    
    27   16   18 1    
    28   18   23 ar   
    29   18   19 ar   
    30   19   20 ar   
    31   19   36 1    
    32   20   27 1    
    33   20   21 ar   
    34   21   22 ar   
    35   21   25 1    
    36   22   23 ar   
    37   22   37 1    
    38   23   24 1    
    39   25   26 1    
    40   26   27 1    
    41   26   38 1    
    42   26   39 1    
    43   28   29 3    
    44   30   40 1    
    45   30   41 1    
@<TRIPOS>SUBSTRUCTURE
     1 UNK         1 GROUP             0       ****    0 ROOT    
