@<TRIPOS>MOLECULE
ZINC12445859_63
42   43    1
SMALL
USER_CHARGES


@<TRIPOS>ATOM
      1 C1          3.0136   51.9775   31.2625 C.3       1 UNK         0.0000 
      2 C2          3.1013   52.9307   30.0817 C.ar      1 UNK         0.0000 
      3 C3          4.2462   52.9196   29.2769 C.ar      1 UNK         0.0000 
      4 C4          4.3569   53.7649   28.1717 C.ar      1 UNK         0.0000 
      5 C5          3.2989   54.6306   27.8761 C.ar      1 UNK         0.0000 
      6 C6          2.1564   54.6555   28.6724 C.ar      1 UNK         0.0000 
      7 C7          2.0506   53.8089   29.7742 C.ar      1 UNK         0.0000 
      8 I8          0.3048   53.9128   30.9328 I         1 UNK         0.0000 
      9 N9          5.5328   53.6966   27.4047 N.pl3     1 UNK         0.0000 
     10 C10         5.8945   54.5771   26.3144 C.3       1 UNK         0.0000 
     11 C11         5.1518   54.2867   24.9869 C.2       1 UNK         0.0000 
     12 O12         3.9705   53.9242   24.9877 O.2       1 UNK         0.0000 
     13 N13         5.8571   54.4989   23.8575 N.am      1 UNK         0.0000 
     14 N14         5.3283   54.2927   22.6312 N.2       1 UNK         0.0000 
     15 C15         5.9858   54.6952   21.6058 C.2       1 UNK         0.0000 
     16 C16         7.2926   55.5155   21.6761 C.3       1 UNK         0.0000 
     17 C17         5.5045   54.3355   20.2388 C.ar      1 UNK         0.0000 
     18 C18         4.2664   53.6958   20.0575 C.ar      1 UNK         0.0000 
     19 C19         3.8219   53.3148   18.7955 C.ar      1 UNK         0.0000 
     20 C20         4.6048   53.5593   17.6631 C.ar      1 UNK         0.0000 
     21 C21         5.8403   54.1944   17.8265 C.ar      1 UNK         0.0000 
     22 C22         6.2796   54.5765   19.0912 C.ar      1 UNK         0.0000 
     23 N23         4.1384   53.1412   16.3184 N.pl3     1 UNK         0.0000 
     24 O24         4.9162   53.2378   15.3727 O.co2     1 UNK         0.0000 
     25 O25         2.9849   52.7369   16.1962 O.co2     1 UNK         0.0000 
     26 H26         2.9740   52.4966   32.2150 H         1 UNK         0.0000 
     27 H27         2.0925   51.4000   31.1957 H         1 UNK         0.0000 
     28 H28         3.8635   51.2967   31.2985 H         1 UNK         0.0000 
     29 H29         5.0514   52.2365   29.5048 H         1 UNK         0.0000 
     30 H30         3.3516   55.2967   27.0302 H         1 UNK         0.0000 
     31 H31         1.3502   55.3329   28.4314 H         1 UNK         0.0000 
     32 H32         6.3039   53.3598   27.9626 H         1 UNK         0.0000 
     33 H33         6.9533   54.4221   26.0996 H         1 UNK         0.0000 
     34 H34         5.8149   55.6365   26.5580 H         1 UNK         0.0000 
     35 H35         6.8047   54.8456   23.8742 H         1 UNK         0.0000 
     36 H36         8.1526   54.8968   21.4196 H         1 UNK         0.0000 
     37 H37         7.2632   56.3661   20.9962 H         1 UNK         0.0000 
     38 H38         7.5043   55.9268   22.6621 H         1 UNK         0.0000 
     39 H39         3.6233   53.4818   20.8998 H         1 UNK         0.0000 
     40 H40         2.8658   52.8182   18.7069 H         1 UNK         0.0000 
     41 H41         6.4733   54.3888   16.9721 H         1 UNK         0.0000 
     42 H42         7.2504   55.0442   19.1515 H         1 UNK         0.0000 
@<TRIPOS>BOND
     1    1    2 1    
     2    1   26 1    
     3    1   27 1    
     4    1   28 1    
     5    2    7 ar   
     6    2    3 ar   
     7    3    4 ar   
     8    3   29 1    
     9    4    5 ar   
    10    4    9 1    
    11    5    6 ar   
    12    5   30 1    
    13    6    7 ar   
    14    6   31 1    
    15    7    8 1    
    16    9   10 1    
    17    9   32 1    
    18   10   11 1    
    19   10   33 1    
    20   10   34 1    
    21   11   12 2    
    22   11   13 am   BACKBONE|DICT|INTERRES
    23   13   14 1    
    24   13   35 1    
    25   14   15 2    
    26   15   16 1    
    27   15   17 1    
    28   16   36 1    
    29   16   37 1    
    30   16   38 1    
    31   17   22 ar   
    32   17   18 ar   
    33   18   19 ar   
    34   18   39 1    
    35   19   20 ar   
    36   19   40 1    
    37   20   21 ar   
    38   20   23 1    
    39   21   22 ar   
    40   21   41 1    
    41   22   42 1    
    42   23   24 2    
    43   23   25 1    
@<TRIPOS>SUBSTRUCTURE
     1 UNK         1 GROUP             0       ****    0 ROOT    
