ZINC64518594_4103
                    3D
 Schrodinger Suite 2024-2.
 69 73  0  0  1  0            999 V2000
    1.2430   55.3235   28.9187 C   0  0  0  0  0  0
    1.2861   53.8278   28.6713 C   0  0  0  0  0  0
    2.2802   52.9180   28.6310 C   0  0  0  0  0  0
    1.7157   51.5489   28.4158 C   0  0  0  0  0  0
    0.3649   51.7978   27.9708 N   0  0  0  0  0  0
    0.0891   53.1566   28.4210 N   0  0  0  0  0  0
   -0.2935   51.3096   26.8239 C   0  0  0  0  0  0
   -1.4900   51.8813   26.3577 C   0  0  0  0  0  0
   -2.1253   51.3792   25.2247 C   0  0  0  0  0  0
   -1.5816   50.2876   24.5548 C   0  0  0  0  0  0
   -0.4156   49.6850   25.0186 C   0  0  0  0  0  0
    0.2197   50.1917   26.1483 C   0  0  0  0  0  0
    3.6854   53.2159   28.7862 C   0  0  0  0  0  0
    4.3041   52.6460   29.6842 O   0  0  0  0  0  0
    4.2734   54.1013   27.9280 N   0  0  0  0  0  0
    3.6314   54.6099   26.6889 C   0  0  0  0  0  0
    4.4712   54.1265   25.4920 C   0  0  0  0  0  0
    5.9573   54.5499   25.5906 C   0  0  0  0  0  0
    6.4945   53.9870   26.9228 C   0  0  0  0  0  0
    5.6868   54.4944   28.1330 C   0  0  0  0  0  0
    6.8549   54.1049   24.4022 C   0  0  0  0  0  0
    6.3417   54.4999   23.0142 C   0  0  0  0  0  0
    6.7044   55.5620   22.5099 O   0  0  0  0  0  0
    5.4763   53.6596   22.4231 N   0  0  0  0  0  0
    4.7204   53.9482   21.2035 C   0  0  0  0  0  0
    5.5527   54.0411   19.9083 C   0  0  0  0  0  0
    4.7839   54.7005   18.7775 C   0  0  0  0  0  0
    4.9517   55.8928   18.1740 C   0  0  0  0  0  0
    5.9528   56.9490   18.3875 C   0  0  0  0  0  0
    5.9053   58.0974   17.6823 C   0  0  0  0  0  0
    4.8267   58.2660   16.7185 C   0  0  0  0  0  0
    3.8959   57.2986   16.5044 C   0  0  0  0  0  0
    3.9452   56.0962   17.2233 C   0  0  0  0  0  0
    3.1495   55.0547   17.1689 N   0  3  0  0  0  0
    3.5876   54.0297   18.1326 C   0  0  0  0  0  0
    0.7030   55.5331   29.8407 H   0  0  0  0  0  0
    2.2428   55.7435   29.0222 H   0  0  0  0  0  0
    0.7391   55.8274   28.0931 H   0  0  0  0  0  0
    2.2920   50.9948   27.6818 H   0  0  0  0  0  0
    1.6981   50.9638   29.3336 H   0  0  0  0  0  0
   -0.5705   53.5090   27.7445 H   0  0  0  0  0  0
   -1.9490   52.7121   26.8699 H   0  0  0  0  0  0
   -3.0435   51.8277   24.8733 H   0  0  0  0  0  0
   -2.0771   49.8922   23.6799 H   0  0  0  0  0  0
   -0.0079   48.8203   24.5163 H   0  0  0  0  0  0
    1.1014   49.6798   26.5016 H   0  0  0  0  0  0
    3.6351   55.6964   26.7115 H   0  0  0  0  0  0
    2.5975   54.2971   26.5612 H   0  0  0  0  0  0
    4.0244   54.5098   24.5753 H   0  0  0  0  0  0
    4.3817   53.0469   25.4066 H   0  0  0  0  0  0
    5.9857   55.6400   25.6560 H   0  0  0  0  0  0
    6.5187   52.8965   26.9078 H   0  0  0  0  0  0
    7.5341   54.2774   27.0521 H   0  0  0  0  0  0
    5.7328   55.5823   28.1615 H   0  0  0  0  0  0
    6.1029   54.1605   29.0852 H   0  0  0  0  0  0
    7.0098   53.0349   24.4159 H   0  0  0  0  0  0
    7.8509   54.5189   24.5317 H   0  0  0  0  0  0
    5.2527   52.7990   22.8989 H   0  0  0  0  0  0
    4.1918   54.8911   21.3647 H   0  0  0  0  0  0
    3.9327   53.2031   21.0858 H   0  0  0  0  0  0
    5.8809   53.0509   19.5891 H   0  0  0  0  0  0
    6.4546   54.6281   20.0819 H   0  0  0  0  0  0
    6.7518   56.8316   19.1052 H   0  0  0  0  0  0
    6.6318   58.8852   17.8321 H   0  0  0  0  0  0
    4.7570   59.2036   16.1778 H   0  0  0  0  0  0
    3.1113   57.4901   15.7854 H   0  0  0  0  0  0
    2.7634   53.8328   18.8197 H   0  0  0  0  0  0
    3.8427   53.1212   17.5823 H   0  0  0  0  0  0
    2.3424   54.9592   16.5577 H   0  0  0  0  0  0
  1  2  1  0  0  0
  1 36  1  0  0  0
  1 37  1  0  0  0
  1 38  1  0  0  0
  2  6  1  0  0  0
  2  3  2  0  0  0
  3  4  1  0  0  0
  3 13  1  0  0  0
  4  5  1  0  0  0
  4 39  1  0  0  0
  4 40  1  0  0  0
  5  6  1  0  0  0
  5  7  1  0  0  0
  6 41  1  0  0  0
  7 12  2  0  0  0
  7  8  1  0  0  0
  8  9  2  0  0  0
  8 42  1  0  0  0
  9 10  1  0  0  0
  9 43  1  0  0  0
 10 11  2  0  0  0
 10 44  1  0  0  0
 11 12  1  0  0  0
 11 45  1  0  0  0
 12 46  1  0  0  0
 13 14  2  0  0  0
 13 15  1  0  0  0
 15 20  1  0  0  0
 15 16  1  0  0  0
 16 17  1  0  0  0
 16 47  1  0  0  0
 16 48  1  0  0  0
 17 18  1  0  0  0
 17 49  1  0  0  0
 17 50  1  0  0  0
 18 19  1  0  0  0
 18 21  1  0  0  0
 18 51  1  0  0  0
 19 20  1  0  0  0
 19 52  1  0  0  0
 19 53  1  0  0  0
 20 54  1  0  0  0
 20 55  1  0  0  0
 21 22  1  0  0  0
 21 56  1  0  0  0
 21 57  1  0  0  0
 22 23  2  0  0  0
 22 24  1  0  0  0
 24 25  1  0  0  0
 24 58  1  0  0  0
 25 26  1  0  0  0
 25 59  1  0  0  0
 25 60  1  0  0  0
 26 27  1  0  0  0
 26 61  1  0  0  0
 26 62  1  0  0  0
 27 35  1  0  0  0
 27 28  2  0  0  0
 28 33  1  0  0  0
 28 29  1  0  0  0
 29 30  2  0  0  0
 29 63  1  0  0  0
 30 31  1  0  0  0
 30 64  1  0  0  0
 31 32  2  0  0  0
 31 65  1  0  0  0
 32 33  1  0  0  0
 32 66  1  0  0  0
 33 34  2  0  0  0
 34 35  1  0  0  0
 34 69  1  0  0  0
 35 67  1  0  0  0
 35 68  1  0  0  0
M  CHG  1  34   1
M  END
> <i_i_glide_confnum>
202

> <i_i_glide_lignum>
4104

> <i_i_glide_posenum>
89

> <i_i_glide_rotatable_bonds>
9

> <i_m_Source_File_Index>
948

> <b_m_subgroup_collapsed>
0

> <r_i_docking_score>
-6.19761

> <r_i_glide_ecoul>
-3.2126

> <r_i_glide_eff_state_penalty>
0

> <r_i_glide_einternal>
7.07234

> <r_i_glide_emodel>
-67.2223

> <r_i_glide_energy>
-50.3705

> <r_i_glide_erotb>
0.724282

> <r_i_glide_esite>
0

> <r_i_glide_evdw>
-47.1579

> <r_i_glide_gscore>
-6.19761

> <r_i_glide_hbond>
0

> <r_i_glide_ligand_efficiency>
-0.177074

> <r_i_glide_ligand_efficiency_ln>
-1.36051

> <r_i_glide_ligand_efficiency_sa>
-0.579222

> <r_i_glide_lipo>
-2.77778

> <r_i_glide_metal>
0

> <r_i_glide_rewards>
-1.30432

> <s_i_glide_gridfile>
wee1_glide-grid

> <s_m_Source_File>
wee1_decoys_glide_SP.sdf

> <s_m_Source_Path>
/Users/zhangxujun/Desktop

> <s_m_entry_id>
1223

> <s_m_entry_name>
wee1_decoys_glide_SP.948

> <s_m_subgroup_title>
wee1_decoys_glide_SP

> <s_m_subgroupid>
wee1_decoys_glide_SP


$$$$
