@<TRIPOS>MOLECULE
ZINC65074622_5020
64   67    1
SMALL
USER_CHARGES


@<TRIPOS>ATOM
      1 C1          1.9187   54.4864   27.6699 C.3       1 UNK         0.0000 
      2 C2          1.6358   53.4175   28.7318 C.3       1 UNK         0.0000 
      3 C3          0.1952   52.8694   28.6724 C.3       1 UNK         0.0000 
      4 C4         -0.1244   52.0330   27.4349 C.ar      1 UNK         0.0000 
      5 C5         -1.1968   52.3668   26.6026 C.ar      1 UNK         0.0000 
      6 C6         -1.5102   51.5654   25.5041 C.ar      1 UNK         0.0000 
      7 C7         -0.7652   50.4106   25.2505 C.ar      1 UNK         0.0000 
      8 C8          0.3045   50.0750   26.0814 C.ar      1 UNK         0.0000 
      9 C9          0.6306   50.8941   27.1597 C.ar      1 UNK         0.0000 
     10 S10        -1.1806   49.3352   23.8704 S.o2      1 UNK         0.0000 
     11 O11        -0.7956   47.9714   24.2531 O.2       1 UNK         0.0000 
     12 O12        -2.5577   49.6462   23.4688 O.2       1 UNK         0.0000 
     13 N13        -0.1057   49.8286   22.5464 N.pl3     1 UNK         0.0000 
     14 C14        -0.4543   51.0569   21.8000 C.3       1 UNK         0.0000 
     15 C15         0.2325   51.0253   20.4158 C.3       1 UNK         0.0000 
     16 C16         1.7777   50.8093   20.4574 C.3       1 UNK         0.0000 
     17 C17         2.1264   49.6708   21.4684 C.3       1 UNK         0.0000 
     18 C18         1.3400   49.6593   22.7981 C.3       1 UNK         0.0000 
     19 C19         2.4922   52.1481   20.7560 C.2       1 UNK         0.0000 
     20 N20         3.0709   52.8963   19.8034 N.pl3     1 UNK         0.0000 
     21 C21         3.1754   52.5404   18.3932 C.3       1 UNK         0.0000 
     22 C22         2.2201   51.3832   18.0923 C.3       1 UNK         0.0000 
     23 N23         2.3049   50.3851   19.1479 N.3       1 UNK         0.0000 
     24 N24         2.4675   52.5789   22.0250 N.pl3     1 UNK         0.0000 
     25 C25         2.7794   53.9330   22.5045 C.3       1 UNK         0.0000 
     26 C26         4.1431   54.0964   23.1320 C.ar      1 UNK         0.0000 
     27 C27         4.2940   54.0968   24.5221 C.ar      1 UNK         0.0000 
     28 C28         5.5425   54.3498   25.0911 C.ar      1 UNK         0.0000 
     29 C29         6.6396   54.6057   24.2712 C.ar      1 UNK         0.0000 
     30 C30         6.4879   54.6085   22.8856 C.ar      1 UNK         0.0000 
     31 C31         5.2485   54.3405   22.3161 C.ar      1 UNK         0.0000 
     32 F32         7.5280   54.9037   22.0816 F         1 UNK         0.0000 
     33 F33         5.6862   54.3608   26.4352 F         1 UNK         0.0000 
     34 H34         2.9500   54.8363   27.7255 H         1 UNK         0.0000 
     35 H35         1.2652   55.3478   27.8041 H         1 UNK         0.0000 
     36 H36         1.7493   54.0972   26.6666 H         1 UNK         0.0000 
     37 H37         2.3597   52.6068   28.6422 H         1 UNK         0.0000 
     38 H38         1.8048   53.8545   29.7168 H         1 UNK         0.0000 
     39 H39         0.0070   52.2432   29.5465 H         1 UNK         0.0000 
     40 H40        -0.4958   53.7069   28.7562 H         1 UNK         0.0000 
     41 H41        -1.7964   53.2399   26.8140 H         1 UNK         0.0000 
     42 H42        -2.3477   51.8273   24.8731 H         1 UNK         0.0000 
     43 H43         0.8733   49.1714   25.9072 H         1 UNK         0.0000 
     44 H44         1.4492   50.6106   27.8039 H         1 UNK         0.0000 
     45 H45        -1.5366   51.1236   21.6829 H         1 UNK         0.0000 
     46 H46        -0.0725   51.9228   22.3409 H         1 UNK         0.0000 
     47 H47        -0.2284   50.2300   19.8265 H         1 UNK         0.0000 
     48 H48         0.0081   51.9513   19.8867 H         1 UNK         0.0000 
     49 H49         3.1925   49.6914   21.6799 H         1 UNK         0.0000 
     50 H50         1.9481   48.7025   20.9945 H         1 UNK         0.0000 
     51 H51         1.6928   50.4955   23.3991 H         1 UNK         0.0000 
     52 H52         1.5039   48.7153   23.3156 H         1 UNK         0.0000 
     53 H53         2.9470   53.4161   17.7851 H         1 UNK         0.0000 
     54 H54         4.2110   52.2533   18.2052 H         1 UNK         0.0000 
     55 H55         1.1971   51.7410   17.9737 H         1 UNK         0.0000 
     56 H56         2.5112   50.9212   17.1464 H         1 UNK         0.0000 
     57 H57         3.2530   50.0196   19.1501 H         1 UNK         0.0000 
     58 H58         2.0344   51.9564   22.6903 H         1 UNK         0.0000 
     59 H59         2.7007   54.6384   21.6819 H         1 UNK         0.0000 
     60 H60         2.0007   54.2058   23.2180 H         1 UNK         0.0000 
     61 H61         3.4481   53.9140   25.1653 H         1 UNK         0.0000 
     62 H62         7.6007   54.8148   24.7087 H         1 UNK         0.0000 
     63 H63         5.1516   54.3687   21.2415 H         1 UNK         0.0000 
     64 H64         3.4762   53.7706   20.1017 H         1 UNK         0.0000 
@<TRIPOS>BOND
     1    1    2 1    
     2    1   34 1    
     3    1   35 1    
     4    1   36 1    
     5    2    3 1    
     6    2   37 1    
     7    2   38 1    
     8    3    4 1    
     9    3   39 1    
    10    3   40 1    
    11    4    9 ar   
    12    4    5 ar   
    13    5    6 ar   
    14    5   41 1    
    15    6    7 ar   
    16    6   42 1    
    17    7    8 ar   
    18    7   10 1    
    19    8    9 ar   
    20    8   43 1    
    21    9   44 1    
    22   10   11 2    
    23   10   12 2    
    24   10   13 1    
    25   13   18 1    
    26   13   14 1    
    27   14   15 1    
    28   14   45 1    
    29   14   46 1    
    30   15   16 1    
    31   15   47 1    
    32   15   48 1    
    33   16   23 1    
    34   16   17 1    
    35   16   19 1    
    36   17   18 1    
    37   17   49 1    
    38   17   50 1    
    39   18   51 1    
    40   18   52 1    
    41   19   20 2    
    42   19   24 1    
    43   20   21 1    
    44   20   64 1    
    45   21   22 1    
    46   21   53 1    
    47   21   54 1    
    48   22   23 1    
    49   22   55 1    
    50   22   56 1    
    51   23   57 1    
    52   24   25 1    
    53   24   58 1    
    54   25   26 1    
    55   25   59 1    
    56   25   60 1    
    57   26   31 ar   
    58   26   27 ar   
    59   27   28 ar   
    60   27   61 1    
    61   28   29 ar   
    62   28   33 1    
    63   29   30 ar   
    64   29   62 1    
    65   30   31 ar   
    66   30   32 1    
    67   31   63 1    
@<TRIPOS>SUBSTRUCTURE
     1 UNK         1 GROUP             0       ****    0 ROOT    
