@<TRIPOS>MOLECULE
ZINC00718235_5835
56   61    1
SMALL
USER_CHARGES


@<TRIPOS>ATOM
      1 C1         -3.3095   53.1373   24.5476 C.3       1 UNK         0.0000 
      2 C2         -2.9087   51.6856   24.9153 C.3       1 UNK         0.0000 
      3 C3         -1.5420   51.6510   25.6559 C.3       1 UNK         0.0000 
      4 C4         -0.3690   51.9684   24.7199 C.2       1 UNK         0.0000 
      5 C5         -0.3943   51.8112   23.3696 C.2       1 UNK         0.0000 
      6 C6          0.8398   52.1572   22.4776 C.3       1 UNK         0.0000 
      7 H7          0.5185   52.8854   21.7333 H         1 UNK         0.0000 
      8 C8          1.9469   52.8862   23.2986 C.ar      1 UNK         0.0000 
      9 C9          3.1443   53.3909   22.6790 C.ar      1 UNK         0.0000 
     10 C10         3.4123   53.3003   21.2832 C.ar      1 UNK         0.0000 
     11 C11         4.5907   53.8115   20.7522 C.ar      1 UNK         0.0000 
     12 C12         5.5049   54.4031   21.6116 C.ar      1 UNK         0.0000 
     13 N13         5.3211   54.4966   22.9480 N.ar      1 UNK         0.0000 
     14 C14         4.1558   54.0243   23.4752 C.ar      1 UNK         0.0000 
     15 C15         3.9602   54.1719   24.8618 C.ar      1 UNK         0.0000 
     16 C16         2.8006   53.6967   25.4527 C.ar      1 UNK         0.0000 
     17 C17         1.8290   53.0581   24.6899 C.ar      1 UNK         0.0000 
     18 N18         0.7035   52.5508   25.3421 N.pl3     1 UNK         0.0000 
     19 C19         1.3788   50.8841   21.8108 C.ar      1 UNK         0.0000 
     20 C20         1.8712   49.7783   22.4926 C.ar      1 UNK         0.0000 
     21 N21         2.3042   48.8983   21.5532 N.pl3     1 UNK         0.0000 
     22 H22         2.7667   48.0220   21.7463 H         1 UNK         0.0000 
     23 N23         2.1087   49.3353   20.3161 N.2       1 UNK         0.0000 
     24 C24         1.5624   50.5315   20.4359 C.ar      1 UNK         0.0000 
     25 C25         1.2814   51.3115   19.1763 C.ar      1 UNK         0.0000 
     26 C26         2.1311   51.1582   18.0697 C.ar      1 UNK         0.0000 
     27 C27         1.9037   51.8619   16.8892 C.ar      1 UNK         0.0000 
     28 C28         0.8240   52.7326   16.8075 C.ar      1 UNK         0.0000 
     29 C29        -0.0280   52.9030   17.8928 C.ar      1 UNK         0.0000 
     30 C30         0.2036   52.1953   19.0695 C.ar      1 UNK         0.0000 
     31 F31         0.5969   53.4174   15.6634 F         1 UNK         0.0000 
     32 C32        -1.6138   51.2752   22.7145 C.2       1 UNK         0.0000 
     33 O33        -1.7426   51.1873   21.4943 O.2       1 UNK         0.0000 
     34 C34        -2.7657   50.8315   23.6317 C.3       1 UNK         0.0000 
     35 C35        -3.9605   50.9991   25.8138 C.3       1 UNK         0.0000 
     36 H36        -3.5094   53.7184   25.4495 H         1 UNK         0.0000 
     37 H37        -2.5409   53.6699   23.9831 H         1 UNK         0.0000 
     38 H38        -4.2228   53.1524   23.9512 H         1 UNK         0.0000 
     39 H39        -1.6164   52.3959   26.4527 H         1 UNK         0.0000 
     40 H40        -1.3246   50.6840   26.1151 H         1 UNK         0.0000 
     41 H41         2.6854   52.8861   20.6106 H         1 UNK         0.0000 
     42 H42         4.7803   53.7592   19.6895 H         1 UNK         0.0000 
     43 H43         6.4232   54.8165   21.2238 H         1 UNK         0.0000 
     44 H44         4.7206   54.6532   25.4610 H         1 UNK         0.0000 
     45 H45         2.6704   53.8060   26.5213 H         1 UNK         0.0000 
     46 H46         0.6677   52.6431   26.3463 H         1 UNK         0.0000 
     47 H47         1.9740   49.5618   23.5490 H         1 UNK         0.0000 
     48 H48         2.9854   50.4980   18.1149 H         1 UNK         0.0000 
     49 H49         2.5649   51.7264   16.0440 H         1 UNK         0.0000 
     50 H50        -0.8642   53.5847   17.8207 H         1 UNK         0.0000 
     51 H51        -0.4706   52.3504   19.8909 H         1 UNK         0.0000 
     52 H52        -3.6900   50.7805   23.0535 H         1 UNK         0.0000 
     53 H53        -2.5254   49.8061   23.9179 H         1 UNK         0.0000 
     54 H54        -4.0918   51.5397   26.7529 H         1 UNK         0.0000 
     55 H55        -4.9352   50.9552   25.3252 H         1 UNK         0.0000 
     56 H56        -3.6739   49.9762   26.0660 H         1 UNK         0.0000 
@<TRIPOS>BOND
     1    1    2 1    
     2    1   36 1    
     3    1   37 1    
     4    1   38 1    
     5    2   34 1    
     6    2    3 1    
     7    2   35 1    
     8    3    4 1    
     9    3   39 1    
    10    3   40 1    
    11    4   18 1    
    12    4    5 2    
    13    5    6 1    
    14    5   32 1    
    15    6    7 1    
    16    6    8 1    
    17    6   19 1    
    18    8   17 ar   
    19    8    9 ar   
    20    9   14 ar   
    21    9   10 ar   
    22   10   11 ar   
    23   10   41 1    
    24   11   12 ar   
    25   11   42 1    
    26   12   13 ar   
    27   12   43 1    
    28   13   14 ar   
    29   14   15 ar   
    30   15   16 ar   
    31   15   44 1    
    32   16   17 ar   
    33   16   45 1    
    34   17   18 1    
    35   18   46 1    
    36   19   24 ar   
    37   19   20 ar   
    38   20   21 ar   
    39   20   47 1    
    40   21   22 1    
    41   21   23 ar   
    42   23   24 ar   
    43   24   25 1    
    44   25   30 ar   
    45   25   26 ar   
    46   26   27 ar   
    47   26   48 1    
    48   27   28 ar   
    49   27   49 1    
    50   28   29 ar   
    51   28   31 1    
    52   29   30 ar   
    53   29   50 1    
    54   30   51 1    
    55   32   33 2    
    56   32   34 1    
    57   34   52 1    
    58   34   53 1    
    59   35   54 1    
    60   35   55 1    
    61   35   56 1    
@<TRIPOS>SUBSTRUCTURE
     1 UNK         1 GROUP             0       ****    0 ROOT    
