@<TRIPOS>MOLECULE
ZINC12716783_3134
66   69    1
SMALL
USER_CHARGES


@<TRIPOS>ATOM
      1 C1         -0.7620   51.5919   30.0915 C.3       1 UNK         0.0000 
      2 O2          0.3885   52.1643   29.4849 O.3       1 UNK         0.0000 
      3 C3          0.5153   52.0670   28.1139 C.ar      1 UNK         0.0000 
      4 C4         -0.2667   51.2025   27.3345 C.ar      1 UNK         0.0000 
      5 C5         -0.1452   51.1913   25.9549 C.ar      1 UNK         0.0000 
      6 C6          0.7235   52.0647   25.2965 C.ar      1 UNK         0.0000 
      7 C7          1.5546   52.8854   26.0805 C.ar      1 UNK         0.0000 
      8 C8          1.4628   52.8779   27.4744 C.ar      1 UNK         0.0000 
      9 O9          2.2948   53.7009   28.1904 O.3       1 UNK         0.0000 
     10 C10         3.4352   53.0377   28.7219 C.3       1 UNK         0.0000 
     11 C11         0.7026   52.0428   23.7682 C.3       1 UNK         0.0000 
     12 H12         1.0401   51.0352   23.5402 H         1 UNK         0.0000 
     13 C13         1.7308   52.9738   23.0593 C.2       1 UNK         0.0000 
     14 O14         1.7928   54.1612   23.3609 O.2       1 UNK         0.0000 
     15 N15         2.5667   52.3478   22.2091 N.am      1 UNK         0.0000 
     16 C16         3.8770   52.7916   21.7074 C.3       1 UNK         0.0000 
     17 C17         4.2578   51.9516   20.4774 C.3       1 UNK         0.0000 
     18 C18         3.8943   52.8248   19.2809 C.3       1 UNK         0.0000 
     19 C19         4.3159   54.2204   19.7301 C.3       1 UNK         0.0000 
     20 C20         4.0024   54.2635   21.2366 C.3       1 UNK         0.0000 
     21 N21        -0.6964   52.2302   23.2462 N.am      1 UNK         0.0000 
     22 C22        -1.5493   53.2333   23.9458 C.3       1 UNK         0.0000 
     23 C23        -2.8868   52.6923   24.4277 C.2       1 UNK         0.0000 
     24 C24        -3.4403   51.4251   24.5809 C.2       1 UNK         0.0000 
     25 C25        -4.7482   51.6009   25.0335 C.2       1 UNK         0.0000 
     26 C26        -4.9433   52.9675   25.1270 C.2       1 UNK         0.0000 
     27 O27        -3.8157   53.6281   24.7578 O.3       1 UNK         0.0000 
     28 C28        -1.1026   51.8120   22.0066 C.2       1 UNK         0.0000 
     29 O29        -2.0963   52.2474   21.4285 O.2       1 UNK         0.0000 
     30 C30        -0.3518   50.7865   21.3395 C.2       1 UNK         0.0000 
     31 C31         0.1814   50.7791   20.0549 C.2       1 UNK         0.0000 
     32 C32         0.7633   49.5232   19.7674 C.2       1 UNK         0.0000 
     33 N33         0.6620   48.5908   20.6946 N.2       1 UNK         0.0000 
     34 S34        -0.1580   49.2212   22.0522 S.3       1 UNK         0.0000 
     35 C35         1.4154   49.1272   18.5432 C.2       1 UNK         0.0000 
     36 O36         1.2069   48.0448   17.9944 O.2       1 UNK         0.0000 
     37 N37         2.3017   50.0100   18.0822 N.am      1 UNK         0.0000 
     38 N38         0.1442   51.8581   19.2064 N.pl3     1 UNK         0.0000 
     39 H39        -0.7836   51.9193   31.1172 H         1 UNK         0.0000 
     40 H40        -1.6833   51.9356   29.6271 H         1 UNK         0.0000 
     41 H41        -0.7324   50.4998   30.0777 H         1 UNK         0.0000 
     42 H42        -0.9775   50.5246   27.7805 H         1 UNK         0.0000 
     43 H43        -0.7698   50.5132   25.3928 H         1 UNK         0.0000 
     44 H44         2.2839   53.5474   25.6381 H         1 UNK         0.0000 
     45 H45         4.0628   53.7540   29.2466 H         1 UNK         0.0000 
     46 H46         3.1532   52.2556   29.4345 H         1 UNK         0.0000 
     47 H47         4.0388   52.5883   27.9317 H         1 UNK         0.0000 
     48 H48         2.4076   51.3613   22.0975 H         1 UNK         0.0000 
     49 H49         4.6057   52.5729   22.4876 H         1 UNK         0.0000 
     50 H50         3.8160   50.9530   20.4543 H         1 UNK         0.0000 
     51 H51         5.3375   51.7934   20.4671 H         1 UNK         0.0000 
     52 H52         2.8188   52.8021   19.1024 H         1 UNK         0.0000 
     53 H53         4.3965   52.5074   18.3639 H         1 UNK         0.0000 
     54 H54         3.7952   55.0011   19.1739 H         1 UNK         0.0000 
     55 H55         5.3854   54.3582   19.5604 H         1 UNK         0.0000 
     56 H56         4.8156   54.7689   21.7587 H         1 UNK         0.0000 
     57 H57         3.1023   54.8449   21.4118 H         1 UNK         0.0000 
     58 H58        -1.0027   53.6965   24.7627 H         1 UNK         0.0000 
     59 H59        -1.7487   54.0661   23.2811 H         1 UNK         0.0000 
     60 H60        -2.9527   50.4836   24.3783 H         1 UNK         0.0000 
     61 H61        -5.4641   50.8201   25.2561 H         1 UNK         0.0000 
     62 H62        -5.7831   53.5807   25.4164 H         1 UNK         0.0000 
     63 H63         2.4941   50.8673   18.5739 H         1 UNK         0.0000 
     64 H64         2.9664   49.7029   17.3567 H         1 UNK         0.0000 
     65 H65         0.4844   51.8001   18.2568 H         1 UNK         0.0000 
     66 H66        -0.2348   52.7490   19.4982 H         1 UNK         0.0000 
@<TRIPOS>BOND
     1    1    2 1    
     2    1   39 1    
     3    1   40 1    
     4    1   41 1    
     5    2    3 1    
     6    3    8 ar   
     7    3    4 ar   
     8    4    5 ar   
     9    4   42 1    
    10    5    6 ar   
    11    5   43 1    
    12    6    7 ar   
    13    6   11 1    
    14    7    8 ar   
    15    7   44 1    
    16    8    9 1    
    17    9   10 1    
    18   10   45 1    
    19   10   46 1    
    20   10   47 1    
    21   11   12 1    
    22   11   13 1    
    23   11   21 1    
    24   13   14 2    
    25   13   15 am   BACKBONE|DICT|INTERRES
    26   15   16 1    
    27   15   48 1    
    28   16   20 1    
    29   16   17 1    
    30   16   49 1    
    31   17   18 1    
    32   17   50 1    
    33   17   51 1    
    34   18   19 1    
    35   18   52 1    
    36   18   53 1    
    37   19   20 1    
    38   19   54 1    
    39   19   55 1    
    40   20   56 1    
    41   20   57 1    
    42   21   22 1    
    43   21   28 am   BACKBONE|DICT|INTERRES
    44   22   23 1    
    45   22   58 1    
    46   22   59 1    
    47   23   27 1    
    48   23   24 2    
    49   24   25 1    
    50   24   60 1    
    51   25   26 2    
    52   25   61 1    
    53   26   27 1    
    54   26   62 1    
    55   28   29 2    
    56   28   30 1    
    57   30   34 1    
    58   30   31 2    
    59   31   32 1    
    60   31   38 1    
    61   32   33 2    
    62   32   35 1    
    63   33   34 1    
    64   35   36 2    
    65   35   37 am   BACKBONE|DICT|INTERRES
    66   37   63 1    
    67   37   64 1    
    68   38   65 1    
    69   38   66 1    
@<TRIPOS>SUBSTRUCTURE
     1 UNK         1 GROUP             0       ****    0 ROOT    
