ZINC50274040_96
                    3D
 Schrodinger Suite 2024-2.
 55 58  0  0  1  0            999 V2000
    6.4404   56.0955   25.2182 C   0  0  0  0  0  0
    6.1840   54.5954   25.1605 C   0  0  1  0  0  0
    7.1422   54.0868   25.0403 H   0  0  0  0  0  0
    5.7138   54.0965   26.5468 C   0  0  0  0  0  0
    6.5795   53.6803   27.3154 O   0  0  0  0  0  0
    4.3984   54.1822   26.8468 N   0  0  0  0  0  0
    3.7034   53.7341   27.9847 C   0  0  0  0  0  0
    2.3190   53.9361   27.9709 C   0  0  0  0  0  0
    1.5331   53.5036   29.0366 C   0  0  0  0  0  0
    2.1311   52.8685   30.1192 C   0  0  0  0  0  0
    3.5063   52.6601   30.1476 C   0  0  0  0  0  0
    4.2961   53.0917   29.0861 C   0  0  0  0  0  0
    1.3722   52.4564   31.1593 F   0  0  0  0  0  0
    5.3572   54.1617   23.9964 N   0  0  0  0  0  0
    3.9638   53.7466   23.9454 C   0  0  0  0  0  0
    3.7756   53.3698   22.5065 C   0  0  0  0  0  0
    4.9265   53.5767   21.8602 C   0  0  0  0  0  0
    5.9132   54.1328   22.7637 C   0  0  0  0  0  0
    7.0530   54.4978   22.4818 O   0  0  0  0  0  0
    5.0504   53.2103   20.3702 C   0  0  1  0  0  0
    5.9025   52.5566   20.1845 H   0  0  0  0  0  0
    3.8831   52.3620   20.0024 N   0  0  0  0  0  0
    2.6801   52.3114   20.6386 C   0  0  0  0  0  0
    1.6917   51.8941   20.0333 O   0  0  0  0  0  0
    2.6688   52.8162   21.9175 N   0  0  0  0  0  0
    1.4277   52.7006   22.7112 C   0  0  0  0  0  0
    1.1381   51.3625   23.3837 C   0  0  0  0  0  0
    1.8554   50.2302   23.2811 C   0  0  0  0  0  0
    5.3183   54.4224   19.4667 C   0  0  0  0  0  0
    6.6177   54.9328   19.3518 C   0  0  0  0  0  0
    6.8762   56.0286   18.5325 C   0  0  0  0  0  0
    5.8406   56.6078   17.8069 C   0  0  0  0  0  0
    4.5489   56.0937   17.8872 C   0  0  0  0  0  0
    4.2912   54.9988   18.7095 C   0  0  0  0  0  0
    6.0927   57.6714   17.0115 F   0  0  0  0  0  0
    7.0612   56.3501   26.0782 H   0  0  0  0  0  0
    6.9653   56.4092   24.3181 H   0  0  0  0  0  0
    5.5047   56.6435   25.2817 H   0  0  0  0  0  0
    3.8198   54.6125   26.1428 H   0  0  0  0  0  0
    1.8405   54.4208   27.1321 H   0  0  0  0  0  0
    0.4625   53.6527   29.0204 H   0  0  0  0  0  0
    3.9597   52.1685   30.9971 H   0  0  0  0  0  0
    5.3579   52.9044   29.1469 H   0  0  0  0  0  0
    3.2945   54.5459   24.2622 H   0  0  0  0  0  0
    3.7711   52.8986   24.6064 H   0  0  0  0  0  0
    3.9076   51.9285   19.0874 H   0  0  0  0  0  0
    1.3616   53.5051   23.4446 H   0  0  0  0  0  0
    0.5727   52.8894   22.0605 H   0  0  0  0  0  0
    0.2517   51.3441   24.0008 H   0  0  0  0  0  0
    1.5575   49.3352   23.8065 H   0  0  0  0  0  0
    2.7471   50.1685   22.6770 H   0  0  0  0  0  0
    7.4363   54.4969   19.9019 H   0  0  0  0  0  0
    7.8781   56.4279   18.4523 H   0  0  0  0  0  0
    3.7528   56.5472   17.3160 H   0  0  0  0  0  0
    3.2830   54.6135   18.7662 H   0  0  0  0  0  0
  1  2  1  0  0  0
  1 36  1  0  0  0
  1 37  1  0  0  0
  1 38  1  0  0  0
  2  3  1  0  0  0
  2  4  1  0  0  0
  2 14  1  0  0  0
  4  5  2  0  0  0
  4  6  1  0  0  0
  6  7  1  0  0  0
  6 39  1  0  0  0
  7 12  2  0  0  0
  7  8  1  0  0  0
  8  9  2  0  0  0
  8 40  1  0  0  0
  9 10  1  0  0  0
  9 41  1  0  0  0
 10 11  2  0  0  0
 10 13  1  0  0  0
 11 12  1  0  0  0
 11 42  1  0  0  0
 12 43  1  0  0  0
 14 18  1  0  0  0
 14 15  1  0  0  0
 15 16  1  0  0  0
 15 44  1  0  0  0
 15 45  1  0  0  0
 16 25  1  0  0  0
 16 17  2  0  0  0
 17 18  1  0  0  0
 17 20  1  0  0  0
 18 19  2  0  0  0
 20 21  1  0  0  0
 20 22  1  0  0  0
 20 29  1  0  0  0
 22 23  1  0  0  0
 22 46  1  0  0  0
 23 24  2  0  0  0
 23 25  1  0  0  0
 25 26  1  0  0  0
 26 27  1  0  0  0
 26 47  1  0  0  0
 26 48  1  0  0  0
 27 28  2  0  0  0
 27 49  1  0  0  0
 28 50  1  0  0  0
 28 51  1  0  0  0
 29 34  2  0  0  0
 29 30  1  0  0  0
 30 31  2  0  0  0
 30 52  1  0  0  0
 31 32  1  0  0  0
 31 53  1  0  0  0
 32 33  2  0  0  0
 32 35  1  0  0  0
 33 34  1  0  0  0
 33 54  1  0  0  0
 34 55  1  0  0  0
M  END
> <i_i_glide_confnum>
77

> <i_i_glide_lignum>
97

> <i_i_glide_posenum>
334

> <i_i_glide_rotatable_bonds>
7

> <i_m_Source_File_Index>
1841

> <b_m_subgroup_collapsed>
0

> <r_i_docking_score>
-6.46761

> <r_i_glide_ecoul>
0.66814

> <r_i_glide_eff_state_penalty>
0

> <r_i_glide_einternal>
8.39676

> <r_i_glide_emodel>
-61.8882

> <r_i_glide_energy>
-47.7477

> <r_i_glide_erotb>
0.588096

> <r_i_glide_esite>
-0.140865

> <r_i_glide_evdw>
-48.4158

> <r_i_glide_gscore>
-6.46761

> <r_i_glide_hbond>
-0.0200118

> <r_i_glide_ligand_efficiency>
-0.195988

> <r_i_glide_ligand_efficiency_ln>
-1.43836

> <r_i_glide_ligand_efficiency_sa>
-0.628639

> <r_i_glide_lipo>
-2.93762

> <r_i_glide_metal>
0

> <r_i_glide_rewards>
-1.63664

> <s_i_glide_gridfile>
wee1_glide-grid

> <s_m_Source_File>
wee1_decoys_glide_SP.sdf

> <s_m_Source_Path>
/Users/zhangxujun/Desktop

> <s_m_entry_id>
2116

> <s_m_entry_name>
wee1_decoys_glide_SP.1841

> <s_m_subgroup_title>
wee1_decoys_glide_SP

> <s_m_subgroupid>
wee1_decoys_glide_SP


$$$$
