@<TRIPOS>MOLECULE
ZINC20119145_2355
50   52    1
SMALL
USER_CHARGES


@<TRIPOS>ATOM
      1 C1          2.5374   49.8517   19.6893 C.3       1 UNK         0.0000 
      2 C2          1.9369   51.1786   20.1840 C.3       1 UNK         0.0000 
      3 H3          0.9923   51.3489   19.6624 H         1 UNK         0.0000 
      4 C4          2.8896   52.3165   19.7905 C.ar      1 UNK         0.0000 
      5 C5          3.8172   52.8531   20.6980 C.ar      1 UNK         0.0000 
      6 C6          4.6810   53.8707   20.2978 C.ar      1 UNK         0.0000 
      7 C7          4.6199   54.3598   18.9963 C.ar      1 UNK         0.0000 
      8 C8          3.6995   53.8409   18.0893 C.ar      1 UNK         0.0000 
      9 C9          2.8357   52.8230   18.4861 C.ar      1 UNK         0.0000 
     10 N10         1.6184   51.1838   21.6193 N.am      1 UNK         0.0000 
     11 C11         0.8423   50.3269   22.3155 C.2       1 UNK         0.0000 
     12 O12         0.3268   49.3214   21.8271 O.2       1 UNK         0.0000 
     13 C13         0.6608   50.6585   23.7812 C.ar      1 UNK         0.0000 
     14 C14         0.4086   49.6414   24.7168 C.ar      1 UNK         0.0000 
     15 C15         0.3046   49.9345   26.0785 C.ar      1 UNK         0.0000 
     16 C16         0.4559   51.2514   26.5146 C.ar      1 UNK         0.0000 
     17 C17         0.6237   52.2743   25.5794 C.ar      1 UNK         0.0000 
     18 C18         0.7340   51.9848   24.2280 C.ar      1 UNK         0.0000 
     19 N19         0.4582   51.5342   27.8962 N.pl3     1 UNK         0.0000 
     20 C20         1.3036   52.3564   28.5917 C.2       1 UNK         0.0000 
     21 S21         0.8723   52.7460   30.1564 S.2       1 UNK         0.0000 
     22 N22         2.4354   52.7497   27.9145 N.am      1 UNK         0.0000 
     23 C23         3.4377   53.6223   28.1927 C.2       1 UNK         0.0000 
     24 O24         3.6697   54.1256   29.2954 O.2       1 UNK         0.0000 
     25 C25         4.2910   53.9688   26.9880 C.ar      1 UNK         0.0000 
     26 C26         3.6714   54.2015   25.7472 C.ar      1 UNK         0.0000 
     27 C27         4.4136   54.4992   24.6097 C.ar      1 UNK         0.0000 
     28 C28         5.7946   54.6167   24.6969 C.ar      1 UNK         0.0000 
     29 C29         6.4313   54.3954   25.9137 C.ar      1 UNK         0.0000 
     30 C30         5.6990   54.0499   27.0514 C.ar      1 UNK         0.0000 
     31 Cl31        6.6034   53.6967   28.4819 Cl        1 UNK         0.0000 
     32 Cl32        6.7053   55.0592   23.3028 Cl        1 UNK         0.0000 
     33 H33         2.7036   49.8692   18.6103 H         1 UNK         0.0000 
     34 H34         3.5041   49.6960   20.1603 H         1 UNK         0.0000 
     35 H35         1.9104   48.9878   19.8984 H         1 UNK         0.0000 
     36 H36         3.8948   52.4716   21.7066 H         1 UNK         0.0000 
     37 H37         5.3986   54.2780   20.9919 H         1 UNK         0.0000 
     38 H38         5.2912   55.1466   18.6861 H         1 UNK         0.0000 
     39 H39         3.6615   54.2206   17.0785 H         1 UNK         0.0000 
     40 H40         2.1370   52.4142   17.7700 H         1 UNK         0.0000 
     41 H41         1.8909   52.0249   22.0980 H         1 UNK         0.0000 
     42 H42         0.3304   48.6099   24.4006 H         1 UNK         0.0000 
     43 H43         0.1430   49.1332   26.7867 H         1 UNK         0.0000 
     44 H44         0.6984   53.2969   25.9045 H         1 UNK         0.0000 
     45 H45         0.8843   52.8053   23.5399 H         1 UNK         0.0000 
     46 H46        -0.3002   51.1172   28.4203 H         1 UNK         0.0000 
     47 H47         2.4787   52.3918   26.9730 H         1 UNK         0.0000 
     48 H48         2.6003   54.1743   25.6430 H         1 UNK         0.0000 
     49 H49         3.9142   54.6750   23.6665 H         1 UNK         0.0000 
     50 H50         7.5039   54.4805   25.9689 H         1 UNK         0.0000 
@<TRIPOS>BOND
     1    1    2 1    
     2    1   33 1    
     3    1   34 1    
     4    1   35 1    
     5    2    3 1    
     6    2    4 1    
     7    2   10 1    
     8    4    9 ar   
     9    4    5 ar   
    10    5    6 ar   
    11    5   36 1    
    12    6    7 ar   
    13    6   37 1    
    14    7    8 ar   
    15    7   38 1    
    16    8    9 ar   
    17    8   39 1    
    18    9   40 1    
    19   10   11 am   BACKBONE|DICT|INTERRES
    20   10   41 1    
    21   11   12 2    
    22   11   13 1    
    23   13   18 ar   
    24   13   14 ar   
    25   14   15 ar   
    26   14   42 1    
    27   15   16 ar   
    28   15   43 1    
    29   16   17 ar   
    30   16   19 1    
    31   17   18 ar   
    32   17   44 1    
    33   18   45 1    
    34   19   20 1    
    35   19   46 1    
    36   20   21 2    
    37   20   22 am   BACKBONE|DICT|INTERRES
    38   22   23 am   BACKBONE|DICT|INTERRES
    39   22   47 1    
    40   23   24 2    
    41   23   25 1    
    42   25   30 ar   
    43   25   26 ar   
    44   26   27 ar   
    45   26   48 1    
    46   27   28 ar   
    47   27   49 1    
    48   28   29 ar   
    49   28   32 1    
    50   29   30 ar   
    51   29   50 1    
    52   30   31 1    
@<TRIPOS>SUBSTRUCTURE
     1 UNK         1 GROUP             0       ****    0 ROOT    
