@<TRIPOS>MOLECULE
ZINC39667095_588
74   77    1
SMALL
USER_CHARGES


@<TRIPOS>ATOM
      1 C1          0.2999   48.9732   25.0400 C.3       1 UNK         0.0000 
      2 C2         -1.1248   49.5566   25.0924 C.3       1 UNK         0.0000 
      3 C3         -1.3610   50.7929   24.1750 C.3       1 UNK         0.0000 
      4 H4         -0.5998   51.5204   24.4491 H         1 UNK         0.0000 
      5 C5         -2.6979   51.5112   24.4357 C.ar      1 UNK         0.0000 
      6 C6         -3.8421   50.8070   24.8353 C.ar      1 UNK         0.0000 
      7 C7         -5.0398   51.4806   25.0599 C.ar      1 UNK         0.0000 
      8 C8         -5.1029   52.8606   24.8822 C.ar      1 UNK         0.0000 
      9 C9         -3.9770   53.5724   24.4812 C.ar      1 UNK         0.0000 
     10 C10        -2.7811   52.8971   24.2445 C.ar      1 UNK         0.0000 
     11 C11        -1.2287   50.4091   22.6751 C.2       1 UNK         0.0000 
     12 O12        -2.1472   49.7821   22.1407 O.2       1 UNK         0.0000 
     13 N13        -0.1149   50.7497   21.9775 N.am      1 UNK         0.0000 
     14 C14         1.0605   51.4177   22.5299 C.3       1 UNK         0.0000 
     15 C15         2.1934   51.0067   21.5573 C.3       1 UNK         0.0000 
     16 H16         2.5931   50.0710   21.9541 H         1 UNK         0.0000 
     17 C17         1.5001   50.8192   20.1769 C.3       1 UNK         0.0000 
     18 C18         0.1089   50.2875   20.6063 C.3       1 UNK         0.0000 
     19 C19         1.3745   52.1473   19.3620 C.3       1 UNK         0.0000 
     20 C20         0.5984   51.9671   18.0350 C.3       1 UNK         0.0000 
     21 N21         1.2715   50.8428   17.2072 N.4       1 UNK         0.0000 
     22 C22         1.4357   49.5218   17.9854 C.3       1 UNK         0.0000 
     23 C23         2.2624   49.8395   19.2493 C.3       1 UNK         0.0000 
     24 C24         3.3565   52.0363   21.6135 C.2       1 UNK         0.0000 
     25 O25         4.4842   51.6718   21.2818 O.2       1 UNK         0.0000 
     26 N26         3.1058   53.2931   22.0242 N.am      1 UNK         0.0000 
     27 C27         4.0933   54.3563   22.1812 C.3       1 UNK         0.0000 
     28 C28         5.0817   54.1926   23.3618 C.3       1 UNK         0.0000 
     29 C29         4.5516   54.2416   24.8094 C.ar      1 UNK         0.0000 
     30 C30         3.1883   54.0958   25.1086 C.ar      1 UNK         0.0000 
     31 C31         2.7404   54.0953   26.4286 C.ar      1 UNK         0.0000 
     32 C32         3.6375   54.2704   27.4789 C.ar      1 UNK         0.0000 
     33 C33         4.9948   54.4165   27.1978 C.ar      1 UNK         0.0000 
     34 C34         5.4567   54.4060   25.8763 C.ar      1 UNK         0.0000 
     35 C35         6.9495   54.5615   25.6375 C.3       1 UNK         0.0000 
     36 C36         3.1494   54.2818   28.9160 C.3       1 UNK         0.0000 
     37 H37         0.3790   48.0967   25.6821 H         1 UNK         0.0000 
     38 H38         0.5793   48.6506   24.0379 H         1 UNK         0.0000 
     39 H39         1.0379   49.6962   25.3833 H         1 UNK         0.0000 
     40 H40        -1.3345   49.8225   26.1296 H         1 UNK         0.0000 
     41 H41        -1.8239   48.7565   24.8469 H         1 UNK         0.0000 
     42 H42        -3.8153   49.7378   24.9770 H         1 UNK         0.0000 
     43 H43        -5.9167   50.9318   25.3693 H         1 UNK         0.0000 
     44 H44        -6.0340   53.3771   25.0552 H         1 UNK         0.0000 
     45 H45        -4.0369   54.6413   24.3417 H         1 UNK         0.0000 
     46 H46        -1.9147   53.4551   23.9194 H         1 UNK         0.0000 
     47 H47         0.8382   52.4845   22.4531 H         1 UNK         0.0000 
     48 H48         1.3329   51.1148   23.5428 H         1 UNK         0.0000 
     49 H49         0.1950   49.2024   20.6923 H         1 UNK         0.0000 
     50 H50        -0.7039   50.4696   19.9066 H         1 UNK         0.0000 
     51 H51         0.8506   52.8968   19.9576 H         1 UNK         0.0000 
     52 H52         2.3544   52.5843   19.1483 H         1 UNK         0.0000 
     53 H53        -0.4430   51.6760   18.1693 H         1 UNK         0.0000 
     54 H54         0.6323   52.8673   17.4180 H         1 UNK         0.0000 
     55 H55         0.7575   50.6761   16.3518 H         1 UNK         0.0000 
     56 H56         0.4339   49.1436   18.1947 H         1 UNK         0.0000 
     57 H57         1.9258   48.8265   17.3044 H         1 UNK         0.0000 
     58 H58         3.2560   50.2181   19.0013 H         1 UNK         0.0000 
     59 H59         2.4382   48.8975   19.7727 H         1 UNK         0.0000 
     60 H60         2.1478   53.5562   22.1971 H         1 UNK         0.0000 
     61 H61         4.6154   54.5646   21.2444 H         1 UNK         0.0000 
     62 H62         3.5006   55.2502   22.3719 H         1 UNK         0.0000 
     63 H63         5.6418   53.2662   23.2309 H         1 UNK         0.0000 
     64 H64         5.8233   54.9827   23.2457 H         1 UNK         0.0000 
     65 H65         2.4517   53.9682   24.3382 H         1 UNK         0.0000 
     66 H66         1.6889   53.9713   26.6345 H         1 UNK         0.0000 
     67 H67         5.6948   54.5494   28.0107 H         1 UNK         0.0000 
     68 H68         7.5058   54.4700   26.5684 H         1 UNK         0.0000 
     69 H69         7.3112   53.7860   24.9629 H         1 UNK         0.0000 
     70 H70         7.1657   55.5263   25.1825 H         1 UNK         0.0000 
     71 H71         2.2877   53.6257   29.0369 H         1 UNK         0.0000 
     72 H72         3.9210   53.9168   29.5937 H         1 UNK         0.0000 
     73 H73         2.8679   55.2905   29.2157 H         1 UNK         0.0000 
     74 H74         2.1996   51.1386   16.9254 H         1 UNK         0.0000 
@<TRIPOS>BOND
     1    1    2 1    
     2    1   37 1    
     3    1   38 1    
     4    1   39 1    
     5    2    3 1    
     6    2   40 1    
     7    2   41 1    
     8    3    4 1    
     9    3    5 1    
    10    3   11 1    
    11    5   10 ar   
    12    5    6 ar   
    13    6    7 ar   
    14    6   42 1    
    15    7    8 ar   
    16    7   43 1    
    17    8    9 ar   
    18    8   44 1    
    19    9   10 ar   
    20    9   45 1    
    21   10   46 1    
    22   11   12 2    
    23   11   13 am   BACKBONE|DICT|INTERRES
    24   13   18 1    
    25   13   14 1    
    26   14   15 1    
    27   14   47 1    
    28   14   48 1    
    29   15   16 1    
    30   15   17 1    
    31   15   24 1    
    32   17   23 1    
    33   17   18 1    
    34   17   19 1    
    35   18   49 1    
    36   18   50 1    
    37   19   20 1    
    38   19   51 1    
    39   19   52 1    
    40   20   21 1    
    41   20   53 1    
    42   20   54 1    
    43   21   22 1    
    44   21   55 1    
    45   21   74 1    
    46   22   23 1    
    47   22   56 1    
    48   22   57 1    
    49   23   58 1    
    50   23   59 1    
    51   24   25 2    
    52   24   26 am   BACKBONE|DICT|INTERRES
    53   26   27 1    
    54   26   60 1    
    55   27   28 1    
    56   27   61 1    
    57   27   62 1    
    58   28   29 1    
    59   28   63 1    
    60   28   64 1    
    61   29   34 ar   
    62   29   30 ar   
    63   30   31 ar   
    64   30   65 1    
    65   31   32 ar   
    66   31   66 1    
    67   32   33 ar   
    68   32   36 1    
    69   33   34 ar   
    70   33   67 1    
    71   34   35 1    
    72   35   68 1    
    73   35   69 1    
    74   35   70 1    
    75   36   71 1    
    76   36   72 1    
    77   36   73 1    
@<TRIPOS>SUBSTRUCTURE
     1 UNK         1 GROUP             0       ****    0 ROOT    
