@<TRIPOS>MOLECULE
ZINC58821561_452
61   64    1
SMALL
USER_CHARGES


@<TRIPOS>ATOM
      1 C1          4.9035   54.2845   20.8223 C.3       1 UNK         0.0000 
      2 C2          4.0009   54.1039   22.0577 C.3       1 UNK         0.0000 
      3 H3          3.3303   54.9671   22.0411 H         1 UNK         0.0000 
      4 C4          4.7246   54.1741   23.4210 C.ar      1 UNK         0.0000 
      5 C5          6.1107   54.3635   23.5425 C.ar      1 UNK         0.0000 
      6 C6          6.7043   54.4613   24.8016 C.ar      1 UNK         0.0000 
      7 C7          5.9364   54.3382   25.9582 C.ar      1 UNK         0.0000 
      8 C8          4.5600   54.1303   25.8660 C.ar      1 UNK         0.0000 
      9 C9          3.9680   54.0967   24.5961 C.ar      1 UNK         0.0000 
     10 N10         3.8608   53.9334   27.0713 N.am      1 UNK         0.0000 
     11 C11         2.6012   53.4764   27.2642 C.2       1 UNK         0.0000 
     12 O12         1.7642   53.2963   26.3792 O.2       1 UNK         0.0000 
     13 C13         2.2380   53.1610   28.6929 C.ar      1 UNK         0.0000 
     14 C14         0.8946   53.2301   29.0940 C.ar      1 UNK         0.0000 
     15 C15         0.5304   52.8976   30.3941 C.ar      1 UNK         0.0000 
     16 C16         1.5081   52.4966   31.2955 C.ar      1 UNK         0.0000 
     17 C17         2.8460   52.4181   30.9118 C.ar      1 UNK         0.0000 
     18 C18         3.2129   52.7481   29.6138 C.ar      1 UNK         0.0000 
     19 N19         3.1897   52.8945   21.8718 N.am      1 UNK         0.0000 
     20 C20         1.9242   52.7117   22.2924 C.2       1 UNK         0.0000 
     21 O21         1.2652   53.5660   22.8818 O.2       1 UNK         0.0000 
     22 C22         1.3304   51.3607   22.0176 C.ar      1 UNK         0.0000 
     23 C23         1.4603   50.7540   20.7612 C.ar      1 UNK         0.0000 
     24 C24         0.8432   49.5311   20.5060 C.ar      1 UNK         0.0000 
     25 C25         0.1046   48.8967   21.5037 C.ar      1 UNK         0.0000 
     26 C26         0.0040   49.4677   22.7833 C.ar      1 UNK         0.0000 
     27 C27         0.6056   50.7068   23.0213 C.ar      1 UNK         0.0000 
     28 N28        -0.6512   48.8815   23.8823 N.am      1 UNK         0.0000 
     29 C29        -1.4150   47.7695   23.9565 C.2       1 UNK         0.0000 
     30 O30        -1.7068   47.0470   23.0018 O.2       1 UNK         0.0000 
     31 C31        -1.9653   47.4654   25.3659 C.3       1 UNK         0.0000 
     32 H32        -1.1739   47.6992   26.0812 H         1 UNK         0.0000 
     33 C33        -3.2486   48.2526   25.6821 C.3       1 UNK         0.0000 
     34 C34        -4.0978   47.2775   26.4812 C.3       1 UNK         0.0000 
     35 C35        -3.2326   46.0293   26.6230 C.3       1 UNK         0.0000 
     36 O36        -2.3475   46.0969   25.5098 O.3       1 UNK         0.0000 
     37 H37         5.4546   55.2255   20.8578 H         1 UNK         0.0000 
     38 H38         5.6198   53.4694   20.7225 H         1 UNK         0.0000 
     39 H39         4.3101   54.3043   19.9074 H         1 UNK         0.0000 
     40 H40         6.7469   54.4487   22.6745 H         1 UNK         0.0000 
     41 H41         7.7699   54.6071   24.8808 H         1 UNK         0.0000 
     42 H42         6.4220   54.3784   26.9228 H         1 UNK         0.0000 
     43 H43         2.9063   54.0041   24.5089 H         1 UNK         0.0000 
     44 H44         4.4124   54.0593   27.9035 H         1 UNK         0.0000 
     45 H45         0.1234   53.5255   28.3943 H         1 UNK         0.0000 
     46 H46        -0.5038   52.9366   30.7036 H         1 UNK         0.0000 
     47 H47         1.2197   52.2334   32.3046 H         1 UNK         0.0000 
     48 H48         3.5931   52.0962   31.6243 H         1 UNK         0.0000 
     49 H49         4.2540   52.6548   29.3351 H         1 UNK         0.0000 
     50 H50         3.6451   52.1201   21.4168 H         1 UNK         0.0000 
     51 H51         2.0133   51.2376   19.9647 H         1 UNK         0.0000 
     52 H52         0.9353   49.0796   19.5310 H         1 UNK         0.0000 
     53 H53        -0.3530   47.9518   21.2662 H         1 UNK         0.0000 
     54 H54         0.5185   51.1682   23.9961 H         1 UNK         0.0000 
     55 H55        -0.5232   49.3757   24.7527 H         1 UNK         0.0000 
     56 H56        -3.7909   48.5816   24.7932 H         1 UNK         0.0000 
     57 H57        -3.0158   49.1268   26.2942 H         1 UNK         0.0000 
     58 H58        -5.0166   47.0408   25.9435 H         1 UNK         0.0000 
     59 H59        -4.3767   47.6791   27.4563 H         1 UNK         0.0000 
     60 H60        -3.8125   45.1054   26.6081 H         1 UNK         0.0000 
     61 H61        -2.6533   46.0039   27.5494 H         1 UNK         0.0000 
@<TRIPOS>BOND
     1    1    2 1    
     2    1   37 1    
     3    1   38 1    
     4    1   39 1    
     5    2    3 1    
     6    2    4 1    
     7    2   19 1    
     8    4    9 ar   
     9    4    5 ar   
    10    5    6 ar   
    11    5   40 1    
    12    6    7 ar   
    13    6   41 1    
    14    7    8 ar   
    15    7   42 1    
    16    8    9 ar   
    17    8   10 1    
    18    9   43 1    
    19   10   11 am   BACKBONE|DICT|INTERRES
    20   10   44 1    
    21   11   12 2    
    22   11   13 1    
    23   13   18 ar   
    24   13   14 ar   
    25   14   15 ar   
    26   14   45 1    
    27   15   16 ar   
    28   15   46 1    
    29   16   17 ar   
    30   16   47 1    
    31   17   18 ar   
    32   17   48 1    
    33   18   49 1    
    34   19   20 am   BACKBONE|DICT|INTERRES
    35   19   50 1    
    36   20   21 2    
    37   20   22 1    
    38   22   27 ar   
    39   22   23 ar   
    40   23   24 ar   
    41   23   51 1    
    42   24   25 ar   
    43   24   52 1    
    44   25   26 ar   
    45   25   53 1    
    46   26   27 ar   
    47   26   28 1    
    48   27   54 1    
    49   28   29 am   BACKBONE|DICT|INTERRES
    50   28   55 1    
    51   29   30 2    
    52   29   31 1    
    53   31   32 1    
    54   31   36 1    
    55   31   33 1    
    56   33   34 1    
    57   33   56 1    
    58   33   57 1    
    59   34   35 1    
    60   34   58 1    
    61   34   59 1    
    62   35   36 1    
    63   35   60 1    
    64   35   61 1    
@<TRIPOS>SUBSTRUCTURE
     1 UNK         1 GROUP             0       ****    0 ROOT    
