ZINC13084773_2751
                    3D
 Schrodinger Suite 2024-2.
 64 67  0  0  1  0            999 V2000
    2.7617   52.0886   17.8605 C   0  0  0  0  0  0
    3.4536   52.8646   16.7440 C   0  0  0  0  0  0
    3.0986   52.5830   15.4208 C   0  0  0  0  0  0
    3.7124   53.2515   14.3645 C   0  0  0  0  0  0
    4.6900   54.2079   14.6220 C   0  0  0  0  0  0
    5.0567   54.4964   15.9363 C   0  0  0  0  0  0
    4.4443   53.8309   17.0130 C   0  0  0  0  0  0
    4.7793   54.0577   18.3667 N   0  0  0  0  0  0
    5.4933   55.0493   18.9460 C   0  0  0  0  0  0
    6.0437   55.9522   18.3074 O   0  0  0  0  0  0
    5.6320   54.9324   20.2984 N   0  0  0  0  0  0
    6.5100   55.8960   20.9977 C   0  0  0  0  0  0
    7.1355   55.2414   22.2536 C   0  0  0  0  0  0
    6.0893   54.5812   23.0584 N   0  0  0  0  0  0
    5.2756   53.5899   22.3292 C   0  0  0  0  0  0
    4.5903   54.3056   21.1473 C   0  0  0  0  0  0
    5.9369   54.8949   24.3776 C   0  0  0  0  0  0
    6.6776   55.6997   24.9504 O   0  0  0  0  0  0
    4.8006   54.2177   25.2046 C   0  0  2  0  0  0
    4.9264   53.1563   25.0420 H   0  0  0  0  0  0
    3.3673   54.6450   24.7786 C   0  0  0  0  0  0
    2.3035   53.5555   25.0004 C   0  0  0  0  0  0
    1.9092   52.7800   23.9039 C   0  0  0  0  0  0
    1.0049   51.7364   24.0405 C   0  0  0  0  0  0
    0.4572   51.4341   25.2795 C   0  0  0  0  0  0
    0.7948   52.2025   26.4180 C   0  0  0  0  0  0
    1.7113   53.2979   26.2879 C   0  0  0  0  0  0
    1.9563   54.0893   27.4486 C   0  0  0  0  0  0
    1.3700   53.7775   28.6732 C   0  0  0  0  0  0
    0.5262   52.6815   28.7941 C   0  0  0  0  0  0
    0.2294   51.8973   27.6840 C   0  0  0  0  0  0
    4.9481   54.3854   26.6497 N   0  0  0  0  0  0
    5.9480   53.9313   27.4083 C   0  0  0  0  0  0
    6.9104   53.2983   26.9872 O   0  0  0  0  0  0
    5.8341   54.2543   28.8798 C   0  0  0  0  0  0
    2.1856   51.2456   17.4776 H   0  0  0  0  0  0
    3.5010   51.6777   18.5477 H   0  0  0  0  0  0
    2.1023   52.7438   18.4287 H   0  0  0  0  0  0
    2.3493   51.8349   15.2070 H   0  0  0  0  0  0
    3.4339   53.0204   13.3473 H   0  0  0  0  0  0
    5.1724   54.7200   13.8030 H   0  0  0  0  0  0
    5.8310   55.2309   16.0815 H   0  0  0  0  0  0
    4.3754   53.3776   18.9938 H   0  0  0  0  0  0
    7.3247   56.2358   20.3571 H   0  0  0  0  0  0
    5.9016   56.7386   21.3199 H   0  0  0  0  0  0
    7.6797   56.0023   22.8136 H   0  0  0  0  0  0
    7.8648   54.4967   21.9480 H   0  0  0  0  0  0
    5.9046   52.7896   21.9467 H   0  0  0  0  0  0
    4.5355   53.0854   22.9453 H   0  0  0  0  0  0
    3.9439   53.6068   20.6153 H   0  0  0  0  0  0
    3.9620   55.0956   21.5602 H   0  0  0  0  0  0
    3.3324   54.9141   23.7246 H   0  0  0  0  0  0
    3.1045   55.5659   25.2804 H   0  0  0  0  0  0
    2.3221   52.9755   22.9272 H   0  0  0  0  0  0
    0.7337   51.1470   23.1757 H   0  0  0  0  0  0
   -0.2337   50.6076   25.3792 H   0  0  0  0  0  0
    2.5772   54.9656   27.3883 H   0  0  0  0  0  0
    1.5710   54.3969   29.5353 H   0  0  0  0  0  0
    0.0813   52.4473   29.7523 H   0  0  0  0  0  0
   -0.4456   51.0570   27.7822 H   0  0  0  0  0  0
    4.2141   54.9039   27.0996 H   0  0  0  0  0  0
    5.5192   55.2892   29.0472 H   0  0  0  0  0  0
    5.1122   53.5818   29.3462 H   0  0  0  0  0  0
    6.8319   54.1049   29.2840 H   0  0  0  0  0  0
  1  2  1  0  0  0
  1 36  1  0  0  0
  1 37  1  0  0  0
  1 38  1  0  0  0
  2  7  2  0  0  0
  2  3  1  0  0  0
  3  4  2  0  0  0
  3 39  1  0  0  0
  4  5  1  0  0  0
  4 40  1  0  0  0
  5  6  2  0  0  0
  5 41  1  0  0  0
  6  7  1  0  0  0
  6 42  1  0  0  0
  7  8  1  0  0  0
  8  9  1  0  0  0
  8 43  1  0  0  0
  9 10  2  0  0  0
  9 11  1  0  0  0
 11 16  1  0  0  0
 11 12  1  0  0  0
 12 13  1  0  0  0
 12 44  1  0  0  0
 12 45  1  0  0  0
 13 14  1  0  0  0
 13 46  1  0  0  0
 13 47  1  0  0  0
 14 15  1  0  0  0
 14 17  1  0  0  0
 15 16  1  0  0  0
 15 48  1  0  0  0
 15 49  1  0  0  0
 16 50  1  0  0  0
 16 51  1  0  0  0
 17 18  2  0  0  0
 17 19  1  0  0  0
 19 20  1  0  0  0
 19 21  1  0  0  0
 19 32  1  0  0  0
 21 22  1  0  0  0
 21 52  1  0  0  0
 21 53  1  0  0  0
 22 27  2  0  0  0
 22 23  1  0  0  0
 23 24  2  0  0  0
 23 54  1  0  0  0
 24 25  1  0  0  0
 24 55  1  0  0  0
 25 26  2  0  0  0
 25 56  1  0  0  0
 26 31  1  0  0  0
 26 27  1  0  0  0
 27 28  1  0  0  0
 28 29  2  0  0  0
 28 57  1  0  0  0
 29 30  1  0  0  0
 29 58  1  0  0  0
 30 31  2  0  0  0
 30 59  1  0  0  0
 31 60  1  0  0  0
 32 33  1  0  0  0
 32 61  1  0  0  0
 33 34  2  0  0  0
 33 35  1  0  0  0
 35 62  1  0  0  0
 35 63  1  0  0  0
 35 64  1  0  0  0
M  END
> <i_i_glide_confnum>
353

> <i_i_glide_lignum>
2752

> <i_i_glide_posenum>
208

> <i_i_glide_rotatable_bonds>
9

> <i_m_Source_File_Index>
5781

> <b_m_subgroup_collapsed>
0

> <r_i_docking_score>
-6.12522

> <r_i_glide_ecoul>
-2.5179

> <r_i_glide_eff_state_penalty>
0

> <r_i_glide_einternal>
10.8775

> <r_i_glide_emodel>
-58.5409

> <r_i_glide_energy>
-46.1101

> <r_i_glide_erotb>
0.669594

> <r_i_glide_esite>
-0.0171415

> <r_i_glide_evdw>
-43.5922

> <r_i_glide_gscore>
-6.12522

> <r_i_glide_hbond>
-0.112696

> <r_i_glide_ligand_efficiency>
-0.180154

> <r_i_glide_ligand_efficiency_ln>
-1.35323

> <r_i_glide_ligand_efficiency_sa>
-0.583628

> <r_i_glide_lipo>
-2.34768

> <r_i_glide_metal>
0

> <r_i_glide_rewards>
-1.76

> <s_i_glide_gridfile>
wee1_glide-grid

> <s_m_Source_File>
wee1_decoys_glide_SP.sdf

> <s_m_Source_Path>
/Users/zhangxujun/Desktop

> <s_m_entry_id>
6056

> <s_m_entry_name>
wee1_decoys_glide_SP.5781

> <s_m_subgroup_title>
wee1_decoys_glide_SP

> <s_m_subgroupid>
wee1_decoys_glide_SP


$$$$
