ZINC03341412_2036
                    3D
 Schrodinger Suite 2024-2.
 48 51  0  0  1  0            999 V2000
    5.1086   54.3616   21.9404 C   0  0  0  0  0  0
    6.3458   54.7140   22.4629 C   0  0  0  0  0  0
    6.5373   54.7745   23.8365 C   0  0  0  0  0  0
    5.4723   54.4977   24.7239 C   0  0  0  0  0  0
    4.1746   54.1640   24.2110 C   0  0  0  0  0  0
    4.0363   54.0923   22.7873 C   0  0  0  0  0  0
    3.1085   53.9133   25.1585 C   0  0  0  0  0  0
    3.4369   54.0183   26.5247 C   0  0  0  0  0  0
    4.7425   54.3016   26.9106 C   0  0  0  0  0  0
    5.7468   54.5583   26.0522 N   0  0  0  0  0  0
    4.9085   54.2338   28.4113 C   0  0  0  0  0  0
    3.4703   54.2980   28.9166 C   0  0  0  0  0  0
    2.5902   53.7942   27.7674 C   0  0  0  0  0  0
    1.7326   53.5410   24.6928 C   0  0  0  0  0  0
    1.1613   54.0557   23.7265 O   0  0  0  0  0  0
    1.2160   52.5159   25.4240 O   0  0  0  0  0  0
   -0.0928   51.9818   25.1958 C   0  0  0  0  0  0
   -0.8643   51.8754   26.5220 C   0  0  0  0  0  0
   -0.4905   52.4933   27.5235 O   0  0  0  0  0  0
   -1.9867   51.1287   26.4698 N   0  0  0  0  0  0
   -2.6882   50.8955   27.6518 N   0  0  0  0  0  0
   -3.9796   51.2966   27.7123 C   0  0  0  0  0  0
   -4.5457   51.9186   26.8068 O   0  0  0  0  0  0
   -4.7343   50.9677   28.9894 C   0  0  0  0  0  0
   -6.0963   51.2861   29.0953 C   0  0  0  0  0  0
   -6.7959   51.0349   30.2741 C   0  0  0  0  0  0
   -6.1402   50.4629   31.3604 C   0  0  0  0  0  0
   -4.7929   50.1323   31.2714 C   0  0  0  0  0  0
   -4.0962   50.3805   30.0937 C   0  0  0  0  0  0
   -7.0887   50.1402   32.9803 Br  0  0  0  0  0  0
    4.9718   54.3058   20.8708 H   0  0  0  0  0  0
    7.1686   54.9318   21.7964 H   0  0  0  0  0  0
    7.5040   55.0420   24.2382 H   0  0  0  0  0  0
    3.0943   53.8250   22.3318 H   0  0  0  0  0  0
    5.3848   53.2958   28.6993 H   0  0  0  0  0  0
    5.5109   55.0458   28.8195 H   0  0  0  0  0  0
    3.3258   53.7292   29.8343 H   0  0  0  0  0  0
    3.2172   55.3353   29.1386 H   0  0  0  0  0  0
    1.6392   54.3273   27.7402 H   0  0  0  0  0  0
    2.3734   52.7329   27.9002 H   0  0  0  0  0  0
    0.0288   50.9846   24.7735 H   0  0  0  0  0  0
   -0.6918   52.5529   24.4848 H   0  0  0  0  0  0
   -2.1547   50.4255   25.7649 H   0  0  0  0  0  0
   -2.3823   50.0318   28.0959 H   0  0  0  0  0  0
   -6.6262   51.7358   28.2679 H   0  0  0  0  0  0
   -7.8432   51.2829   30.3478 H   0  0  0  0  0  0
   -4.2797   49.7008   32.1197 H   0  0  0  0  0  0
   -3.0490   50.1152   30.0697 H   0  0  0  0  0  0
  1  6  2  0  0  0
  1  2  1  0  0  0
  1 31  1  0  0  0
  2  3  2  0  0  0
  2 32  1  0  0  0
  3  4  1  0  0  0
  3 33  1  0  0  0
  4 10  2  0  0  0
  4  5  1  0  0  0
  5  6  1  0  0  0
  5  7  2  0  0  0
  6 34  1  0  0  0
  7  8  1  0  0  0
  7 14  1  0  0  0
  8 13  1  0  0  0
  8  9  2  0  0  0
  9 10  1  0  0  0
  9 11  1  0  0  0
 11 12  1  0  0  0
 11 35  1  0  0  0
 11 36  1  0  0  0
 12 13  1  0  0  0
 12 37  1  0  0  0
 12 38  1  0  0  0
 13 39  1  0  0  0
 13 40  1  0  0  0
 14 15  2  0  0  0
 14 16  1  0  0  0
 16 17  1  0  0  0
 17 18  1  0  0  0
 17 41  1  0  0  0
 17 42  1  0  0  0
 18 19  2  0  0  0
 18 20  1  0  0  0
 20 21  1  0  0  0
 20 43  1  0  0  0
 21 22  1  0  0  0
 21 44  1  0  0  0
 22 23  2  0  0  0
 22 24  1  0  0  0
 24 29  2  0  0  0
 24 25  1  0  0  0
 25 26  2  0  0  0
 25 45  1  0  0  0
 26 27  1  0  0  0
 26 46  1  0  0  0
 27 28  2  0  0  0
 27 30  1  0  0  0
 28 29  1  0  0  0
 28 47  1  0  0  0
 29 48  1  0  0  0
M  END
> <i_i_glide_confnum>
134

> <i_i_glide_lignum>
2037

> <i_i_glide_posenum>
301

> <i_i_glide_rotatable_bonds>
8

> <i_m_Source_File_Index>
3036

> <b_m_subgroup_collapsed>
0

> <r_i_docking_score>
-6.28054

> <r_i_glide_ecoul>
-5.75146

> <r_i_glide_eff_state_penalty>
0

> <r_i_glide_einternal>
1.54661

> <r_i_glide_emodel>
-67.597

> <r_i_glide_energy>
-48.0817

> <r_i_glide_erotb>
0.552351

> <r_i_glide_esite>
-0.22004

> <r_i_glide_evdw>
-42.3303

> <r_i_glide_gscore>
-6.28054

> <r_i_glide_hbond>
-0.16

> <r_i_glide_ligand_efficiency>
-0.209351

> <r_i_glide_ligand_efficiency_ln>
-1.42701

> <r_i_glide_ligand_efficiency_sa>
-0.650503

> <r_i_glide_lipo>
-2.88454

> <r_i_glide_metal>
0

> <r_i_glide_rewards>
-0.589073

> <s_i_glide_gridfile>
wee1_glide-grid

> <s_m_Source_File>
wee1_decoys_glide_SP.sdf

> <s_m_Source_Path>
/Users/zhangxujun/Desktop

> <s_m_entry_id>
3311

> <s_m_entry_name>
wee1_decoys_glide_SP.3036

> <s_m_subgroup_title>
wee1_decoys_glide_SP

> <s_m_subgroupid>
wee1_decoys_glide_SP


$$$$
