ZINC04052991_4673
                    3D
 Schrodinger Suite 2024-2.
 30 32  0  0  1  0            999 V2000
   -1.1169   51.7461   26.2420 C   0  0  0  0  0  0
    0.0338   52.4963   26.0042 C   0  0  0  0  0  0
    0.7890   52.4965   27.1738 C   0  0  0  0  0  0
    0.1409   51.7377   28.0989 O   0  0  0  0  0  0
   -1.0156   51.2968   27.5435 C   0  0  0  0  0  0
    2.1011   53.0734   27.5450 C   0  0  0  0  0  0
    3.0463   53.5818   26.5864 C   0  0  0  0  0  0
    4.3037   53.9262   27.1585 C   0  0  0  0  0  0
    5.3716   54.3291   26.3505 C   0  0  0  0  0  0
    5.1500   54.3800   24.9744 C   0  0  0  0  0  0
    3.8732   54.0964   24.4875 C   0  0  0  0  0  0
    2.8368   53.6963   25.2663 N   0  0  0  0  0  0
    6.3044   54.7067   24.0395 C   0  0  0  0  0  0
    7.1688   53.6968   24.0572 F   0  0  0  0  0  0
    5.9136   54.8963   22.7790 F   0  0  0  0  0  0
    6.9209   55.8028   24.4728 F   0  0  0  0  0  0
    4.3043   53.7225   28.8854 S   0  0  0  0  0  0
    2.6400   53.1757   28.8407 C   0  0  0  0  0  0
    2.0746   52.8161   30.1155 C   0  0  0  0  0  0
    2.6934   52.0973   30.9073 O   0  0  0  0  0  0
    0.8753   53.3799   30.3592 N   0  0  0  0  0  0
    0.3041   53.2969   31.6382 N   0  0  0  0  0  0
   -1.9161   51.5386   25.5459 H   0  0  0  0  0  0
    0.2873   52.9862   25.0759 H   0  0  0  0  0  0
   -1.6340   50.6607   28.1628 H   0  0  0  0  0  0
    6.3410   54.5503   26.7762 H   0  0  0  0  0  0
    3.6612   54.1376   23.4282 H   0  0  0  0  0  0
    0.5193   54.1399   29.7962 H   0  0  0  0  0  0
   -0.3621   52.5270   31.6604 H   0  0  0  0  0  0
    1.0392   53.0532   32.2901 H   0  0  0  0  0  0
  1  5  2  0  0  0
  1  2  1  0  0  0
  1 23  1  0  0  0
  2  3  2  0  0  0
  2 24  1  0  0  0
  3  4  1  0  0  0
  3  6  1  0  0  0
  4  5  1  0  0  0
  5 25  1  0  0  0
  6 18  2  0  0  0
  6  7  1  0  0  0
  7 12  2  0  0  0
  7  8  1  0  0  0
  8  9  2  0  0  0
  8 17  1  0  0  0
  9 10  1  0  0  0
  9 26  1  0  0  0
 10 11  2  0  0  0
 10 13  1  0  0  0
 11 12  1  0  0  0
 11 27  1  0  0  0
 13 14  1  0  0  0
 13 15  1  0  0  0
 13 16  1  0  0  0
 17 18  1  0  0  0
 18 19  1  0  0  0
 19 20  2  0  0  0
 19 21  1  0  0  0
 21 22  1  0  0  0
 21 28  1  0  0  0
 22 29  1  0  0  0
 22 30  1  0  0  0
M  END
> <i_i_glide_confnum>
1

> <i_i_glide_lignum>
4674

> <i_i_glide_posenum>
181

> <i_i_glide_rotatable_bonds>
4

> <i_m_Source_File_Index>
5143

> <b_m_subgroup_collapsed>
0

> <r_i_docking_score>
-6.73123

> <r_i_glide_ecoul>
-5.00664

> <r_i_glide_eff_state_penalty>
0

> <r_i_glide_einternal>
2.29406

> <r_i_glide_emodel>
-56.8733

> <r_i_glide_energy>
-41.3199

> <r_i_glide_erotb>
0.350395

> <r_i_glide_esite>
0

> <r_i_glide_evdw>
-36.3133

> <r_i_glide_gscore>
-6.73123

> <r_i_glide_hbond>
-0.404785

> <r_i_glide_ligand_efficiency>
-0.305965

> <r_i_glide_ligand_efficiency_ln>
-1.64536

> <r_i_glide_ligand_efficiency_sa>
-0.857326

> <r_i_glide_lipo>
-2.25823

> <r_i_glide_metal>
0

> <r_i_glide_rewards>
-1.85195

> <s_i_glide_gridfile>
wee1_glide-grid

> <s_m_Source_File>
wee1_decoys_glide_SP.sdf

> <s_m_Source_Path>
/Users/zhangxujun/Desktop

> <s_m_entry_id>
5418

> <s_m_entry_name>
wee1_decoys_glide_SP.5143

> <s_m_subgroup_title>
wee1_decoys_glide_SP

> <s_m_subgroupid>
wee1_decoys_glide_SP


$$$$
