@<TRIPOS>MOLECULE
ZINC09367469_10
48   51    1
SMALL
USER_CHARGES


@<TRIPOS>ATOM
      1 C1          2.0870   52.4913   30.2642 C.3       1 UNK         0.0000 
      2 C2          1.9848   53.4671   29.0749 C.3       1 UNK         0.0000 
      3 H3          1.5818   54.4100   29.4486 H         1 UNK         0.0000 
      4 C4          3.2746   53.7995   28.3902 C.ar      1 UNK         0.0000 
      5 C5          4.5239   54.1607   28.8897 C.ar      1 UNK         0.0000 
      6 C6          5.5495   54.4831   28.0027 C.ar      1 UNK         0.0000 
      7 C7          5.3251   54.4634   26.6239 C.ar      1 UNK         0.0000 
      8 C8          4.0665   54.1079   26.0951 C.ar      1 UNK         0.0000 
      9 C9          3.0627   53.7755   27.0223 C.ar      1 UNK         0.0000 
     10 O10         1.7688   53.4336   26.7040 O.3       1 UNK         0.0000 
     11 C11         1.0945   53.0129   27.8927 C.3       1 UNK         0.0000 
     12 H12         0.1012   53.4605   27.9546 H         1 UNK         0.0000 
     13 C13         0.9394   51.4903   27.7110 C.3       1 UNK         0.0000 
     14 C14         3.8094   54.0979   24.6008 C.2       1 UNK         0.0000 
     15 O15         2.6575   54.0678   24.1631 O.2       1 UNK         0.0000 
     16 N16         4.9039   54.1420   23.8056 N.am      1 UNK         0.0000 
     17 C17         4.9299   54.1227   22.4017 C.ar      1 UNK         0.0000 
     18 C18         4.0364   53.3491   21.6504 C.ar      1 UNK         0.0000 
     19 C19         4.1049   53.3610   20.2634 C.ar      1 UNK         0.0000 
     20 C20         5.0582   54.1530   19.6241 C.ar      1 UNK         0.0000 
     21 C21         5.9620   54.9148   20.3663 C.ar      1 UNK         0.0000 
     22 C22         5.9034   54.8956   21.7585 C.ar      1 UNK         0.0000 
     23 S23         5.1307   54.1616   17.8400 S.o2      1 UNK         0.0000 
     24 O24         3.8317   53.6974   17.3425 O.2       1 UNK         0.0000 
     25 O25         5.6853   55.4535   17.4191 O.2       1 UNK         0.0000 
     26 N26         6.3014   52.8968   17.4487 N.pl3     1 UNK         0.0000 
     27 C27         7.6491   53.0829   17.2743 C.2       1 UNK         0.0000 
     28 N28         8.3344   54.1559   17.5932 N.2       1 UNK         0.0000 
     29 C29         9.6119   54.0303   17.2903 C.2       1 UNK         0.0000 
     30 C30         9.9917   52.8167   16.7258 C.2       1 UNK         0.0000 
     31 S31         8.5919   51.7982   16.5859 S.3       1 UNK         0.0000 
     32 H32         2.6934   52.8970   31.0725 H         1 UNK         0.0000 
     33 H33         2.5516   51.5544   29.9591 H         1 UNK         0.0000 
     34 H34         1.1036   52.2620   30.6765 H         1 UNK         0.0000 
     35 H35         4.7050   54.2055   29.9525 H         1 UNK         0.0000 
     36 H36         6.5196   54.7627   28.3865 H         1 UNK         0.0000 
     37 H37         6.1490   54.7431   25.9852 H         1 UNK         0.0000 
     38 H38         0.3580   51.0498   28.5216 H         1 UNK         0.0000 
     39 H39         0.4189   51.2578   26.7819 H         1 UNK         0.0000 
     40 H40         1.9047   50.9868   27.6820 H         1 UNK         0.0000 
     41 H41         5.7902   54.2938   24.2568 H         1 UNK         0.0000 
     42 H42         3.2921   52.7297   22.1292 H         1 UNK         0.0000 
     43 H43         3.4117   52.7602   19.6905 H         1 UNK         0.0000 
     44 H44         6.7084   55.5150   19.8665 H         1 UNK         0.0000 
     45 H45         6.6079   55.4830   22.3290 H         1 UNK         0.0000 
     46 H46         5.9044   51.9579   17.5216 H         1 UNK         0.0000 
     47 H47        10.2822   54.8506   17.5043 H         1 UNK         0.0000 
     48 H48        10.9702   52.4801   16.4152 H         1 UNK         0.0000 
@<TRIPOS>BOND
     1    1    2 1    
     2    1   32 1    
     3    1   33 1    
     4    1   34 1    
     5    2    3 1    
     6    2   11 1    
     7    2    4 1    
     8    4    9 ar   
     9    4    5 ar   
    10    5    6 ar   
    11    5   35 1    
    12    6    7 ar   
    13    6   36 1    
    14    7    8 ar   
    15    7   37 1    
    16    8    9 ar   
    17    8   14 1    
    18    9   10 1    
    19   10   11 1    
    20   11   12 1    
    21   11   13 1    
    22   13   38 1    
    23   13   39 1    
    24   13   40 1    
    25   14   15 2    
    26   14   16 am   BACKBONE|DICT|INTERRES
    27   16   17 1    
    28   16   41 1    
    29   17   22 ar   
    30   17   18 ar   
    31   18   19 ar   
    32   18   42 1    
    33   19   20 ar   
    34   19   43 1    
    35   20   21 ar   
    36   20   23 1    
    37   21   22 ar   
    38   21   44 1    
    39   22   45 1    
    40   23   24 2    
    41   23   25 2    
    42   23   26 1    
    43   26   27 1    
    44   26   46 1    
    45   27   31 1    
    46   27   28 2    
    47   28   29 1    
    48   29   30 2    
    49   29   47 1    
    50   30   31 1    
    51   30   48 1    
@<TRIPOS>SUBSTRUCTURE
     1 UNK         1 GROUP             0       ****    0 ROOT    
