@<TRIPOS>MOLECULE
ZINC05342625_2645
57   62    1
SMALL
USER_CHARGES


@<TRIPOS>ATOM
      1 C1         -3.6977   47.4691   26.4815 C.ar      1 UNK         0.0000 
      2 C2         -4.3311   46.3602   25.9294 C.ar      1 UNK         0.0000 
      3 C3         -4.1963   46.0965   24.5694 C.ar      1 UNK         0.0000 
      4 C4         -3.4212   46.9350   23.7682 C.ar      1 UNK         0.0000 
      5 C5         -2.7686   48.0670   24.3041 C.ar      1 UNK         0.0000 
      6 C6         -2.9386   48.3167   25.6767 C.ar      1 UNK         0.0000 
      7 C7         -1.9719   48.9964   23.3668 C.3       1 UNK         0.0000 
      8 C8         -1.6771   48.2833   22.0202 C.3       1 UNK         0.0000 
      9 C9         -2.9365   47.5564   21.5211 C.3       1 UNK         0.0000 
     10 O10        -3.3046   46.5358   22.4499 O.3       1 UNK         0.0000 
     11 C11        -0.6559   49.4715   23.9754 C.2       1 UNK         0.0000 
     12 O12         0.3040   48.7579   24.2681 O.2       1 UNK         0.0000 
     13 N13        -0.7323   50.8201   24.0180 N.am      1 UNK         0.0000 
     14 C14        -1.9171   51.3261   23.5921 C.2       1 UNK         0.0000 
     15 O15        -2.3334   52.4794   23.6960 O.2       1 UNK         0.0000 
     16 N16        -2.6221   50.2678   23.1799 N.am      1 UNK         0.0000 
     17 C17         0.3741   51.6729   24.5013 C.3       1 UNK         0.0000 
     18 C18         0.3041   51.9151   26.0234 C.2       1 UNK         0.0000 
     19 O19        -0.6283   51.4951   26.7081 O.2       1 UNK         0.0000 
     20 N20         1.3323   52.6206   26.5237 N.am      1 UNK         0.0000 
     21 C21         1.5779   53.0152   27.9166 C.3       1 UNK         0.0000 
     22 C22         2.9034   53.8410   27.9564 C.3       1 UNK         0.0000 
     23 C23         3.2454   54.3091   29.3939 C.3       1 UNK         0.0000 
     24 C24         3.4202   53.0473   30.2804 C.3       1 UNK         0.0000 
     25 C25         2.0898   52.2544   30.3200 C.3       1 UNK         0.0000 
     26 C26         1.7498   51.7905   28.8766 C.3       1 UNK         0.0000 
     27 C27         0.9359   53.1389   30.8553 C.3       1 UNK         0.0000 
     28 C28         0.7737   54.3814   29.9489 C.3       1 UNK         0.0000 
     29 C29         2.0841   55.2051   29.9080 C.3       1 UNK         0.0000 
     30 C30         0.4474   53.9197   28.5086 C.3       1 UNK         0.0000 
     31 H31        -3.7813   47.6789   27.5387 H         1 UNK         0.0000 
     32 H32        -4.9221   45.7097   26.5573 H         1 UNK         0.0000 
     33 H33        -4.6940   45.2432   24.1343 H         1 UNK         0.0000 
     34 H34        -2.4635   49.1696   26.1425 H         1 UNK         0.0000 
     35 H35        -1.3201   48.9791   21.2586 H         1 UNK         0.0000 
     36 H36        -0.9144   47.5118   22.1499 H         1 UNK         0.0000 
     37 H37        -2.7507   47.0952   20.5517 H         1 UNK         0.0000 
     38 H38        -3.7587   48.2620   21.3948 H         1 UNK         0.0000 
     39 H39        -3.3747   50.3601   22.5157 H         1 UNK         0.0000 
     40 H40         0.3703   52.6314   23.9809 H         1 UNK         0.0000 
     41 H41         1.3306   51.1986   24.2762 H         1 UNK         0.0000 
     42 H42         2.0448   52.9118   25.8729 H         1 UNK         0.0000 
     43 H43         2.8256   54.7100   27.3002 H         1 UNK         0.0000 
     44 H44         3.7289   53.2462   27.5596 H         1 UNK         0.0000 
     45 H45         4.1746   54.8814   29.3804 H         1 UNK         0.0000 
     46 H46         3.7576   53.2966   31.2816 H         1 UNK         0.0000 
     47 H47         4.2140   52.4173   29.8741 H         1 UNK         0.0000 
     48 H48         2.1955   51.3998   30.9842 H         1 UNK         0.0000 
     49 H49         2.5303   51.1287   28.5017 H         1 UNK         0.0000 
     50 H50         0.8394   51.1889   28.8938 H         1 UNK         0.0000 
     51 H51         1.1048   53.4339   31.8905 H         1 UNK         0.0000 
     52 H52         0.0065   52.5652   30.8733 H         1 UNK         0.0000 
     53 H53        -0.0386   54.9964   30.3367 H         1 UNK         0.0000 
     54 H54         1.9608   56.0656   29.2476 H         1 UNK         0.0000 
     55 H55         2.2929   55.6396   30.8815 H         1 UNK         0.0000 
     56 H56        -0.5016   53.3871   28.5034 H         1 UNK         0.0000 
     57 H57         0.3067   54.8042   27.8955 H         1 UNK         0.0000 
@<TRIPOS>BOND
     1    1    6 ar   
     2    1    2 ar   
     3    1   31 1    
     4    2    3 ar   
     5    2   32 1    
     6    3    4 ar   
     7    3   33 1    
     8    4   10 1    
     9    4    5 ar   
    10    5    6 ar   
    11    5    7 1    
    12    6   34 1    
    13    7   16 1    
    14    7    8 1    
    15    7   11 1    
    16    8    9 1    
    17    8   35 1    
    18    8   36 1    
    19    9   10 1    
    20    9   37 1    
    21    9   38 1    
    22   11   12 2    
    23   11   13 am   BACKBONE|DICT|INTERRES
    24   13   14 am   BACKBONE|DICT|INTERRES
    25   13   17 1    
    26   14   15 2    
    27   14   16 am   BACKBONE|DICT|INTERRES
    28   16   39 1    
    29   17   18 1    
    30   17   40 1    
    31   17   41 1    
    32   18   19 2    
    33   18   20 am   BACKBONE|DICT|INTERRES
    34   20   21 1    
    35   20   42 1    
    36   21   26 1    
    37   21   30 1    
    38   21   22 1    
    39   22   23 1    
    40   22   43 1    
    41   22   44 1    
    42   23   29 1    
    43   23   24 1    
    44   23   45 1    
    45   24   25 1    
    46   24   46 1    
    47   24   47 1    
    48   25   26 1    
    49   25   27 1    
    50   25   48 1    
    51   26   49 1    
    52   26   50 1    
    53   27   28 1    
    54   27   51 1    
    55   27   52 1    
    56   28   29 1    
    57   28   30 1    
    58   28   53 1    
    59   29   54 1    
    60   29   55 1    
    61   30   56 1    
    62   30   57 1    
@<TRIPOS>SUBSTRUCTURE
     1 UNK         1 GROUP             0       ****    0 ROOT    
