@<TRIPOS>MOLECULE
ZINC09298062_2290
58   61    1
SMALL
USER_CHARGES


@<TRIPOS>ATOM
      1 C1          2.7965   57.6225   12.6174 C.3       1 UNK         0.0000 
      2 C2          3.4598   57.6886   14.0050 C.3       1 UNK         0.0000 
      3 H3          2.8262   58.3256   14.6268 H         1 UNK         0.0000 
      4 C4          4.8833   58.2651   13.9190 C.3       1 UNK         0.0000 
      5 C5          5.4866   58.5530   15.3104 C.3       1 UNK         0.0000 
      6 C6          5.2205   57.3829   16.2820 C.2       1 UNK         0.0000 
      7 C7          4.3075   56.3694   15.9388 C.2       1 UNK         0.0000 
      8 S8          4.1535   55.1683   17.1622 S.3       1 UNK         0.0000 
      9 C9          5.2517   56.0293   18.2054 C.2       1 UNK         0.0000 
     10 C10         5.7894   57.1792   17.5819 C.2       1 UNK         0.0000 
     11 C11         6.7048   58.0879   18.2725 C.2       1 UNK         0.0000 
     12 O12         6.7066   58.1500   19.5070 O.2       1 UNK         0.0000 
     13 N13         7.5469   58.7571   17.4558 N.am      1 UNK         0.0000 
     14 C14         8.5100   59.6458   17.7635 C.2       1 UNK         0.0000 
     15 O15         8.7839   60.0966   18.8816 O.2       1 UNK         0.0000 
     16 O16         9.1186   59.9519   16.5695 O.3       1 UNK         0.0000 
     17 C17        10.1623   60.9151   16.6246 C.3       1 UNK         0.0000 
     18 N18         5.5046   55.6178   19.5170 N.am      1 UNK         0.0000 
     19 C19         5.1042   54.4949   20.1544 C.2       1 UNK         0.0000 
     20 O20         4.5238   53.5473   19.6255 O.2       1 UNK         0.0000 
     21 C21         5.3794   54.4662   21.6390 C.ar      1 UNK         0.0000 
     22 C22         6.4934   55.1038   22.2023 C.ar      1 UNK         0.0000 
     23 C23         6.6624   55.1204   23.5852 C.ar      1 UNK         0.0000 
     24 C24         5.7392   54.4987   24.4380 C.ar      1 UNK         0.0000 
     25 C25         4.6498   53.8329   23.8611 C.ar      1 UNK         0.0000 
     26 C26         4.4718   53.8174   22.4821 C.ar      1 UNK         0.0000 
     27 C27         5.9848   54.5054   25.9277 C.2       1 UNK         0.0000 
     28 O28         7.1044   54.7995   26.3562 O.2       1 UNK         0.0000 
     29 C29         4.9183   54.1113   26.9097 C.ar      1 UNK         0.0000 
     30 C30         3.5826   54.4956   26.7271 C.ar      1 UNK         0.0000 
     31 C31         2.6137   54.1499   27.6659 C.ar      1 UNK         0.0000 
     32 C32         2.9769   53.4351   28.8034 C.ar      1 UNK         0.0000 
     33 C33         4.3047   53.0769   29.0173 C.ar      1 UNK         0.0000 
     34 C34         5.2755   53.4280   28.0818 C.ar      1 UNK         0.0000 
     35 C35         3.5263   56.2801   14.6333 C.3       1 UNK         0.0000 
     36 H36         3.3654   56.9970   11.9284 H         1 UNK         0.0000 
     37 H37         1.7880   57.2128   12.6810 H         1 UNK         0.0000 
     38 H38         2.7154   58.6146   12.1725 H         1 UNK         0.0000 
     39 H39         5.5224   57.6072   13.3273 H         1 UNK         0.0000 
     40 H40         4.8641   59.1981   13.3531 H         1 UNK         0.0000 
     41 H41         5.0620   59.4739   15.7139 H         1 UNK         0.0000 
     42 H42         6.5461   58.7408   15.1513 H         1 UNK         0.0000 
     43 H43         7.4487   58.5748   16.4720 H         1 UNK         0.0000 
     44 H44        10.5801   61.0568   15.6276 H         1 UNK         0.0000 
     45 H45         9.7900   61.8808   16.9707 H         1 UNK         0.0000 
     46 H46        10.9708   60.5913   17.2827 H         1 UNK         0.0000 
     47 H47         6.0677   56.2670   20.0471 H         1 UNK         0.0000 
     48 H48         7.2273   55.6054   21.5869 H         1 UNK         0.0000 
     49 H49         7.5045   55.6536   23.9932 H         1 UNK         0.0000 
     50 H50         3.9317   53.2978   24.4637 H         1 UNK         0.0000 
     51 H51         3.6096   53.3075   22.0731 H         1 UNK         0.0000 
     52 H52         3.2848   55.0666   25.8600 H         1 UNK         0.0000 
     53 H53         1.5837   54.4379   27.5133 H         1 UNK         0.0000 
     54 H54         2.2223   53.1615   29.5263 H         1 UNK         0.0000 
     55 H55         4.5832   52.5266   29.9040 H         1 UNK         0.0000 
     56 H56         6.3037   53.1459   28.2654 H         1 UNK         0.0000 
     57 H57         4.0246   55.5829   13.9583 H         1 UNK         0.0000 
     58 H58         2.5225   55.8886   14.8038 H         1 UNK         0.0000 
@<TRIPOS>BOND
     1    1    2 1    
     2    1   36 1    
     3    1   37 1    
     4    1   38 1    
     5    2    3 1    
     6    2   35 1    
     7    2    4 1    
     8    4    5 1    
     9    4   39 1    
    10    4   40 1    
    11    5    6 1    
    12    5   41 1    
    13    5   42 1    
    14    6   10 1    
    15    6    7 2    
    16    7    8 1    
    17    7   35 1    
    18    8    9 1    
    19    9   10 2    
    20    9   18 am   BACKBONE|DICT|INTERRES
    21   10   11 1    
    22   11   12 2    
    23   11   13 am   BACKBONE|DICT|INTERRES
    24   13   14 am   BACKBONE|DICT|INTERRES
    25   13   43 1    
    26   14   15 2    
    27   14   16 1    
    28   16   17 1    
    29   17   44 1    
    30   17   45 1    
    31   17   46 1    
    32   18   19 am   BACKBONE|DICT|INTERRES
    33   18   47 1    
    34   19   20 2    
    35   19   21 1    
    36   21   26 ar   
    37   21   22 ar   
    38   22   23 ar   
    39   22   48 1    
    40   23   24 ar   
    41   23   49 1    
    42   24   25 ar   
    43   24   27 1    
    44   25   26 ar   
    45   25   50 1    
    46   26   51 1    
    47   27   28 2    
    48   27   29 1    
    49   29   34 ar   
    50   29   30 ar   
    51   30   31 ar   
    52   30   52 1    
    53   31   32 ar   
    54   31   53 1    
    55   32   33 ar   
    56   32   54 1    
    57   33   34 ar   
    58   33   55 1    
    59   34   56 1    
    60   35   57 1    
    61   35   58 1    
@<TRIPOS>SUBSTRUCTURE
     1 UNK         1 GROUP             0       ****    0 ROOT    
