ZINC65601176_6219
                    3D
 Schrodinger Suite 2024-2.
 58 59  0  0  1  0            999 V2000
    4.2673   54.4415   26.2922 C   0  0  0  0  0  0
    4.2515   54.2907   24.7813 C   0  0  0  0  0  0
    5.4482   54.0971   24.0922 C   0  0  0  0  0  0
    5.4357   53.8974   22.7153 C   0  0  0  0  0  0
    4.2331   53.9412   22.0018 C   0  0  0  0  0  0
    3.0436   54.1839   22.6952 C   0  0  0  0  0  0
    3.0468   54.3381   24.0802 C   0  0  0  0  0  0
    4.1891   53.7046   20.4789 C   0  0  2  0  0  0
    3.6691   52.2796   20.1126 C   0  0  0  0  0  0
    2.2915   52.0356   20.5563 N   0  0  0  0  0  0
    1.9145   51.1537   21.5022 C   0  0  0  0  0  0
    2.7047   50.4006   22.0818 O   0  0  0  0  0  0
    0.4501   51.1798   21.7944 C   0  0  0  0  0  0
   -0.3484   51.8827   21.1604 O   0  0  0  0  0  0
    0.1228   50.3675   22.8257 N   0  0  0  0  0  0
   -1.1470   50.0691   23.3627 C   0  0  0  0  0  0
   -2.3238   50.1638   22.5982 C   0  0  0  0  0  0
   -3.5592   49.8325   23.1519 C   0  0  0  0  0  0
   -3.6360   49.3954   24.4718 C   0  0  0  0  0  0
   -2.4774   49.2897   25.2393 C   0  0  0  0  0  0
   -1.2284   49.6214   24.6986 C   0  0  0  0  0  0
   -0.0084   49.5427   25.6212 C   0  0  0  0  0  0
    0.1976   50.8646   26.3631 C   0  0  0  0  0  0
    0.7049   51.8270   25.7893 O   0  0  0  0  0  0
   -0.2185   50.8968   27.6371 N   0  0  0  0  0  0
   -0.1135   52.0561   28.5073 C   0  0  0  0  0  0
    5.5037   54.0733   19.7203 N   0  3  0  0  0  0
    5.6031   53.5926   18.2499 C   0  0  0  0  0  0
    5.8020   55.5914   19.7802 C   0  0  0  0  0  0
    3.3627   54.9285   26.6556 H   0  0  0  0  0  0
    4.3603   53.4608   26.7634 H   0  0  0  0  0  0
    5.1161   55.0513   26.6041 H   0  0  0  0  0  0
    6.3850   54.0572   24.6284 H   0  0  0  0  0  0
    6.3698   53.7050   22.2183 H   0  0  0  0  0  0
    2.1035   54.2298   22.1666 H   0  0  0  0  0  0
    2.1133   54.4888   24.6029 H   0  0  0  0  0  0
    3.5045   54.4375   20.0518 H   0  0  0  0  0  0
    4.3609   51.5284   20.5003 H   0  0  0  0  0  0
    3.6432   52.1143   19.0377 H   0  0  0  0  0  0
    1.5654   52.5987   20.1308 H   0  0  0  0  0  0
    0.9053   49.9347   23.2989 H   0  0  0  0  0  0
   -2.3042   50.4762   21.5640 H   0  0  0  0  0  0
   -4.4575   49.9102   22.5588 H   0  0  0  0  0  0
   -4.5926   49.1430   24.9062 H   0  0  0  0  0  0
   -2.5518   48.9592   26.2670 H   0  0  0  0  0  0
    0.8953   49.2704   25.0735 H   0  0  0  0  0  0
   -0.1437   48.7222   26.3288 H   0  0  0  0  0  0
   -0.6557   50.0570   28.0153 H   0  0  0  0  0  0
   -0.6487   51.8724   29.4417 H   0  0  0  0  0  0
   -0.5407   52.9430   28.0346 H   0  0  0  0  0  0
    0.9310   52.2639   28.7466 H   0  0  0  0  0  0
    4.7214   53.9529   17.7136 H   0  0  0  0  0  0
    6.5234   53.9897   17.8213 H   0  0  0  0  0  0
    5.6581   52.5027   18.2534 H   0  0  0  0  0  0
    5.0504   56.1091   19.1797 H   0  0  0  0  0  0
    5.7634   55.9145   20.8221 H   0  0  0  0  0  0
    6.8037   55.7483   19.3749 H   0  0  0  0  0  0
    6.2494   53.6106   20.2250 H   0  0  0  0  0  0
  1  2  1  0  0  0
  1 30  1  0  0  0
  1 31  1  0  0  0
  1 32  1  0  0  0
  2  7  2  0  0  0
  2  3  1  0  0  0
  3  4  2  0  0  0
  3 33  1  0  0  0
  4  5  1  0  0  0
  4 34  1  0  0  0
  5  6  2  0  0  0
  5  8  1  0  0  0
  6  7  1  0  0  0
  6 35  1  0  0  0
  7 36  1  0  0  0
  8  9  1  0  0  0
  8 27  1  0  0  0
  8 37  1  0  0  0
  9 10  1  0  0  0
  9 38  1  0  0  0
  9 39  1  0  0  0
 10 11  1  0  0  0
 10 40  1  0  0  0
 11 12  2  0  0  0
 11 13  1  0  0  0
 13 14  2  0  0  0
 13 15  1  0  0  0
 15 16  1  0  0  0
 15 41  1  0  0  0
 16 21  2  0  0  0
 16 17  1  0  0  0
 17 18  2  0  0  0
 17 42  1  0  0  0
 18 19  1  0  0  0
 18 43  1  0  0  0
 19 20  2  0  0  0
 19 44  1  0  0  0
 20 21  1  0  0  0
 20 45  1  0  0  0
 21 22  1  0  0  0
 22 23  1  0  0  0
 22 46  1  0  0  0
 22 47  1  0  0  0
 23 24  2  0  0  0
 23 25  1  0  0  0
 25 26  1  0  0  0
 25 48  1  0  0  0
 26 49  1  0  0  0
 26 50  1  0  0  0
 26 51  1  0  0  0
 27 28  1  0  0  0
 27 29  1  0  0  0
 27 58  1  0  0  0
 28 52  1  0  0  0
 28 53  1  0  0  0
 28 54  1  0  0  0
 29 55  1  0  0  0
 29 56  1  0  0  0
 29 57  1  0  0  0
M  CHG  1  27   1
M  END
> <i_i_glide_confnum>
175

> <i_i_glide_lignum>
6220

> <i_i_glide_posenum>
145

> <i_i_glide_rotatable_bonds>
11

> <i_m_Source_File_Index>
4119

> <b_m_subgroup_collapsed>
0

> <r_i_docking_score>
-4.34011

> <r_i_glide_ecoul>
-6.95341

> <r_i_glide_eff_state_penalty>
0

> <r_i_glide_einternal>
8.20239

> <r_i_glide_emodel>
-50.3207

> <r_i_glide_energy>
-40.4198

> <r_i_glide_erotb>
1.11506

> <r_i_glide_esite>
-0.143204

> <r_i_glide_evdw>
-33.4664

> <r_i_glide_gscore>
-4.34011

> <r_i_glide_hbond>
-0.16

> <r_i_glide_ligand_efficiency>
-0.149659

> <r_i_glide_ligand_efficiency_ln>
-0.993775

> <r_i_glide_ligand_efficiency_sa>
-0.4598

> <r_i_glide_lipo>
-1.59829

> <r_i_glide_metal>
0

> <r_i_glide_rewards>
-0.837341

> <s_i_glide_gridfile>
wee1_glide-grid

> <s_m_Source_File>
wee1_decoys_glide_SP.sdf

> <s_m_Source_Path>
/Users/zhangxujun/Desktop

> <s_m_entry_id>
4394

> <s_m_entry_name>
wee1_decoys_glide_SP.4119

> <s_m_subgroup_title>
wee1_decoys_glide_SP

> <s_m_subgroupid>
wee1_decoys_glide_SP


$$$$
