ZINC14329256_5332
                    3D
 Schrodinger Suite 2024-2.
 59 62  0  0  1  0            999 V2000
   -8.2618   48.1175   31.7686 C   0  0  0  0  0  0
   -7.1734   48.4434   30.7628 C   0  0  0  0  0  0
   -7.1829   49.6651   30.0882 C   0  0  0  0  0  0
   -6.1812   49.9686   29.1663 C   0  0  0  0  0  0
   -5.1481   49.0509   28.9045 C   0  0  0  0  0  0
   -5.1466   47.8223   29.5897 C   0  0  0  0  0  0
   -6.1497   47.5299   30.5145 C   0  0  0  0  0  0
   -3.8072   46.4965   29.2814 Br  0  0  0  0  0  0
   -4.0956   49.2863   27.9941 N   0  0  0  0  0  0
   -3.9100   50.2824   27.0976 C   0  0  0  0  0  0
   -4.6795   51.2302   26.9299 O   0  0  0  0  0  0
   -2.5956   50.2117   26.2769 C   0  0  1  0  0  0
   -2.2783   49.1660   26.2707 H   0  0  0  0  0  0
   -2.7851   50.6818   24.8324 C   0  0  0  0  0  0
   -0.0743   50.3210   26.7894 C   0  0  0  0  0  0
    0.8961   50.9035   27.8297 C   0  0  0  0  0  0
    0.9043   52.4365   27.6583 C   0  0  1  0  0  0
   -0.4865   52.9690   28.0750 C   0  0  0  0  0  0
   -1.5091   52.4431   27.0414 C   0  0  0  0  0  0
    2.0216   53.0416   28.5420 C   0  0  0  0  0  0
    1.8779   53.0322   29.7678 O   0  0  0  0  0  0
    3.2611   53.5756   27.8784 C   0  0  0  0  0  0
    4.3353   53.9818   28.6887 C   0  0  0  0  0  0
    5.5046   54.4967   28.1311 C   0  0  0  0  0  0
    5.6157   54.6304   26.7509 C   0  0  0  0  0  0
    4.5699   54.2028   25.9242 C   0  0  0  0  0  0
    3.3996   53.6969   26.4808 C   0  0  0  0  0  0
    4.6151   54.3373   24.5503 O   0  0  0  0  0  0
    5.9278   54.5723   24.0271 C   0  0  0  0  0  0
    6.6525   55.6306   24.8900 C   0  0  0  0  0  0
    6.7838   55.1574   26.2363 O   0  0  0  0  0  0
   -8.5328   49.0031   32.3465 H   0  0  0  0  0  0
   -7.9298   47.3622   32.4822 H   0  0  0  0  0  0
   -9.1577   47.7536   31.2607 H   0  0  0  0  0  0
   -7.9690   50.3817   30.2735 H   0  0  0  0  0  0
   -6.2324   50.9276   28.6764 H   0  0  0  0  0  0
   -6.1359   46.5846   31.0371 H   0  0  0  0  0  0
   -3.3329   48.6205   28.0820 H   0  0  0  0  0  0
   -3.5330   50.0659   24.3313 H   0  0  0  0  0  0
   -3.1134   51.7204   24.7950 H   0  0  0  0  0  0
   -1.8468   50.5919   24.2855 H   0  0  0  0  0  0
   -0.0986   49.2336   26.8818 H   0  0  0  0  0  0
    0.1742   50.5884   25.7617 H   0  0  0  0  0  0
    0.5709   50.6402   28.8379 H   0  0  0  0  0  0
    1.8866   50.4716   27.6802 H   0  0  0  0  0  0
    1.0719   52.6894   26.6186 H   0  0  0  0  0  0
   -0.4980   54.0601   28.0814 H   0  0  0  0  0  0
   -0.7634   52.6459   29.0819 H   0  0  0  0  0  0
   -1.2759   52.7382   26.0172 H   0  0  0  0  0  0
   -2.5312   52.7321   27.2731 H   0  0  0  0  0  0
    4.2815   53.9050   29.7645 H   0  0  0  0  0  0
    6.3043   54.8196   28.7762 H   0  0  0  0  0  0
    2.6355   53.4182   25.7764 H   0  0  0  0  0  0
    5.8576   54.8964   22.9885 H   0  0  0  0  0  0
    6.4988   53.6426   24.0486 H   0  0  0  0  0  0
    6.0505   56.5392   24.8896 H   0  0  0  0  0  0
    7.6263   55.8828   24.4804 H   0  0  0  0  0  0
   -1.4817   50.8966   27.1180 N   0  3  1  0  0  0
   -1.6741   50.6114   28.0741 H   0  0  0  0  0  0
  1  2  1  0  0  0
  1 32  1  0  0  0
  1 33  1  0  0  0
  1 34  1  0  0  0
  2  7  2  0  0  0
  2  3  1  0  0  0
  3  4  2  0  0  0
  3 35  1  0  0  0
  4  5  1  0  0  0
  4 36  1  0  0  0
  5  6  2  0  0  0
  5  9  1  0  0  0
  6  7  1  0  0  0
  6  8  1  0  0  0
  7 37  1  0  0  0
  9 10  1  0  0  0
  9 38  1  0  0  0
 10 11  2  0  0  0
 10 12  1  0  0  0
 12 13  1  0  0  0
 12 14  1  0  0  0
 12 58  1  0  0  0
 14 39  1  0  0  0
 14 40  1  0  0  0
 14 41  1  0  0  0
 15 16  1  0  0  0
 15 42  1  0  0  0
 15 43  1  0  0  0
 15 58  1  0  0  0
 16 17  1  0  0  0
 16 44  1  0  0  0
 16 45  1  0  0  0
 17 18  1  0  0  0
 17 20  1  0  0  0
 17 46  1  0  0  0
 18 19  1  0  0  0
 18 47  1  0  0  0
 18 48  1  0  0  0
 19 49  1  0  0  0
 19 50  1  0  0  0
 19 58  1  0  0  0
 20 21  2  0  0  0
 20 22  1  0  0  0
 22 27  2  0  0  0
 22 23  1  0  0  0
 23 24  2  0  0  0
 23 51  1  0  0  0
 24 25  1  0  0  0
 24 52  1  0  0  0
 25 31  1  0  0  0
 25 26  2  0  0  0
 26 27  1  0  0  0
 26 28  1  0  0  0
 27 53  1  0  0  0
 28 29  1  0  0  0
 29 30  1  0  0  0
 29 54  1  0  0  0
 29 55  1  0  0  0
 30 31  1  0  0  0
 30 56  1  0  0  0
 30 57  1  0  0  0
 58 59  1  0  0  0
M  CHG  1  58   1
M  END
> <i_i_glide_confnum>
20

> <i_i_glide_lignum>
5333

> <i_i_glide_posenum>
286

> <i_i_glide_rotatable_bonds>
6

> <i_m_Source_File_Index>
548

> <b_m_subgroup_collapsed>
0

> <r_i_docking_score>
-6.071

> <r_i_glide_ecoul>
-6.07401

> <r_i_glide_eff_state_penalty>
0

> <r_i_glide_einternal>
8.98971

> <r_i_glide_emodel>
-56.505

> <r_i_glide_energy>
-42.5705

> <r_i_glide_erotb>
0.511539

> <r_i_glide_esite>
-0.260891

> <r_i_glide_evdw>
-36.4965

> <r_i_glide_gscore>
-6.071

> <r_i_glide_hbond>
-0.473829

> <r_i_glide_ligand_efficiency>
-0.195839

> <r_i_glide_ligand_efficiency_ln>
-1.3692

> <r_i_glide_ligand_efficiency_sa>
-0.615204

> <r_i_glide_lipo>
-2.4016

> <r_i_glide_metal>
0

> <r_i_glide_rewards>
-0.710288

> <s_i_glide_gridfile>
wee1_glide-grid

> <s_m_Source_File>
wee1_decoys_glide_SP.sdf

> <s_m_Source_Path>
/Users/zhangxujun/Desktop

> <s_m_entry_id>
823

> <s_m_entry_name>
wee1_decoys_glide_SP.548

> <s_m_subgroup_title>
wee1_decoys_glide_SP

> <s_m_subgroupid>
wee1_decoys_glide_SP


$$$$
