@<TRIPOS>MOLECULE
ZINC29540713_4716
36   38    1
SMALL
USER_CHARGES


@<TRIPOS>ATOM
      1 C1          1.7036   53.0693   29.2036 C.ar      1 UNK         0.0000 
      2 C2          1.4513   53.0580   27.8240 C.ar      1 UNK         0.0000 
      3 C3          0.2723   52.4804   27.3527 C.ar      1 UNK         0.0000 
      4 C4         -0.6450   51.9097   28.2303 C.ar      1 UNK         0.0000 
      5 C5         -0.3879   51.9048   29.6085 C.ar      1 UNK         0.0000 
      6 C6          0.7899   52.4967   30.0923 C.ar      1 UNK         0.0000 
      7 Cl7         1.1695   52.4967   31.7811 Cl        1 UNK         0.0000 
      8 N8         -1.2956   51.2967   30.4817 N.pl3     1 UNK         0.0000 
      9 Cl9        -2.1103   51.2630   27.5710 Cl        1 UNK         0.0000 
     10 N10         2.2884   53.6096   26.8425 N.am      1 UNK         0.0000 
     11 C11         3.5632   54.0474   26.9184 C.2       1 UNK         0.0000 
     12 O12         4.2362   54.0544   27.9484 O.2       1 UNK         0.0000 
     13 C13         4.1732   54.6205   25.6162 C.3       1 UNK         0.0000 
     14 H14         4.0501   55.6967   25.7350 H         1 UNK         0.0000 
     15 C15         5.6352   54.2753   25.3753 C.3       1 UNK         0.0000 
     16 C16         5.7766   54.0967   23.8632 C.2       1 UNK         0.0000 
     17 O17         6.8486   53.9499   23.2817 O.2       1 UNK         0.0000 
     18 N18         4.5171   54.0967   23.3471 N.am      1 UNK         0.0000 
     19 C19         3.4555   54.1783   24.3430 C.3       1 UNK         0.0000 
     20 C20         4.1255   53.8357   21.9498 C.3       1 UNK         0.0000 
     21 C21         5.0569   54.0962   20.7813 C.3       1 UNK         0.0000 
     22 C22         4.7351   52.6762   21.1901 C.3       1 UNK         0.0000 
     23 H23         2.5993   53.5156   29.6052 H         1 UNK         0.0000 
     24 H24         0.0515   52.4699   26.2947 H         1 UNK         0.0000 
     25 H25        -1.2201   51.4038   31.4986 H         1 UNK         0.0000 
     26 H26        -1.9312   50.5962   30.1160 H         1 UNK         0.0000 
     27 H27         1.8769   53.6394   25.9233 H         1 UNK         0.0000 
     28 H28         6.2741   55.1193   25.6357 H         1 UNK         0.0000 
     29 H29         5.9919   53.4025   25.9257 H         1 UNK         0.0000 
     30 H30         3.0698   53.1590   24.4122 H         1 UNK         0.0000 
     31 H31         2.6666   54.8664   24.0346 H         1 UNK         0.0000 
     32 H32         3.0687   54.0417   21.7680 H         1 UNK         0.0000 
     33 H33         4.6209   54.4909   19.8631 H         1 UNK         0.0000 
     34 H34         6.0546   54.4968   20.9570 H         1 UNK         0.0000 
     35 H35         5.5044   52.0739   21.6741 H         1 UNK         0.0000 
     36 H36         4.0894   52.0766   20.5471 H         1 UNK         0.0000 
@<TRIPOS>BOND
     1    1    6 ar   
     2    1    2 ar   
     3    1   23 1    
     4    2    3 ar   
     5    2   10 1    
     6    3    4 ar   
     7    3   24 1    
     8    4    5 ar   
     9    4    9 1    
    10    5    6 ar   
    11    5    8 1    
    12    6    7 1    
    13    8   25 1    
    14    8   26 1    
    15   10   11 am   BACKBONE|DICT|INTERRES
    16   10   27 1    
    17   11   12 2    
    18   11   13 1    
    19   13   14 1    
    20   13   19 1    
    21   13   15 1    
    22   15   16 1    
    23   15   28 1    
    24   15   29 1    
    25   16   17 2    
    26   16   18 am   BACKBONE|DICT|INTERRES
    27   18   19 1    
    28   18   20 1    
    29   19   30 1    
    30   19   31 1    
    31   20   22 1    
    32   20   21 1    
    33   20   32 1    
    34   21   22 1    
    35   21   33 1    
    36   21   34 1    
    37   22   35 1    
    38   22   36 1    
@<TRIPOS>SUBSTRUCTURE
     1 UNK         1 GROUP             0       ****    0 ROOT    
