ZINC20745541_4891
                    3D
 Schrodinger Suite 2024-2.
 54 57  0  0  1  0            999 V2000
   -4.2759   52.3455   24.1798 C   0  0  0  0  0  0
   -2.8902   52.3276   23.8694 O   0  0  0  0  0  0
   -1.9607   52.4962   24.8422 C   0  0  0  0  0  0
   -2.2350   52.7559   26.0185 O   0  0  0  0  0  0
   -0.5369   52.4263   24.2649 C   0  0  2  0  0  0
   -0.4445   53.2799   23.5925 H   0  0  0  0  0  0
   -0.2945   51.1163   23.4509 C   0  0  0  0  0  0
    0.7171   51.2394   22.3287 C   0  0  0  0  0  0
    0.3811   51.9467   21.1534 C   0  0  0  0  0  0
    1.3178   52.0954   20.1393 C   0  0  0  0  0  0
    2.5916   51.5634   20.2821 C   0  0  0  0  0  0
    2.9425   50.8966   21.4476 C   0  0  0  0  0  0
    2.0253   50.7390   22.4789 C   0  0  0  0  0  0
    0.5213   52.6271   25.2923 N   0  0  0  0  0  0
    0.7035   51.9607   26.4554 C   0  0  0  0  0  0
    0.1335   50.8887   26.6571 O   0  0  0  0  0  0
    1.5833   52.5030   27.3498 N   0  0  0  0  0  0
    1.7993   51.7919   28.6380 C   0  0  0  0  0  0
    0.8078   52.3702   29.6922 C   0  0  0  0  0  0
    1.0084   53.8772   29.7355 C   0  0  0  0  0  0
    1.5968   54.5514   28.6726 C   0  0  0  0  0  0
    1.6435   55.8595   29.0703 N   0  0  0  0  0  0
    2.0123   56.6418   28.5484 H   0  0  0  0  0  0
    1.1044   55.8783   30.3314 C   0  0  0  0  0  0
    0.7045   54.6924   30.7339 N   0  0  0  0  0  0
    2.0419   53.9272   27.3445 C   0  0  1  0  0  0
    1.5048   54.4689   26.5663 H   0  0  0  0  0  0
    3.5267   54.0952   26.9976 C   0  0  0  0  0  0
    4.4923   54.2556   28.0031 C   0  0  0  0  0  0
    5.8419   54.3937   27.6795 C   0  0  0  0  0  0
    6.2395   54.3946   26.3440 C   0  0  0  0  0  0
    5.2901   54.2524   25.3338 C   0  0  0  0  0  0
    3.9395   54.0972   25.6562 C   0  0  0  0  0  0
    3.0337   53.9555   24.6600 F   0  0  0  0  0  0
    5.6861   54.2561   24.0404 F   0  0  0  0  0  0
   -4.5853   53.3327   24.5273 H   0  0  0  0  0  0
   -4.8533   52.0950   23.2892 H   0  0  0  0  0  0
   -4.5161   51.6148   24.9542 H   0  0  0  0  0  0
   -0.0184   50.2899   24.1078 H   0  0  0  0  0  0
   -1.2066   50.7796   22.9558 H   0  0  0  0  0  0
   -0.6061   52.3675   21.0357 H   0  0  0  0  0  0
    1.0586   52.6322   19.2380 H   0  0  0  0  0  0
    3.3157   51.6725   19.4862 H   0  0  0  0  0  0
    3.9371   50.4977   21.5477 H   0  0  0  0  0  0
    2.3077   50.2197   23.3835 H   0  0  0  0  0  0
    1.3298   53.1354   24.9548 H   0  0  0  0  0  0
    1.7614   50.7077   28.5215 H   0  0  0  0  0  0
    2.8324   51.9649   28.9426 H   0  0  0  0  0  0
   -0.2178   52.1096   29.4252 H   0  0  0  0  0  0
    0.9901   51.9239   30.6692 H   0  0  0  0  0  0
    1.0392   56.8066   30.8822 H   0  0  0  0  0  0
    4.2064   54.2514   29.0444 H   0  0  0  0  0  0
    6.5786   54.4958   28.4637 H   0  0  0  0  0  0
    7.2820   54.4969   26.0891 H   0  0  0  0  0  0
  1  2  1  0  0  0
  1 36  1  0  0  0
  1 37  1  0  0  0
  1 38  1  0  0  0
  2  3  1  0  0  0
  3  4  2  0  0  0
  3  5  1  0  0  0
  5  6  1  0  0  0
  5  7  1  0  0  0
  5 14  1  0  0  0
  7  8  1  0  0  0
  7 39  1  0  0  0
  7 40  1  0  0  0
  8 13  2  0  0  0
  8  9  1  0  0  0
  9 10  2  0  0  0
  9 41  1  0  0  0
 10 11  1  0  0  0
 10 42  1  0  0  0
 11 12  2  0  0  0
 11 43  1  0  0  0
 12 13  1  0  0  0
 12 44  1  0  0  0
 13 45  1  0  0  0
 14 15  1  0  0  0
 14 46  1  0  0  0
 15 16  2  0  0  0
 15 17  1  0  0  0
 17 26  1  0  0  0
 17 18  1  0  0  0
 18 19  1  0  0  0
 18 47  1  0  0  0
 18 48  1  0  0  0
 19 20  1  0  0  0
 19 49  1  0  0  0
 19 50  1  0  0  0
 20 25  1  0  0  0
 20 21  2  0  0  0
 21 22  1  0  0  0
 21 26  1  0  0  0
 22 23  1  0  0  0
 22 24  1  0  0  0
 24 25  2  0  0  0
 24 51  1  0  0  0
 26 27  1  0  0  0
 26 28  1  0  0  0
 28 33  2  0  0  0
 28 29  1  0  0  0
 29 30  2  0  0  0
 29 52  1  0  0  0
 30 31  1  0  0  0
 30 53  1  0  0  0
 31 32  2  0  0  0
 31 54  1  0  0  0
 32 33  1  0  0  0
 32 35  1  0  0  0
 33 34  1  0  0  0
M  END
> <i_i_glide_confnum>
15

> <i_i_glide_lignum>
4892

> <i_i_glide_posenum>
333

> <i_i_glide_rotatable_bonds>
8

> <i_m_Source_File_Index>
2120

> <b_m_subgroup_collapsed>
0

> <r_i_docking_score>
-6.25043

> <r_i_glide_ecoul>
1.80428

> <r_i_glide_eff_state_penalty>
0

> <r_i_glide_einternal>
5.75299

> <r_i_glide_emodel>
-58.5308

> <r_i_glide_energy>
-44.4803

> <r_i_glide_erotb>
0.617559

> <r_i_glide_esite>
0

> <r_i_glide_evdw>
-46.2846

> <r_i_glide_gscore>
-6.25043

> <r_i_glide_hbond>
0

> <r_i_glide_ligand_efficiency>
-0.195326

> <r_i_glide_ligand_efficiency_ln>
-1.39964

> <r_i_glide_ligand_efficiency_sa>
-0.620121

> <r_i_glide_lipo>
-2.88322

> <r_i_glide_metal>
0

> <r_i_glide_rewards>
-1.94118

> <s_i_glide_gridfile>
wee1_glide-grid

> <s_m_Source_File>
wee1_decoys_glide_SP.sdf

> <s_m_Source_Path>
/Users/zhangxujun/Desktop

> <s_m_entry_id>
2395

> <s_m_entry_name>
wee1_decoys_glide_SP.2120

> <s_m_subgroup_title>
wee1_decoys_glide_SP

> <s_m_subgroupid>
wee1_decoys_glide_SP


$$$$
