@<TRIPOS>MOLECULE
ZINC34791854_2820
57   60    1
SMALL
USER_CHARGES


@<TRIPOS>ATOM
      1 C1         -2.5204   52.1442   23.1283 C.3       1 UNK         0.0000 
      2 C2         -2.7889   50.6628   23.5018 C.3       1 UNK         0.0000 
      3 C3         -2.1958   49.7459   22.4006 C.3       1 UNK         0.0000 
      4 C4         -2.4849   50.2859   25.0255 C.3       1 UNK         0.0000 
      5 C5         -3.7920   50.4808   25.8988 C.3       1 UNK         0.0000 
      6 H6         -4.5079   49.7476   25.5263 H         1 UNK         0.0000 
      7 C7         -3.5603   50.1450   27.4088 C.3       1 UNK         0.0000 
      8 H8         -3.2958   49.0903   27.4806 H         1 UNK         0.0000 
      9 N9         -2.3675   50.8998   27.8185 N.pl3     1 UNK         0.0000 
     10 C10        -1.2991   51.2889   27.0639 C.2       1 UNK         0.0000 
     11 S11        -0.0630   52.0220   27.9232 S.2       1 UNK         0.0000 
     12 N12        -1.3145   50.9704   25.7086 N.pl3     1 UNK         0.0000 
     13 C13        -0.1618   51.1358   24.8842 C.ar      1 UNK         0.0000 
     14 C14         0.5111   50.0131   24.3750 C.ar      1 UNK         0.0000 
     15 C15         1.5273   50.1632   23.4298 C.ar      1 UNK         0.0000 
     16 C16         1.9036   51.4375   23.0126 C.ar      1 UNK         0.0000 
     17 C17         1.3019   52.5698   23.5856 C.ar      1 UNK         0.0000 
     18 C18         0.2698   52.4192   24.5089 C.ar      1 UNK         0.0000 
     19 O19         1.6361   53.8530   23.2011 O.3       1 UNK         0.0000 
     20 C20         2.9004   53.9414   22.5323 C.3       1 UNK         0.0000 
     21 C21         3.0290   52.8234   21.4687 C.3       1 UNK         0.0000 
     22 O22         2.9199   51.5338   22.0814 O.3       1 UNK         0.0000 
     23 C23        -4.7890   50.2338   28.3364 C.ar      1 UNK         0.0000 
     24 C24        -6.0817   49.9751   27.8522 C.ar      1 UNK         0.0000 
     25 C25        -7.1889   50.0263   28.6983 C.ar      1 UNK         0.0000 
     26 C26        -7.0175   50.3187   30.0487 C.ar      1 UNK         0.0000 
     27 C27        -5.7396   50.5447   30.5530 C.ar      1 UNK         0.0000 
     28 C28        -4.6313   50.4919   29.7066 C.ar      1 UNK         0.0000 
     29 F29        -5.5813   50.8190   31.8651 F         1 UNK         0.0000 
     30 C30        -4.5228   51.8356   25.6836 C.2       1 UNK         0.0000 
     31 O31        -5.6010   51.8790   25.0884 O.2       1 UNK         0.0000 
     32 O32        -3.8695   52.8968   26.1875 O.3       1 UNK         0.0000 
     33 C33        -4.4060   54.2001   26.0551 C.3       1 UNK         0.0000 
     34 O34        -2.2848   48.8761   25.0849 O.3       1 UNK         0.0000 
     35 H35        -1.5785   52.2711   22.5939 H         1 UNK         0.0000 
     36 H36        -3.2956   52.5305   22.4813 H         1 UNK         0.0000 
     37 H37        -2.4943   52.8066   23.9908 H         1 UNK         0.0000 
     38 H38        -3.8613   50.5089   23.3666 H         1 UNK         0.0000 
     39 H39        -1.1131   49.8180   22.3352 H         1 UNK         0.0000 
     40 H40        -2.4524   48.6976   22.5557 H         1 UNK         0.0000 
     41 H41        -2.5866   50.0171   21.4195 H         1 UNK         0.0000 
     42 H42        -2.1187   50.8427   28.7962 H         1 UNK         0.0000 
     43 H43         0.2254   49.0150   24.6746 H         1 UNK         0.0000 
     44 H44         2.0237   49.2945   23.0237 H         1 UNK         0.0000 
     45 H45        -0.2278   53.2965   24.8913 H         1 UNK         0.0000 
     46 H46         3.0104   54.9242   22.0776 H         1 UNK         0.0000 
     47 H47         3.7016   53.8291   23.2653 H         1 UNK         0.0000 
     48 H48         2.2338   52.9343   20.7292 H         1 UNK         0.0000 
     49 H49         3.9817   52.8966   20.9438 H         1 UNK         0.0000 
     50 H50        -6.2465   49.7301   26.8139 H         1 UNK         0.0000 
     51 H51        -8.1777   49.8342   28.3077 H         1 UNK         0.0000 
     52 H52        -7.8706   50.3571   30.7097 H         1 UNK         0.0000 
     53 H53        -3.6494   50.6378   30.1333 H         1 UNK         0.0000 
     54 H54        -3.6989   54.9061   26.4812 H         1 UNK         0.0000 
     55 H55        -4.5618   54.4618   25.0072 H         1 UNK         0.0000 
     56 H56        -5.3538   54.2930   26.5875 H         1 UNK         0.0000 
     57 H57        -2.0873   48.6347   25.9975 H         1 UNK         0.0000 
@<TRIPOS>BOND
     1    1    2 1    
     2    1   35 1    
     3    1   36 1    
     4    1   37 1    
     5    2    3 1    
     6    2    4 1    
     7    2   38 1    
     8    3   39 1    
     9    3   40 1    
    10    3   41 1    
    11    4   12 1    
    12    4    5 1    
    13    4   34 1    
    14    5    6 1    
    15    5    7 1    
    16    5   30 1    
    17    7    8 1    
    18    7    9 1    
    19    7   23 1    
    20    9   10 1    
    21    9   42 1    
    22   10   11 2    
    23   10   12 1    
    24   12   13 1    
    25   13   18 ar   
    26   13   14 ar   
    27   14   15 ar   
    28   14   43 1    
    29   15   16 ar   
    30   15   44 1    
    31   16   22 1    
    32   16   17 ar   
    33   17   18 ar   
    34   17   19 1    
    35   18   45 1    
    36   19   20 1    
    37   20   21 1    
    38   20   46 1    
    39   20   47 1    
    40   21   22 1    
    41   21   48 1    
    42   21   49 1    
    43   23   28 ar   
    44   23   24 ar   
    45   24   25 ar   
    46   24   50 1    
    47   25   26 ar   
    48   25   51 1    
    49   26   27 ar   
    50   26   52 1    
    51   27   28 ar   
    52   27   29 1    
    53   28   53 1    
    54   30   31 2    
    55   30   32 1    
    56   32   33 1    
    57   33   54 1    
    58   33   55 1    
    59   33   56 1    
    60   34   57 1    
@<TRIPOS>SUBSTRUCTURE
     1 UNK         1 GROUP             0       ****    0 ROOT    
