ZINC39945419_4867
                    3D
 Schrodinger Suite 2024-2.
 52 55  0  0  1  0            999 V2000
    1.5147   52.2030   22.9168 C   0  0  0  0  0  0
    1.8899   53.4957   23.2811 C   0  0  0  0  0  0
    3.0498   54.0526   22.7469 C   0  0  0  0  0  0
    3.8411   53.3189   21.8495 C   0  0  0  0  0  0
    3.4449   52.0273   21.4809 C   0  0  0  0  0  0
    2.2853   51.4687   22.0157 C   0  0  0  0  0  0
    5.1630   53.8852   21.2930 C   0  0  1  0  0  0
    5.8431   53.0405   21.1944 H   0  0  0  0  0  0
    5.0250   54.4594   19.8587 C   0  0  0  0  0  0
    4.0847   54.1012   19.1488 O   0  0  0  0  0  0
    6.0158   55.4172   19.3498 C   0  0  0  0  0  0
    5.8436   56.3989   18.4434 C   0  0  0  0  0  0
    4.6543   56.8468   17.6969 C   0  0  0  0  0  0
    4.7303   57.8917   16.8509 C   0  0  0  0  0  0
    6.0151   58.5577   16.6987 C   0  0  0  0  0  0
    7.1262   58.1467   17.3639 C   0  0  0  0  0  0
    7.0608   57.0575   18.2413 C   0  0  0  0  0  0
    8.0123   56.5103   18.9623 N   0  3  0  0  0  0
    7.4836   55.3825   19.7457 C   0  0  0  0  0  0
    5.7181   54.8505   22.1993 O   0  0  0  0  0  0
    6.5177   54.4578   23.2200 C   0  0  0  0  0  0
    7.1078   53.3846   23.2831 O   0  0  0  0  0  0
    6.6280   55.4963   24.3424 C   0  0  0  0  0  0
    5.6666   55.1457   25.3905 N   0  0  0  0  0  0
    5.9466   54.4974   26.5364 C   0  0  0  0  0  0
    7.0996   54.2497   26.8878 O   0  0  0  0  0  0
    4.7564   54.0757   27.3752 C   0  0  0  0  0  0
    3.4324   54.3558   26.9908 C   0  0  0  0  0  0
    2.3571   53.9419   27.7764 C   0  0  0  0  0  0
    2.5786   53.2414   28.9616 C   0  0  0  0  0  0
    3.8886   52.9537   29.3615 C   0  0  0  0  0  0
    4.9629   53.3677   28.5686 C   0  0  0  0  0  0
    4.2047   52.0930   30.8279 Cl  0  0  0  0  0  0
    1.2176   52.7429   29.9102 Cl  0  0  0  0  0  0
    0.6190   51.7647   23.3349 H   0  0  0  0  0  0
    1.2830   54.0578   23.9782 H   0  0  0  0  0  0
    3.3328   55.0534   23.0406 H   0  0  0  0  0  0
    4.0378   51.4503   20.7826 H   0  0  0  0  0  0
    1.9879   50.4676   21.7365 H   0  0  0  0  0  0
    3.6973   56.3525   17.8077 H   0  0  0  0  0  0
    3.8666   58.2360   16.3031 H   0  0  0  0  0  0
    6.0738   59.4336   16.0635 H   0  0  0  0  0  0
    8.0475   58.6951   17.2207 H   0  0  0  0  0  0
    8.0165   54.4964   19.4065 H   0  0  0  0  0  0
    7.6925   55.5783   20.7986 H   0  0  0  0  0  0
    7.6470   55.5147   24.7242 H   0  0  0  0  0  0
    6.4163   56.4957   23.9781 H   0  0  0  0  0  0
    4.7050   55.3906   25.2155 H   0  0  0  0  0  0
    3.2078   54.8956   26.0798 H   0  0  0  0  0  0
    1.3472   54.1639   27.4653 H   0  0  0  0  0  0
    5.9690   53.1309   28.8864 H   0  0  0  0  0  0
    8.9864   56.8039   18.9730 H   0  0  0  0  0  0
  1  6  2  0  0  0
  1  2  1  0  0  0
  1 35  1  0  0  0
  2  3  2  0  0  0
  2 36  1  0  0  0
  3  4  1  0  0  0
  3 37  1  0  0  0
  4  5  2  0  0  0
  4  7  1  0  0  0
  5  6  1  0  0  0
  5 38  1  0  0  0
  6 39  1  0  0  0
  7  8  1  0  0  0
  7  9  1  0  0  0
  7 20  1  0  0  0
  9 10  2  0  0  0
  9 11  1  0  0  0
 11 19  1  0  0  0
 11 12  2  0  0  0
 12 17  1  0  0  0
 12 13  1  0  0  0
 13 14  2  0  0  0
 13 40  1  0  0  0
 14 15  1  0  0  0
 14 41  1  0  0  0
 15 16  2  0  0  0
 15 42  1  0  0  0
 16 17  1  0  0  0
 16 43  1  0  0  0
 17 18  2  0  0  0
 18 19  1  0  0  0
 18 52  1  0  0  0
 19 44  1  0  0  0
 19 45  1  0  0  0
 20 21  1  0  0  0
 21 22  2  0  0  0
 21 23  1  0  0  0
 23 24  1  0  0  0
 23 46  1  0  0  0
 23 47  1  0  0  0
 24 25  1  0  0  0
 24 48  1  0  0  0
 25 26  2  0  0  0
 25 27  1  0  0  0
 27 32  2  0  0  0
 27 28  1  0  0  0
 28 29  2  0  0  0
 28 49  1  0  0  0
 29 30  1  0  0  0
 29 50  1  0  0  0
 30 31  2  0  0  0
 30 34  1  0  0  0
 31 32  1  0  0  0
 31 33  1  0  0  0
 32 51  1  0  0  0
M  CHG  1  18   1
M  END
> <i_i_glide_confnum>
216

> <i_i_glide_lignum>
4868

> <i_i_glide_posenum>
78

> <i_i_glide_rotatable_bonds>
9

> <i_m_Source_File_Index>
2551

> <b_m_subgroup_collapsed>
0

> <r_i_docking_score>
-6.47353

> <r_i_glide_ecoul>
-3.28407

> <r_i_glide_eff_state_penalty>
0

> <r_i_glide_einternal>
8.2185

> <r_i_glide_emodel>
-74.9245

> <r_i_glide_energy>
-53.6804

> <r_i_glide_erotb>
0.697806

> <r_i_glide_esite>
0

> <r_i_glide_evdw>
-50.3963

> <r_i_glide_gscore>
-6.47353

> <r_i_glide_hbond>
-0.0966491

> <r_i_glide_ligand_efficiency>
-0.196168

> <r_i_glide_ligand_efficiency_ln>
-1.43968

> <r_i_glide_ligand_efficiency_sa>
-0.629214

> <r_i_glide_lipo>
-3.07674

> <r_i_glide_metal>
0

> <r_i_glide_rewards>
-0.985522

> <s_i_glide_gridfile>
wee1_glide-grid

> <s_m_Source_File>
wee1_decoys_glide_SP.sdf

> <s_m_Source_Path>
/Users/zhangxujun/Desktop

> <s_m_entry_id>
2826

> <s_m_entry_name>
wee1_decoys_glide_SP.2551

> <s_m_subgroup_title>
wee1_decoys_glide_SP

> <s_m_subgroupid>
wee1_decoys_glide_SP


$$$$
