@<TRIPOS>MOLECULE
ZINC65638441_6222
56   57    1
SMALL
USER_CHARGES


@<TRIPOS>ATOM
      1 C1          1.2672   50.2266   18.1027 C.3       1 UNK         0.0000 
      2 C2          1.7540   51.0205   19.3309 C.3       1 UNK         0.0000 
      3 C3          1.9326   50.0984   20.5532 C.3       1 UNK         0.0000 
      4 N4          3.1043   51.6964   18.9904 N.4       1 UNK         0.0000 
      5 C5          3.0948   52.6483   17.7763 C.3       1 UNK         0.0000 
      6 C6          4.1831   53.6918   18.0659 C.3       1 UNK         0.0000 
      7 C7          4.8653   53.2979   19.3846 C.3       1 UNK         0.0000 
      8 C8          3.7522   52.5327   20.1110 C.3       1 UNK         0.0000 
      9 C9          5.5058   54.4925   20.1413 C.3       1 UNK         0.0000 
     10 N10         5.5033   54.3967   21.6079 N.am      1 UNK         0.0000 
     11 C11         6.4668   54.9364   22.4000 C.2       1 UNK         0.0000 
     12 O12         7.4663   55.4776   21.9202 O.2       1 UNK         0.0000 
     13 C13         6.2585   54.8946   23.8955 C.2       1 UNK         0.0000 
     14 O14         7.1044   55.3487   24.6687 O.2       1 UNK         0.0000 
     15 N15         5.0771   54.3782   24.3138 N.am      1 UNK         0.0000 
     16 C16         4.6493   54.0969   25.6220 C.ar      1 UNK         0.0000 
     17 C17         5.5000   54.0072   26.7337 C.ar      1 UNK         0.0000 
     18 C18         4.9929   53.6138   27.9674 C.ar      1 UNK         0.0000 
     19 C19         3.6356   53.2990   28.1129 C.ar      1 UNK         0.0000 
     20 C20         2.7858   53.4267   27.0021 C.ar      1 UNK         0.0000 
     21 C21         3.2915   53.8172   25.7677 C.ar      1 UNK         0.0000 
     22 C22         3.1104   52.8675   29.4633 C.2       1 UNK         0.0000 
     23 O23         3.7845   53.0204   30.4820 O.2       1 UNK         0.0000 
     24 N24         1.8556   52.3809   29.4942 N.am      1 UNK         0.0000 
     25 C25         1.0037   52.3561   30.6839 C.3       1 UNK         0.0000 
     26 C26         0.4429   53.7125   31.0968 C.2       1 UNK         0.0000 
     27 C27         0.6996   54.8978   30.5089 C.2       1 UNK         0.0000 
     28 H28         0.3398   49.6951   18.3190 H         1 UNK         0.0000 
     29 H29         1.0682   50.8738   17.2484 H         1 UNK         0.0000 
     30 H30         2.0059   49.4860   17.7864 H         1 UNK         0.0000 
     31 H31         1.0714   51.8425   19.5596 H         1 UNK         0.0000 
     32 H32         1.0062   49.5687   20.7800 H         1 UNK         0.0000 
     33 H33         2.7034   49.3451   20.3783 H         1 UNK         0.0000 
     34 H34         2.2027   50.6518   21.4519 H         1 UNK         0.0000 
     35 H35         2.1055   53.1073   17.7148 H         1 UNK         0.0000 
     36 H36         3.2988   52.0286   16.8999 H         1 UNK         0.0000 
     37 H37         3.6646   54.6471   18.1725 H         1 UNK         0.0000 
     38 H38         4.8980   53.8001   17.2485 H         1 UNK         0.0000 
     39 H39         5.6431   52.5574   19.1755 H         1 UNK         0.0000 
     40 H40         4.1123   51.8604   20.8912 H         1 UNK         0.0000 
     41 H41         2.9827   53.1747   20.5481 H         1 UNK         0.0000 
     42 H42         5.0269   55.4305   19.8585 H         1 UNK         0.0000 
     43 H43         6.5242   54.6042   19.7597 H         1 UNK         0.0000 
     44 H44         4.6909   53.9650   22.0114 H         1 UNK         0.0000 
     45 H45         4.3945   54.1517   23.6133 H         1 UNK         0.0000 
     46 H46         6.5602   54.1908   26.6644 H         1 UNK         0.0000 
     47 H47         5.6732   53.5375   28.8051 H         1 UNK         0.0000 
     48 H48         1.7275   53.2209   27.0704 H         1 UNK         0.0000 
     49 H49         2.6172   53.8826   24.9259 H         1 UNK         0.0000 
     50 H50         1.4030   52.1633   28.6201 H         1 UNK         0.0000 
     51 H51         1.5087   51.8841   31.5294 H         1 UNK         0.0000 
     52 H52         0.1467   51.7139   30.4736 H         1 UNK         0.0000 
     53 H53        -0.2156   53.6877   31.9547 H         1 UNK         0.0000 
     54 H54         1.3439   54.9906   29.6482 H         1 UNK         0.0000 
     55 H55         0.2649   55.8112   30.8818 H         1 UNK         0.0000 
     56 H56         3.7717   50.9578   18.7567 H         1 UNK         0.0000 
@<TRIPOS>BOND
     1    1    2 1    
     2    1   28 1    
     3    1   29 1    
     4    1   30 1    
     5    2    3 1    
     6    2    4 1    
     7    2   31 1    
     8    3   32 1    
     9    3   33 1    
    10    3   34 1    
    11    4    8 1    
    12    4    5 1    
    13    4   56 1    
    14    5    6 1    
    15    5   35 1    
    16    5   36 1    
    17    6    7 1    
    18    6   37 1    
    19    6   38 1    
    20    7    8 1    
    21    7    9 1    
    22    7   39 1    
    23    8   40 1    
    24    8   41 1    
    25    9   10 1    
    26    9   42 1    
    27    9   43 1    
    28   10   11 am   BACKBONE|DICT|INTERRES
    29   10   44 1    
    30   11   12 2    
    31   11   13 1    
    32   13   14 2    
    33   13   15 am   BACKBONE|DICT|INTERRES
    34   15   16 1    
    35   15   45 1    
    36   16   21 ar   
    37   16   17 ar   
    38   17   18 ar   
    39   17   46 1    
    40   18   19 ar   
    41   18   47 1    
    42   19   20 ar   
    43   19   22 1    
    44   20   21 ar   
    45   20   48 1    
    46   21   49 1    
    47   22   23 2    
    48   22   24 am   BACKBONE|DICT|INTERRES
    49   24   25 1    
    50   24   50 1    
    51   25   26 1    
    52   25   51 1    
    53   25   52 1    
    54   26   27 2    
    55   26   53 1    
    56   27   54 1    
    57   27   55 1    
@<TRIPOS>SUBSTRUCTURE
     1 UNK         1 GROUP             0       ****    0 ROOT    
