@<TRIPOS>MOLECULE
ZINC62353489_1715
33   35    1
SMALL
USER_CHARGES


@<TRIPOS>ATOM
      1 C1          4.7828   54.3794   28.0070 C.ar      1 UNK         0.0000 
      2 C2          5.3468   54.4955   26.7373 C.ar      1 UNK         0.0000 
      3 C3          4.5602   54.2721   25.5925 C.ar      1 UNK         0.0000 
      4 C4          3.2200   53.8927   25.7686 C.ar      1 UNK         0.0000 
      5 C5          2.6572   53.7453   27.0375 C.ar      1 UNK         0.0000 
      6 C6          3.4478   54.0137   28.1812 C.ar      1 UNK         0.0000 
      7 O7          2.9656   54.0099   29.4776 O.3       1 UNK         0.0000 
      8 C8          1.6083   54.3905   29.6813 C.3       1 UNK         0.0000 
      9 C9          0.6341   53.2350   29.4263 C.3       1 UNK         0.0000 
     10 C10         0.9707   52.4437   28.1567 C.3       1 UNK         0.0000 
     11 O11         1.3513   53.2966   27.0830 O.3       1 UNK         0.0000 
     12 N12         5.1332   54.4964   24.3163 N.am      1 UNK         0.0000 
     13 C13         4.7225   54.0790   23.0952 C.2       1 UNK         0.0000 
     14 O14         3.7535   53.3429   22.8943 O.2       1 UNK         0.0000 
     15 C15         5.5274   54.5834   21.9956 C.2       1 UNK         0.0000 
     16 C16         6.7379   55.2959   22.0739 C.2       1 UNK         0.0000 
     17 S17         7.2977   55.6966   20.4798 S.3       1 UNK         0.0000 
     18 C18         5.9045   54.8823   19.8607 C.2       1 UNK         0.0000 
     19 N19         5.1057   54.3638   20.7578 N.2       1 UNK         0.0000 
     20 N20         6.7014   54.8324   26.6578 N.pl3     1 UNK         0.0000 
     21 H21         5.3827   54.5822   28.8827 H         1 UNK         0.0000 
     22 H22         2.5742   53.7117   24.9240 H         1 UNK         0.0000 
     23 H23         1.5013   54.7321   30.7111 H         1 UNK         0.0000 
     24 H24         1.3612   55.2646   29.0738 H         1 UNK         0.0000 
     25 H25         0.6282   52.5556   30.2800 H         1 UNK         0.0000 
     26 H26        -0.3778   53.6345   29.3524 H         1 UNK         0.0000 
     27 H27         1.7438   51.6941   28.3422 H         1 UNK         0.0000 
     28 H28         0.0975   51.8705   27.8418 H         1 UNK         0.0000 
     29 H29         5.9621   55.0670   24.3301 H         1 UNK         0.0000 
     30 H30         7.3099   55.6020   22.9363 H         1 UNK         0.0000 
     31 H31         5.7253   54.8022   18.7991 H         1 UNK         0.0000 
     32 H32         7.1782   54.8839   27.5480 H         1 UNK         0.0000 
     33 H33         7.1934   54.4530   25.8637 H         1 UNK         0.0000 
@<TRIPOS>BOND
     1    1    6 ar   
     2    1    2 ar   
     3    1   21 1    
     4    2    3 ar   
     5    2   20 1    
     6    3    4 ar   
     7    3   12 1    
     8    4    5 ar   
     9    4   22 1    
    10    5   11 1    
    11    5    6 ar   
    12    6    7 1    
    13    7    8 1    
    14    8    9 1    
    15    8   23 1    
    16    8   24 1    
    17    9   10 1    
    18    9   25 1    
    19    9   26 1    
    20   10   11 1    
    21   10   27 1    
    22   10   28 1    
    23   12   13 am   BACKBONE|DICT|INTERRES
    24   12   29 1    
    25   13   14 2    
    26   13   15 1    
    27   15   19 1    
    28   15   16 2    
    29   16   17 1    
    30   16   30 1    
    31   17   18 1    
    32   18   19 2    
    33   18   31 1    
    34   20   32 1    
    35   20   33 1    
@<TRIPOS>SUBSTRUCTURE
     1 UNK         1 GROUP             0       ****    0 ROOT    
