@<TRIPOS>MOLECULE
ZINC21225253_3930
59   63    1
SMALL
USER_CHARGES


@<TRIPOS>ATOM
      1 C1          0.0585   51.6222   27.5895 C.3       1 UNK         0.0000 
      2 N2          1.1220   52.6287   27.6703 N.pl3     1 UNK         0.0000 
      3 C3          1.8315   52.7004   28.9479 C.3       1 UNK         0.0000 
      4 C4          1.7630   53.0682   26.4762 C.ar      1 UNK         0.0000 
      5 C5          3.0173   53.6976   26.5059 C.ar      1 UNK         0.0000 
      6 C6          3.6577   54.0897   25.3329 C.ar      1 UNK         0.0000 
      7 C7          3.0693   53.8628   24.0813 C.ar      1 UNK         0.0000 
      8 C8          1.7900   53.2955   24.0510 C.ar      1 UNK         0.0000 
      9 C9          1.1558   52.8934   25.2237 C.ar      1 UNK         0.0000 
     10 C10         3.7926   54.2276   22.7623 C.3       1 UNK         0.0000 
     11 H11         3.3135   55.1510   22.4313 H         1 UNK         0.0000 
     12 C12         3.6166   53.1490   21.6612 C.3       1 UNK         0.0000 
     13 C13         4.4134   53.4899   20.3996 C.2       1 UNK         0.0000 
     14 C14         5.5011   54.3065   20.3845 C.2       1 UNK         0.0000 
     15 C15         6.3735   54.5825   19.1427 C.3       1 UNK         0.0000 
     16 H16         7.3959   54.4225   19.4828 H         1 UNK         0.0000 
     17 N17         6.3184   53.5999   18.0568 N.pl3     1 UNK         0.0000 
     18 C18         5.1419   53.4659   17.3018 C.ar      1 UNK         0.0000 
     19 C19         5.1763   53.6175   15.9107 C.ar      1 UNK         0.0000 
     20 C20         4.0146   53.5756   15.1451 C.ar      1 UNK         0.0000 
     21 C21         2.7895   53.3720   15.7669 C.ar      1 UNK         0.0000 
     22 C22         2.7397   53.1858   17.1454 C.ar      1 UNK         0.0000 
     23 C23         3.8986   53.2050   17.9303 C.ar      1 UNK         0.0000 
     24 N24         3.8220   52.9052   19.2997 N.pl3     1 UNK         0.0000 
     25 C25         6.2968   56.0146   18.5829 C.ar      1 UNK         0.0000 
     26 C26         5.1073   56.4807   18.0016 C.ar      1 UNK         0.0000 
     27 C27         5.0717   57.7002   17.3311 C.ar      1 UNK         0.0000 
     28 C28         6.2117   58.4964   17.2816 C.ar      1 UNK         0.0000 
     29 C29         7.3799   58.0830   17.9171 C.ar      1 UNK         0.0000 
     30 C30         7.4276   56.8510   18.5679 C.ar      1 UNK         0.0000 
     31 O31         8.6003   56.4951   19.1825 O.3       1 UNK         0.0000 
     32 C32         6.0235   54.8933   21.6418 C.2       1 UNK         0.0000 
     33 O33         7.0523   55.5698   21.6820 O.2       1 UNK         0.0000 
     34 C34         5.3053   54.5104   22.9476 C.3       1 UNK         0.0000 
     35 H35         0.4348   50.7091   27.1250 H         1 UNK         0.0000 
     36 H36        -0.7813   51.9746   26.9902 H         1 UNK         0.0000 
     37 H37        -0.3303   51.3504   28.5720 H         1 UNK         0.0000 
     38 H38         2.6889   52.0263   28.9398 H         1 UNK         0.0000 
     39 H39         2.2025   53.7082   29.1370 H         1 UNK         0.0000 
     40 H40         1.1900   52.4228   29.7860 H         1 UNK         0.0000 
     41 H41         3.5354   53.8736   27.4347 H         1 UNK         0.0000 
     42 H42         4.6302   54.5447   25.4270 H         1 UNK         0.0000 
     43 H43         1.2706   53.1393   23.1192 H         1 UNK         0.0000 
     44 H44         0.1812   52.4425   25.1339 H         1 UNK         0.0000 
     45 H45         3.9282   52.1550   21.9863 H         1 UNK         0.0000 
     46 H46         2.5522   53.1276   21.4237 H         1 UNK         0.0000 
     47 H47         7.1252   53.6836   17.4559 H         1 UNK         0.0000 
     48 H48         6.1192   53.8007   15.4164 H         1 UNK         0.0000 
     49 H49         4.0652   53.7086   14.0741 H         1 UNK         0.0000 
     50 H50         1.8828   53.3388   15.1805 H         1 UNK         0.0000 
     51 H51         1.7830   52.9961   17.6093 H         1 UNK         0.0000 
     52 H52         3.0222   52.3298   19.5162 H         1 UNK         0.0000 
     53 H53         4.2102   55.8815   18.0293 H         1 UNK         0.0000 
     54 H54         4.1588   58.0371   16.8612 H         1 UNK         0.0000 
     55 H55         6.1801   59.4468   16.7684 H         1 UNK         0.0000 
     56 H56         8.2525   58.7186   17.8954 H         1 UNK         0.0000 
     57 H57         8.4800   55.8281   19.8625 H         1 UNK         0.0000 
     58 H58         5.5071   55.2968   23.6698 H         1 UNK         0.0000 
     59 H59         5.7886   53.6075   23.3209 H         1 UNK         0.0000 
@<TRIPOS>BOND
     1    1    2 1    
     2    1   35 1    
     3    1   36 1    
     4    1   37 1    
     5    2    3 1    
     6    2    4 1    
     7    3   38 1    
     8    3   39 1    
     9    3   40 1    
    10    4    9 ar   
    11    4    5 ar   
    12    5    6 ar   
    13    5   41 1    
    14    6    7 ar   
    15    6   42 1    
    16    7    8 ar   
    17    7   10 1    
    18    8    9 ar   
    19    8   43 1    
    20    9   44 1    
    21   10   11 1    
    22   10   34 1    
    23   10   12 1    
    24   12   13 1    
    25   12   45 1    
    26   12   46 1    
    27   13   24 1    
    28   13   14 2    
    29   14   15 1    
    30   14   32 1    
    31   15   16 1    
    32   15   17 1    
    33   15   25 1    
    34   17   18 1    
    35   17   47 1    
    36   18   23 ar   
    37   18   19 ar   
    38   19   20 ar   
    39   19   48 1    
    40   20   21 ar   
    41   20   49 1    
    42   21   22 ar   
    43   21   50 1    
    44   22   23 ar   
    45   22   51 1    
    46   23   24 1    
    47   24   52 1    
    48   25   30 ar   
    49   25   26 ar   
    50   26   27 ar   
    51   26   53 1    
    52   27   28 ar   
    53   27   54 1    
    54   28   29 ar   
    55   28   55 1    
    56   29   30 ar   
    57   29   56 1    
    58   30   31 1    
    59   31   57 1    
    60   32   33 2    
    61   32   34 1    
    62   34   58 1    
    63   34   59 1    
@<TRIPOS>SUBSTRUCTURE
     1 UNK         1 GROUP             0       ****    0 ROOT    
