@<TRIPOS>MOLECULE
ZINC05649579_3809
29   31    1
SMALL
USER_CHARGES


@<TRIPOS>ATOM
      1 C1          4.6884   54.0967   22.4782 C.ar      1 UNK         0.0000 
      2 C2          5.0844   54.3645   21.1698 C.ar      1 UNK         0.0000 
      3 C3          6.2872   55.0267   20.9355 C.ar      1 UNK         0.0000 
      4 C4          7.1044   55.4036   21.9965 C.ar      1 UNK         0.0000 
      5 C5          6.7044   55.1415   23.3028 C.ar      1 UNK         0.0000 
      6 C6          5.4938   54.4967   23.5523 C.ar      1 UNK         0.0000 
      7 C7          5.0593   54.2981   24.9617 C.2       1 UNK         0.0000 
      8 C8          5.6606   54.4529   26.2027 C.2       1 UNK         0.0000 
      9 C9          4.7235   54.0571   27.1589 C.2       1 UNK         0.0000 
     10 C10         3.5664   53.6967   26.4765 C.2       1 UNK         0.0000 
     11 O11         3.7894   53.8660   25.1494 O.3       1 UNK         0.0000 
     12 C12         2.2882   53.1006   26.8115 C.2       1 UNK         0.0000 
     13 C13         1.5782   52.9412   27.9472 C.2       1 UNK         0.0000 
     14 C14         1.9324   53.4069   29.2817 C.2       1 UNK         0.0000 
     15 O15         2.9024   54.0958   29.5934 O.2       1 UNK         0.0000 
     16 N16         1.0240   52.9632   30.2184 N.am      1 UNK         0.0000 
     17 C17         0.0903   52.2744   29.7366 C.2       1 UNK         0.0000 
     18 S18         0.0479   52.0733   28.0014 S.3       1 UNK         0.0000 
     19 N19        -0.8956   51.6967   30.4817 N.pl3     1 UNK         0.0000 
     20 Br20        6.8314   55.4077   19.1539 Br        1 UNK         0.0000 
     21 H21         3.7452   53.5987   22.6505 H         1 UNK         0.0000 
     22 H22         4.4563   54.0685   20.3416 H         1 UNK         0.0000 
     23 H23         8.0451   55.9021   21.8115 H         1 UNK         0.0000 
     24 H24         7.3420   55.4574   24.1150 H         1 UNK         0.0000 
     25 H25         6.6708   54.7793   26.3957 H         1 UNK         0.0000 
     26 H26         4.8963   54.0101   28.2229 H         1 UNK         0.0000 
     27 H27         1.8226   52.6883   25.9270 H         1 UNK         0.0000 
     28 H28        -0.9322   51.8375   31.4917 H         1 UNK         0.0000 
     29 H29        -1.3317   50.8472   30.1453 H         1 UNK         0.0000 
@<TRIPOS>BOND
     1    1    6 ar   
     2    1    2 ar   
     3    1   21 1    
     4    2    3 ar   
     5    2   22 1    
     6    3    4 ar   
     7    3   20 1    
     8    4    5 ar   
     9    4   23 1    
    10    5    6 ar   
    11    5   24 1    
    12    6    7 1    
    13    7   11 1    
    14    7    8 2    
    15    8    9 1    
    16    8   25 1    
    17    9   10 2    
    18    9   26 1    
    19   10   11 1    
    20   10   12 1    
    21   12   13 2    
    22   12   27 1    
    23   13   18 1    
    24   13   14 1    
    25   14   15 2    
    26   14   16 am   BACKBONE|DICT|INTERRES
    27   16   17 2    BACKBONE|DICT|INTERRES
    28   17   18 1    
    29   17   19 1    
    30   19   28 1    
    31   19   29 1    
@<TRIPOS>SUBSTRUCTURE
     1 UNK         1 GROUP             0       ****    0 ROOT    
