@<TRIPOS>MOLECULE
ZINC33721026_5618
54   58    1
SMALL
USER_CHARGES


@<TRIPOS>ATOM
      1 C1          1.1044   55.8529   30.5374 C.ar      1 UNK         0.0000 
      2 C2          0.7029   54.5266   30.6988 C.ar      1 UNK         0.0000 
      3 C3          1.0952   53.5700   29.7689 C.ar      1 UNK         0.0000 
      4 C4          1.8854   53.9387   28.6753 C.ar      1 UNK         0.0000 
      5 C5          2.2633   55.2791   28.5153 C.ar      1 UNK         0.0000 
      6 C6          1.8760   56.2340   29.4470 C.ar      1 UNK         0.0000 
      7 C7          2.3369   52.8455   27.7050 C.3       1 UNK         0.0000 
      8 N8          2.9310   53.3042   26.4491 N.pl3     1 UNK         0.0000 
      9 C9          4.2158   53.7873   26.2833 C.ar      1 UNK         0.0000 
     10 C10         5.2925   53.9891   27.1568 C.ar      1 UNK         0.0000 
     11 C11         6.4665   54.4976   26.5975 C.ar      1 UNK         0.0000 
     12 C12         6.5713   54.7923   25.2364 C.ar      1 UNK         0.0000 
     13 C13         5.4930   54.5935   24.3707 C.ar      1 UNK         0.0000 
     14 C14         4.2949   54.0972   24.9026 C.ar      1 UNK         0.0000 
     15 N15         3.1089   53.8339   24.2707 N.2       1 UNK         0.0000 
     16 C16         2.3185   53.3700   25.2081 C.ar      1 UNK         0.0000 
     17 S17         0.6481   52.8966   24.9021 S.3       1 UNK         0.0000 
     18 C18         0.9192   51.2452   24.2027 C.3       1 UNK         0.0000 
     19 C19         0.7675   51.2016   22.6842 C.2       1 UNK         0.0000 
     20 O20         0.0317   52.0079   22.1081 O.2       1 UNK         0.0000 
     21 N21         1.4676   50.2287   22.0653 N.am      1 UNK         0.0000 
     22 C22         1.5584   50.0772   20.6929 C.2       1 UNK         0.0000 
     23 N23         1.4511   51.0334   19.7989 N.2       1 UNK         0.0000 
     24 C24         1.6401   50.6153   18.5573 C.2       1 UNK         0.0000 
     25 C25         1.9045   49.2428   18.4791 C.2       1 UNK         0.0000 
     26 S26         1.9040   48.5114   20.0550 S.3       1 UNK         0.0000 
     27 C27         1.5791   51.5983   17.4178 C.ar      1 UNK         0.0000 
     28 C28         1.9018   51.1922   16.1186 C.ar      1 UNK         0.0000 
     29 C29         1.8396   52.0876   15.0537 C.ar      1 UNK         0.0000 
     30 C30         1.4612   53.4193   15.2669 C.ar      1 UNK         0.0000 
     31 C31         1.1517   53.8327   16.5692 C.ar      1 UNK         0.0000 
     32 C32         1.2093   52.9325   17.6292 C.ar      1 UNK         0.0000 
     33 N33         1.3987   54.3772   14.1356 N.pl3     1 UNK         0.0000 
     34 O34         1.0490   55.5315   14.3620 O.co2     1 UNK         0.0000 
     35 O35         1.6923   53.9786   13.0102 O.co2     1 UNK         0.0000 
     36 H36         0.8268   56.5882   31.2815 H         1 UNK         0.0000 
     37 H37         0.1063   54.2378   31.5523 H         1 UNK         0.0000 
     38 H38         0.7932   52.5398   29.9056 H         1 UNK         0.0000 
     39 H39         2.8665   55.5939   27.6820 H         1 UNK         0.0000 
     40 H40         2.1798   57.2646   29.3300 H         1 UNK         0.0000 
     41 H41         1.5013   52.1834   27.4749 H         1 UNK         0.0000 
     42 H42         3.0789   52.2220   28.2073 H         1 UNK         0.0000 
     43 H43         5.2249   53.7626   28.2108 H         1 UNK         0.0000 
     44 H44         7.3166   54.6627   27.2438 H         1 UNK         0.0000 
     45 H45         7.5012   55.1744   24.8386 H         1 UNK         0.0000 
     46 H46         5.5778   54.8256   23.3192 H         1 UNK         0.0000 
     47 H47         0.1842   50.5687   24.6375 H         1 UNK         0.0000 
     48 H48         1.9028   50.8780   24.4814 H         1 UNK         0.0000 
     49 H49         1.8781   49.5016   22.6334 H         1 UNK         0.0000 
     50 H50         2.1424   48.6543   17.6051 H         1 UNK         0.0000 
     51 H51         2.2279   50.1794   15.9223 H         1 UNK         0.0000 
     52 H52         2.0955   51.7371   14.0637 H         1 UNK         0.0000 
     53 H53         0.8685   54.8565   16.7718 H         1 UNK         0.0000 
     54 H54         0.9713   53.2925   18.6200 H         1 UNK         0.0000 
@<TRIPOS>BOND
     1    1    6 ar   
     2    1    2 ar   
     3    1   36 1    
     4    2    3 ar   
     5    2   37 1    
     6    3    4 ar   
     7    3   38 1    
     8    4    5 ar   
     9    4    7 1    
    10    5    6 ar   
    11    5   39 1    
    12    6   40 1    
    13    7    8 1    
    14    7   41 1    
    15    7   42 1    
    16    8   16 ar   
    17    8    9 ar   
    18    9   14 ar   
    19    9   10 ar   
    20   10   11 ar   
    21   10   43 1    
    22   11   12 ar   
    23   11   44 1    
    24   12   13 ar   
    25   12   45 1    
    26   13   14 ar   
    27   13   46 1    
    28   14   15 ar   
    29   15   16 ar   
    30   16   17 1    
    31   17   18 1    
    32   18   19 1    
    33   18   47 1    
    34   18   48 1    
    35   19   20 2    
    36   19   21 am   BACKBONE|DICT|INTERRES
    37   21   22 am   BACKBONE|DICT|INTERRES
    38   21   49 1    
    39   22   26 1    
    40   22   23 2    
    41   23   24 1    
    42   24   25 2    
    43   24   27 1    
    44   25   26 1    
    45   25   50 1    
    46   27   32 ar   
    47   27   28 ar   
    48   28   29 ar   
    49   28   51 1    
    50   29   30 ar   
    51   29   52 1    
    52   30   31 ar   
    53   30   33 1    
    54   31   32 ar   
    55   31   53 1    
    56   32   54 1    
    57   33   34 2    
    58   33   35 1    
@<TRIPOS>SUBSTRUCTURE
     1 UNK         1 GROUP             0       ****    0 ROOT    
