@<TRIPOS>MOLECULE
ZINC35577776_3939
50   54    1
SMALL
USER_CHARGES


@<TRIPOS>ATOM
      1 C1          2.8851   50.8741   20.1842 C.ar      1 UNK         0.0000 
      2 C2          1.7050   50.8714   20.9247 C.ar      1 UNK         0.0000 
      3 C3          1.5314   51.7942   21.9554 C.ar      1 UNK         0.0000 
      4 C4          2.5363   52.7170   22.2490 C.ar      1 UNK         0.0000 
      5 C5          3.7354   52.7211   21.5167 C.ar      1 UNK         0.0000 
      6 C6          3.8917   51.7908   20.4818 C.ar      1 UNK         0.0000 
      7 C7          4.8279   53.6802   21.8186 C.ar      1 UNK         0.0000 
      8 C8          5.3868   54.5537   20.8644 C.ar      1 UNK         0.0000 
      9 C9          5.2100   54.9223   19.5043 C.ar      1 UNK         0.0000 
     10 N10         6.1123   55.9531   19.2670 N.pl3     1 UNK         0.0000 
     11 N11         6.9083   56.2260   20.3254 N.2       1 UNK         0.0000 
     12 C12         6.4529   55.3920   21.3011 C.ar      1 UNK         0.0000 
     13 N13         6.9195   55.3837   22.5487 N.ar      1 UNK         0.0000 
     14 C14         6.2814   54.5566   23.4129 C.ar      1 UNK         0.0000 
     15 N15         5.2773   53.6966   23.1012 N.ar      1 UNK         0.0000 
     16 N16         6.7033   54.6883   24.7419 N.pl3     1 UNK         0.0000 
     17 C17         5.9941   54.1124   25.8848 C.3       1 UNK         0.0000 
     18 C18         6.6282   54.4216   27.2370 C.3       1 UNK         0.0000 
     19 C19         5.5247   54.0970   28.2465 C.3       1 UNK         0.0000 
     20 C20         4.1953   54.3774   27.5291 C.3       1 UNK         0.0000 
     21 C21         4.5131   54.4970   26.0287 C.3       1 UNK         0.0000 
     22 C22         6.2450   56.7651   18.1153 C.ar      1 UNK         0.0000 
     23 C23         5.1041   57.2969   17.4980 C.ar      1 UNK         0.0000 
     24 C24         5.2318   58.1637   16.4127 C.ar      1 UNK         0.0000 
     25 C25         6.4972   58.4956   15.9291 C.ar      1 UNK         0.0000 
     26 C26         7.6371   57.9631   16.5298 C.ar      1 UNK         0.0000 
     27 C27         7.5144   57.1017   17.6199 C.ar      1 UNK         0.0000 
     28 F28         8.8630   58.2905   16.0628 F         1 UNK         0.0000 
     29 N29         4.3045   54.4240   18.6064 N.pl3     1 UNK         0.0000 
     30 F30         2.3290   53.6126   23.2433 F         1 UNK         0.0000 
     31 H31         3.0294   50.1674   19.3774 H         1 UNK         0.0000 
     32 H32         0.9264   50.1585   20.6962 H         1 UNK         0.0000 
     33 H33         0.6162   51.7985   22.5283 H         1 UNK         0.0000 
     34 H34         4.8006   51.7725   19.8956 H         1 UNK         0.0000 
     35 H35         7.4401   55.3557   24.9007 H         1 UNK         0.0000 
     36 H36         6.0471   53.0351   25.7387 H         1 UNK         0.0000 
     37 H37         7.5223   53.8261   27.4182 H         1 UNK         0.0000 
     38 H38         6.9025   55.4754   27.3030 H         1 UNK         0.0000 
     39 H39         5.5786   53.0424   28.5237 H         1 UNK         0.0000 
     40 H40         5.6304   54.6783   29.1642 H         1 UNK         0.0000 
     41 H41         3.4814   53.5736   27.7163 H         1 UNK         0.0000 
     42 H42         3.7404   55.2966   27.9000 H         1 UNK         0.0000 
     43 H43         4.3464   55.5239   25.6993 H         1 UNK         0.0000 
     44 H44         3.8667   53.8448   25.4410 H         1 UNK         0.0000 
     45 H45         4.1155   57.0782   17.8774 H         1 UNK         0.0000 
     46 H46         4.3529   58.6016   15.9605 H         1 UNK         0.0000 
     47 H47         6.5946   59.1805   15.1002 H         1 UNK         0.0000 
     48 H48         8.4102   56.7109   18.0819 H         1 UNK         0.0000 
     49 H49         3.6243   53.7283   18.8814 H         1 UNK         0.0000 
     50 H50         4.2972   54.7032   17.6357 H         1 UNK         0.0000 
@<TRIPOS>BOND
     1    1    6 ar   
     2    1    2 ar   
     3    1   31 1    
     4    2    3 ar   
     5    2   32 1    
     6    3    4 ar   
     7    3   33 1    
     8    4    5 ar   
     9    4   30 1    
    10    5    6 ar   
    11    5    7 1    
    12    6   34 1    
    13    7   15 ar   
    14    7    8 ar   
    15    8   12 ar   
    16    8    9 ar   
    17    9   10 ar   
    18    9   29 1    
    19   10   11 ar   
    20   10   22 1    
    21   11   12 ar   
    22   12   13 ar   
    23   13   14 ar   
    24   14   15 ar   
    25   14   16 1    
    26   16   17 1    
    27   16   35 1    
    28   17   21 1    
    29   17   18 1    
    30   17   36 1    
    31   18   19 1    
    32   18   37 1    
    33   18   38 1    
    34   19   20 1    
    35   19   39 1    
    36   19   40 1    
    37   20   21 1    
    38   20   41 1    
    39   20   42 1    
    40   21   43 1    
    41   21   44 1    
    42   22   27 ar   
    43   22   23 ar   
    44   23   24 ar   
    45   23   45 1    
    46   24   25 ar   
    47   24   46 1    
    48   25   26 ar   
    49   25   47 1    
    50   26   27 ar   
    51   26   28 1    
    52   27   48 1    
    53   29   49 1    
    54   29   50 1    
@<TRIPOS>SUBSTRUCTURE
     1 UNK         1 GROUP             0       ****    0 ROOT    
