ZINC23184529_685
                    3D
 Schrodinger Suite 2024-2.
 64 67  0  0  1  0            999 V2000
    5.2836   54.6843   25.9445 C   0  0  0  0  0  0
    5.6390   54.6857   27.4458 C   0  0  0  0  0  0
    4.4740   54.4046   28.4111 C   0  0  0  0  0  0
    4.5209   54.8875   29.5394 O   0  0  0  0  0  0
    3.4752   53.6251   27.9486 N   0  0  0  0  0  0
    2.3283   53.0869   28.5796 C   0  0  0  0  0  0
    2.1265   53.1068   29.9643 C   0  0  0  0  0  0
    0.9990   52.5088   30.5249 C   0  0  0  0  0  0
    0.0894   51.8288   29.7151 C   0  0  0  0  0  0
    0.2867   51.7532   28.3419 C   0  0  0  0  0  0
    1.3763   52.4406   27.7628 C   0  0  0  0  0  0
    1.5211   52.5325   26.2543 C   0  0  0  0  0  0
   -0.5687   50.9008   27.6200 N   0  0  0  0  0  0
   -1.4428   51.2643   26.6550 C   0  0  0  0  0  0
   -1.6781   52.4383   26.3458 O   0  0  0  0  0  0
   -2.0868   50.0890   25.8841 C   0  0  1  0  0  0
   -1.8059   49.2233   26.4815 H   0  0  0  0  0  0
   -3.6328   50.1001   25.8269 C   0  0  0  0  0  0
   -4.1562   48.8820   25.0439 C   0  0  0  0  0  0
   -5.4994   48.5067   25.1598 C   0  0  0  0  0  0
   -6.0011   47.4010   24.4776 C   0  0  0  0  0  0
   -5.1596   46.6467   23.6644 C   0  0  0  0  0  0
   -3.8185   47.0048   23.5361 C   0  0  0  0  0  0
   -3.2999   48.1119   24.2156 C   0  0  0  0  0  0
   -1.8088   48.4467   24.1230 C   0  0  0  0  0  0
   -1.4610   49.8252   24.5487 N   0  0  0  0  0  0
   -1.6685   51.0236   23.2246 S   0  0  0  0  0  0
   -1.7880   50.2960   21.9555 O   0  0  0  0  0  0
   -2.6819   52.0163   23.5967 O   0  0  0  0  0  0
   -0.1038   51.8861   23.1192 C   0  0  0  0  0  0
    0.0240   53.1587   23.6704 C   0  0  0  0  0  0
    1.1946   53.8870   23.4626 C   0  0  0  0  0  0
    2.2480   53.3297   22.7400 C   0  0  0  0  0  0
    2.1434   52.0320   22.2416 C   0  0  0  0  0  0
    0.9645   51.3103   22.4291 C   0  0  0  0  0  0
    3.5084   54.1450   22.5267 C   0  0  0  0  0  0
    6.1553   54.9829   25.3607 H   0  0  0  0  0  0
    4.4804   55.3800   25.7061 H   0  0  0  0  0  0
    5.0182   53.6883   25.5951 H   0  0  0  0  0  0
    6.4164   53.9442   27.6396 H   0  0  0  0  0  0
    6.0792   55.6448   27.7066 H   0  0  0  0  0  0
    3.5498   53.3752   26.9738 H   0  0  0  0  0  0
    2.8409   53.5635   30.6280 H   0  0  0  0  0  0
    0.8492   52.5235   31.5914 H   0  0  0  0  0  0
   -0.7473   51.3220   30.1778 H   0  0  0  0  0  0
    2.5338   52.4966   25.8811 H   0  0  0  0  0  0
    1.0307   51.7124   25.7300 H   0  0  0  0  0  0
    1.0943   53.4919   25.9813 H   0  0  0  0  0  0
   -0.5308   49.9079   27.8410 H   0  0  0  0  0  0
   -4.0345   50.0459   26.8415 H   0  0  0  0  0  0
   -4.0229   51.0021   25.3578 H   0  0  0  0  0  0
   -6.1662   49.0781   25.7901 H   0  0  0  0  0  0
   -7.0410   47.1224   24.5840 H   0  0  0  0  0  0
   -5.5456   45.7902   23.1328 H   0  0  0  0  0  0
   -3.1726   46.4129   22.9066 H   0  0  0  0  0  0
   -1.3697   48.2301   23.1503 H   0  0  0  0  0  0
   -1.3340   47.7760   24.8437 H   0  0  0  0  0  0
   -0.7922   53.6148   24.2165 H   0  0  0  0  0  0
    1.2753   54.8880   23.8582 H   0  0  0  0  0  0
    2.9572   51.5886   21.6895 H   0  0  0  0  0  0
    0.8744   50.3198   22.0124 H   0  0  0  0  0  0
    3.7313   54.7324   23.4105 H   0  0  0  0  0  0
    4.3697   53.5082   22.3356 H   0  0  0  0  0  0
    3.3867   54.8424   21.6983 H   0  0  0  0  0  0
  1  2  1  0  0  0
  1 37  1  0  0  0
  1 38  1  0  0  0
  1 39  1  0  0  0
  2  3  1  0  0  0
  2 40  1  0  0  0
  2 41  1  0  0  0
  3  4  2  0  0  0
  3  5  1  0  0  0
  5  6  1  0  0  0
  5 42  1  0  0  0
  6 11  2  0  0  0
  6  7  1  0  0  0
  7  8  2  0  0  0
  7 43  1  0  0  0
  8  9  1  0  0  0
  8 44  1  0  0  0
  9 10  2  0  0  0
  9 45  1  0  0  0
 10 11  1  0  0  0
 10 13  1  0  0  0
 11 12  1  0  0  0
 12 46  1  0  0  0
 12 47  1  0  0  0
 12 48  1  0  0  0
 13 14  1  0  0  0
 13 49  1  0  0  0
 14 15  2  0  0  0
 14 16  1  0  0  0
 16 17  1  0  0  0
 16 26  1  0  0  0
 16 18  1  0  0  0
 18 19  1  0  0  0
 18 50  1  0  0  0
 18 51  1  0  0  0
 19 24  2  0  0  0
 19 20  1  0  0  0
 20 21  2  0  0  0
 20 52  1  0  0  0
 21 22  1  0  0  0
 21 53  1  0  0  0
 22 23  2  0  0  0
 22 54  1  0  0  0
 23 24  1  0  0  0
 23 55  1  0  0  0
 24 25  1  0  0  0
 25 26  1  0  0  0
 25 56  1  0  0  0
 25 57  1  0  0  0
 26 27  1  0  0  0
 27 28  2  0  0  0
 27 29  2  0  0  0
 27 30  1  0  0  0
 30 35  2  0  0  0
 30 31  1  0  0  0
 31 32  2  0  0  0
 31 58  1  0  0  0
 32 33  1  0  0  0
 32 59  1  0  0  0
 33 34  2  0  0  0
 33 36  1  0  0  0
 34 35  1  0  0  0
 34 60  1  0  0  0
 35 61  1  0  0  0
 36 62  1  0  0  0
 36 63  1  0  0  0
 36 64  1  0  0  0
M  END
> <i_i_glide_confnum>
43

> <i_i_glide_lignum>
686

> <i_i_glide_posenum>
215

> <i_i_glide_rotatable_bonds>
8

> <i_m_Source_File_Index>
3265

> <b_m_subgroup_collapsed>
0

> <r_i_docking_score>
-4.6921

> <r_i_glide_ecoul>
-5.67637

> <r_i_glide_eff_state_penalty>
0

> <r_i_glide_einternal>
11.4385

> <r_i_glide_emodel>
-52.8182

> <r_i_glide_energy>
-44.1589

> <r_i_glide_erotb>
0.589684

> <r_i_glide_esite>
-0.182609

> <r_i_glide_evdw>
-38.4825

> <r_i_glide_gscore>
-4.6921

> <r_i_glide_hbond>
-0.154357

> <r_i_glide_ligand_efficiency>
-0.13406

> <r_i_glide_ligand_efficiency_ln>
-1.03002

> <r_i_glide_ligand_efficiency_sa>
-0.438519

> <r_i_glide_lipo>
-1.97099

> <r_i_glide_metal>
0

> <r_i_glide_rewards>
-0.198236

> <s_i_glide_gridfile>
wee1_glide-grid

> <s_m_Source_File>
wee1_decoys_glide_SP.sdf

> <s_m_Source_Path>
/Users/zhangxujun/Desktop

> <s_m_entry_id>
3540

> <s_m_entry_name>
wee1_decoys_glide_SP.3265

> <s_m_subgroup_title>
wee1_decoys_glide_SP

> <s_m_subgroupid>
wee1_decoys_glide_SP


$$$$
