@<TRIPOS>MOLECULE
ZINC09482072_72
58   61    1
SMALL
USER_CHARGES


@<TRIPOS>ATOM
      1 C1         -6.3332   47.3063   29.0597 C.3       1 UNK         0.0000 
      2 C2         -5.3783   48.2545   29.8036 C.3       1 UNK         0.0000 
      3 N3         -4.3457   48.8267   28.9411 N.am      1 UNK         0.0000 
      4 C4         -4.5269   49.8159   28.0519 C.2       1 UNK         0.0000 
      5 O5         -5.6160   50.3742   27.8850 O.2       1 UNK         0.0000 
      6 N6         -3.3763   50.0967   27.3968 N.am      1 UNK         0.0000 
      7 C7         -3.1516   51.1313   26.5463 C.2       1 UNK         0.0000 
      8 O8         -4.0113   51.9473   26.1940 O.2       1 UNK         0.0000 
      9 C9         -1.6987   51.3191   26.0535 C.3       1 UNK         0.0000 
     10 H10        -1.2774   50.3203   25.9382 H         1 UNK         0.0000 
     11 C11        -1.6636   51.9920   24.6544 C.3       1 UNK         0.0000 
     12 S12        -0.7866   52.0965   27.4425 S.3       1 UNK         0.0000 
     13 C13         0.8448   52.6992   26.8643 C.ar      1 UNK         0.0000 
     14 N14         1.1046   52.6518   25.6062 N.2       1 UNK         0.0000 
     15 C15         2.2509   53.2287   25.1651 C.ar      1 UNK         0.0000 
     16 C16         3.2303   53.7856   25.9760 C.ar      1 UNK         0.0000 
     17 C17         4.3263   54.2821   25.2391 C.2       1 UNK         0.0000 
     18 C18         4.1434   54.0975   23.8544 C.2       1 UNK         0.0000 
     19 S19         2.6102   53.3673   23.4812 S.3       1 UNK         0.0000 
     20 C20         5.1513   54.4709   22.7736 C.3       1 UNK         0.0000 
     21 C21         6.5115   54.7897   23.4463 C.3       1 UNK         0.0000 
     22 H22         7.0963   55.3668   22.7305 H         1 UNK         0.0000 
     23 C23         6.3575   55.6712   24.7066 C.3       1 UNK         0.0000 
     24 C24         5.5633   54.9668   25.8300 C.3       1 UNK         0.0000 
     25 C25         7.2921   53.5064   23.7418 C.3       1 UNK         0.0000 
     26 C26         3.0447   53.7473   27.4264 C.ar      1 UNK         0.0000 
     27 O27         3.8801   54.1134   28.2627 O.2       1 UNK         0.0000 
     28 N28         1.7792   53.2548   27.7626 N.pl3     1 UNK         0.0000 
     29 C29         1.3879   53.4517   29.1148 C.ar      1 UNK         0.0000 
     30 C30         1.1151   52.3507   29.9429 C.ar      1 UNK         0.0000 
     31 C31         0.5654   52.5421   31.2092 C.ar      1 UNK         0.0000 
     32 C32         0.3044   53.8281   31.6711 C.ar      1 UNK         0.0000 
     33 C33         0.6413   54.9268   30.8817 C.ar      1 UNK         0.0000 
     34 C34         1.1665   54.7489   29.6089 C.ar      1 UNK         0.0000 
     35 F35         1.4340   55.8436   28.8563 F         1 UNK         0.0000 
     36 H36        -7.0716   46.8878   29.7437 H         1 UNK         0.0000 
     37 H37        -5.7925   46.4766   28.6050 H         1 UNK         0.0000 
     38 H38        -6.8801   47.8304   28.2738 H         1 UNK         0.0000 
     39 H39        -5.9431   49.0527   30.2902 H         1 UNK         0.0000 
     40 H40        -4.8780   47.7103   30.6051 H         1 UNK         0.0000 
     41 H41        -3.3981   48.4960   29.1010 H         1 UNK         0.0000 
     42 H42        -2.5824   49.5122   27.6486 H         1 UNK         0.0000 
     43 H43        -2.4352   51.5970   23.9932 H         1 UNK         0.0000 
     44 H44        -1.8147   53.0693   24.7260 H         1 UNK         0.0000 
     45 H45        -0.7240   51.8124   24.1361 H         1 UNK         0.0000 
     46 H46         5.2688   53.6324   22.0871 H         1 UNK         0.0000 
     47 H47         4.8164   55.2862   22.1360 H         1 UNK         0.0000 
     48 H48         7.3481   55.9033   25.1013 H         1 UNK         0.0000 
     49 H49         5.9037   56.6313   24.4817 H         1 UNK         0.0000 
     50 H50         5.2809   55.6956   26.5897 H         1 UNK         0.0000 
     51 H51         6.1873   54.2334   26.3429 H         1 UNK         0.0000 
     52 H52         6.8314   52.9793   24.5696 H         1 UNK         0.0000 
     53 H53         7.3265   52.8456   22.8817 H         1 UNK         0.0000 
     54 H54         8.3044   53.6967   24.0515 H         1 UNK         0.0000 
     55 H55         1.2712   51.3428   29.5796 H         1 UNK         0.0000 
     56 H56         0.3082   51.6970   31.8309 H         1 UNK         0.0000 
     57 H57        -0.1216   53.9649   32.6553 H         1 UNK         0.0000 
     58 H58         0.4935   55.9275   31.2472 H         1 UNK         0.0000 
@<TRIPOS>BOND
     1    1    2 1    
     2    1   36 1    
     3    1   37 1    
     4    1   38 1    
     5    2    3 1    
     6    2   39 1    
     7    2   40 1    
     8    3    4 am   BACKBONE|DICT|INTERRES
     9    3   41 1    
    10    4    5 2    
    11    4    6 am   BACKBONE|DICT|INTERRES
    12    6    7 am   BACKBONE|DICT|INTERRES
    13    6   42 1    
    14    7    8 2    
    15    7    9 1    
    16    9   10 1    
    17    9   11 1    
    18    9   12 1    
    19   11   43 1    
    20   11   44 1    
    21   11   45 1    
    22   12   13 1    
    23   13   28 ar   
    24   13   14 ar   
    25   14   15 ar   
    26   15   19 1    
    27   15   16 ar   
    28   16   17 1    
    29   16   26 ar   
    30   17   24 1    
    31   17   18 2    
    32   18   19 1    
    33   18   20 1    
    34   20   21 1    
    35   20   46 1    
    36   20   47 1    
    37   21   22 1    
    38   21   23 1    
    39   21   25 1    
    40   23   24 1    
    41   23   48 1    
    42   23   49 1    
    43   24   50 1    
    44   24   51 1    
    45   25   52 1    
    46   25   53 1    
    47   25   54 1    
    48   26   27 2    
    49   26   28 ar   
    50   28   29 1    
    51   29   34 ar   
    52   29   30 ar   
    53   30   31 ar   
    54   30   55 1    
    55   31   32 ar   
    56   31   56 1    
    57   32   33 ar   
    58   32   57 1    
    59   33   34 ar   
    60   33   58 1    
    61   34   35 1    
@<TRIPOS>SUBSTRUCTURE
     1 UNK         1 GROUP             0       ****    0 ROOT    
