ZINC62626121_5923
                    3D
 Schrodinger Suite 2024-2.
 49 52  0  0  1  0            999 V2000
    2.5822   52.0966   31.5204 C   0  0  0  0  0  0
    1.5032   52.8967   31.1683 C   0  0  0  0  0  0
    1.8703   53.5568   30.0113 C   0  0  0  0  0  0
    3.0815   53.0802   29.5445 N   0  0  0  0  0  0
    3.5187   52.1910   30.5037 C   0  0  0  0  0  0
    3.7694   53.4256   28.3493 C   0  0  0  0  0  0
    5.1699   53.4839   28.3829 C   0  0  0  0  0  0
    5.9067   53.8367   27.2589 C   0  0  0  0  0  0
    5.2559   54.1481   26.0666 C   0  0  0  0  0  0
    3.8586   54.0943   26.0295 C   0  0  0  0  0  0
    3.0937   53.7149   27.1408 C   0  0  0  0  0  0
    1.7345   53.7366   26.9854 N   0  5  0  0  0  0
    0.8562   52.4373   27.0460 S   0  0  0  0  0  0
    1.5078   51.2872   27.6809 O   0  0  0  0  0  0
   -0.5311   52.7176   27.4276 O   0  0  0  0  0  0
    0.7523   52.0426   25.2877 C   0  0  0  0  0  0
    0.7600   53.0629   24.3288 C   0  0  0  0  0  0
    0.7047   52.7576   22.9799 C   0  0  0  0  0  0
    0.6120   51.4293   22.5746 C   0  0  0  0  0  0
    0.5708   50.4015   23.5204 C   0  0  0  0  0  0
    0.6304   50.7106   24.8803 C   0  0  0  0  0  0
    0.4950   51.0921   20.8257 S   0  0  0  0  0  0
    0.8150   49.6752   20.6247 O   0  0  0  0  0  0
   -0.7929   51.6501   20.3971 O   0  0  0  0  0  0
    1.7537   52.0606   20.0637 N   0  0  0  0  0  0
    3.1691   51.7112   20.2787 C   0  0  0  0  0  0
    4.1766   52.8171   20.0736 C   0  0  0  0  0  0
    3.8628   52.3352   21.4698 C   0  0  0  0  0  0
    6.0751   54.5275   24.8313 C   0  0  0  0  0  0
    7.1040   53.6967   24.6686 F   0  0  0  0  0  0
    5.3469   54.4963   23.7140 F   0  0  0  0  0  0
    6.5561   55.7588   24.9929 F   0  0  0  0  0  0
    2.6507   51.4841   32.4095 H   0  0  0  0  0  0
    0.5846   53.0209   31.7280 H   0  0  0  0  0  0
    1.3255   54.2945   29.4432 H   0  0  0  0  0  0
    4.4684   51.6968   30.3790 H   0  0  0  0  0  0
    5.7176   53.2582   29.2812 H   0  0  0  0  0  0
    6.9828   53.8656   27.3189 H   0  0  0  0  0  0
    3.3484   54.3452   25.1113 H   0  0  0  0  0  0
    0.8202   54.1004   24.6187 H   0  0  0  0  0  0
    0.7369   53.5485   22.2498 H   0  0  0  0  0  0
    0.4905   49.3706   23.2105 H   0  0  0  0  0  0
    0.5993   49.9186   25.6146 H   0  0  0  0  0  0
    1.5523   53.0595   19.9656 H   0  0  0  0  0  0
    3.4515   50.7039   19.9654 H   0  0  0  0  0  0
    5.1259   52.5516   19.6071 H   0  0  0  0  0  0
    3.8183   53.7965   19.7495 H   0  0  0  0  0  0
    3.3089   52.9965   22.1355 H   0  0  0  0  0  0
    4.6029   51.7443   22.0102 H   0  0  0  0  0  0
  1  5  2  0  0  0
  1  2  1  0  0  0
  1 33  1  0  0  0
  2  3  2  0  0  0
  2 34  1  0  0  0
  3  4  1  0  0  0
  3 35  1  0  0  0
  4  5  1  0  0  0
  4  6  1  0  0  0
  5 36  1  0  0  0
  6 11  2  0  0  0
  6  7  1  0  0  0
  7  8  2  0  0  0
  7 37  1  0  0  0
  8  9  1  0  0  0
  8 38  1  0  0  0
  9 10  2  0  0  0
  9 29  1  0  0  0
 10 11  1  0  0  0
 10 39  1  0  0  0
 11 12  1  0  0  0
 12 13  1  0  0  0
 13 14  2  0  0  0
 13 15  2  0  0  0
 13 16  1  0  0  0
 16 21  2  0  0  0
 16 17  1  0  0  0
 17 18  2  0  0  0
 17 40  1  0  0  0
 18 19  1  0  0  0
 18 41  1  0  0  0
 19 20  2  0  0  0
 19 22  1  0  0  0
 20 21  1  0  0  0
 20 42  1  0  0  0
 21 43  1  0  0  0
 22 23  2  0  0  0
 22 24  2  0  0  0
 22 25  1  0  0  0
 25 26  1  0  0  0
 25 44  1  0  0  0
 26 28  1  0  0  0
 26 27  1  0  0  0
 26 45  1  0  0  0
 27 28  1  0  0  0
 27 46  1  0  0  0
 27 47  1  0  0  0
 28 48  1  0  0  0
 28 49  1  0  0  0
 29 30  1  0  0  0
 29 31  1  0  0  0
 29 32  1  0  0  0
M  CHG  1  12  -1
M  END
> <i_i_glide_confnum>
162

> <i_i_glide_lignum>
5924

> <i_i_glide_posenum>
323

> <i_i_glide_rotatable_bonds>
8

> <i_m_Source_File_Index>
4681

> <b_m_subgroup_collapsed>
0

> <r_i_docking_score>
-5.67174

> <r_i_glide_ecoul>
-6.5914

> <r_i_glide_eff_state_penalty>
0

> <r_i_glide_einternal>
14.0352

> <r_i_glide_emodel>
-57.6082

> <r_i_glide_energy>
-49.2821

> <r_i_glide_erotb>
0.605614

> <r_i_glide_esite>
-0.0421283

> <r_i_glide_evdw>
-42.6907

> <r_i_glide_gscore>
-5.67174

> <r_i_glide_hbond>
-0.202294

> <r_i_glide_ligand_efficiency>
-0.177242

> <r_i_glide_ligand_efficiency_ln>
-1.27006

> <r_i_glide_ligand_efficiency_sa>
-0.562707

> <r_i_glide_lipo>
-2.60521

> <r_i_glide_metal>
0

> <r_i_glide_rewards>
-0.30447

> <s_i_glide_gridfile>
wee1_glide-grid

> <s_m_Source_File>
wee1_decoys_glide_SP.sdf

> <s_m_Source_Path>
/Users/zhangxujun/Desktop

> <s_m_entry_id>
4956

> <s_m_entry_name>
wee1_decoys_glide_SP.4681

> <s_m_subgroup_title>
wee1_decoys_glide_SP

> <s_m_subgroupid>
wee1_decoys_glide_SP


$$$$
