@<TRIPOS>MOLECULE
ZINC46846201_5315
65   68    1
SMALL
USER_CHARGES


@<TRIPOS>ATOM
      1 C1          1.6897   55.1059   28.5838 C.3       1 UNK         0.0000 
      2 C2          2.2668   53.7639   28.0946 C.3       1 UNK         0.0000 
      3 C3          1.4392   52.5709   28.6226 C.3       1 UNK         0.0000 
      4 C4          2.4686   53.7635   26.5748 C.ar      1 UNK         0.0000 
      5 C5          3.6244   54.3372   26.0400 C.ar      1 UNK         0.0000 
      6 C6          3.8471   54.3244   24.6646 C.ar      1 UNK         0.0000 
      7 C7          2.9436   53.6978   23.7862 C.ar      1 UNK         0.0000 
      8 C8          1.7400   53.2301   24.3302 C.ar      1 UNK         0.0000 
      9 C9          1.5104   53.2374   25.7032 C.ar      1 UNK         0.0000 
     10 C10         3.2180   53.4936   22.2623 C.3       1 UNK         0.0000 
     11 H11         2.3534   53.9474   21.7748 H         1 UNK         0.0000 
     12 C12         3.2724   51.9911   21.7782 C.3       1 UNK         0.0000 
     13 N13         2.3043   51.0451   22.3288 N.am      1 UNK         0.0000 
     14 C14         1.0330   50.8569   21.9316 C.2       1 UNK         0.0000 
     15 O15         0.5364   51.4298   20.9625 O.2       1 UNK         0.0000 
     16 C16         0.2204   49.9206   22.8014 C.ar      1 UNK         0.0000 
     17 C17        -1.0015   49.4097   22.3468 C.ar      1 UNK         0.0000 
     18 C18        -1.7568   48.5561   23.1539 C.ar      1 UNK         0.0000 
     19 C19        -1.2998   48.2050   24.4293 C.ar      1 UNK         0.0000 
     20 C20        -0.0965   48.7276   24.8930 C.ar      1 UNK         0.0000 
     21 C21         0.6567   49.5689   24.0864 C.ar      1 UNK         0.0000 
     22 N22        -1.9841   47.3445   25.2992 N.pl3     1 UNK         0.0000 
     23 S23        -3.4881   46.4968   24.9367 S.o2      1 UNK         0.0000 
     24 O24        -3.4153   46.0170   23.5536 O.2       1 UNK         0.0000 
     25 O25        -3.6963   45.5402   26.0277 O.2       1 UNK         0.0000 
     26 C26        -4.7642   47.8660   25.0729 C.3       1 UNK         0.0000 
     27 N27         4.3920   54.2628   21.7582 N.3       1 UNK         0.0000 
     28 C28         5.7079   53.7337   22.1660 C.3       1 UNK         0.0000 
     29 C29         6.7863   54.8466   21.9846 C.3       1 UNK         0.0000 
     30 C30         6.7324   55.3133   20.5418 C.2       1 UNK         0.0000 
     31 C31         5.5979   55.1507   19.7563 C.2       1 UNK         0.0000 
     32 C32         5.7536   55.7044   18.4793 C.2       1 UNK         0.0000 
     33 C33         7.0076   56.2652   18.2863 C.2       1 UNK         0.0000 
     34 S34         8.0187   56.0967   19.6824 S.3       1 UNK         0.0000 
     35 C35         4.3968   54.3738   20.2772 C.3       1 UNK         0.0000 
     36 H36         2.3236   55.9439   28.2972 H         1 UNK         0.0000 
     37 H37         0.7029   55.2878   28.1610 H         1 UNK         0.0000 
     38 H38         1.5945   55.1281   29.6699 H         1 UNK         0.0000 
     39 H39         3.2579   53.6494   28.5358 H         1 UNK         0.0000 
     40 H40         1.8212   51.6220   28.2411 H         1 UNK         0.0000 
     41 H41         1.4760   52.5187   29.7115 H         1 UNK         0.0000 
     42 H42         0.3886   52.6462   28.3422 H         1 UNK         0.0000 
     43 H43         4.3534   54.7976   26.6904 H         1 UNK         0.0000 
     44 H44         4.7392   54.8112   24.3105 H         1 UNK         0.0000 
     45 H45         0.9660   52.8349   23.6937 H         1 UNK         0.0000 
     46 H46         0.5792   52.8374   26.0769 H         1 UNK         0.0000 
     47 H47         3.2413   51.9239   20.6912 H         1 UNK         0.0000 
     48 H48         4.2331   51.5603   22.0546 H         1 UNK         0.0000 
     49 H49         2.6490   50.4369   23.0557 H         1 UNK         0.0000 
     50 H50        -1.3747   49.6670   21.3648 H         1 UNK         0.0000 
     51 H51        -2.6912   48.1867   22.7647 H         1 UNK         0.0000 
     52 H52         0.2650   48.4804   25.8822 H         1 UNK         0.0000 
     53 H53         1.5846   49.9439   24.4821 H         1 UNK         0.0000 
     54 H54        -1.6746   47.3219   26.2640 H         1 UNK         0.0000 
     55 H55        -5.7495   47.4433   24.8844 H         1 UNK         0.0000 
     56 H56        -4.7174   48.2788   26.0801 H         1 UNK         0.0000 
     57 H57        -4.5341   48.6375   24.3398 H         1 UNK         0.0000 
     58 H58         5.9044   52.8108   21.6201 H         1 UNK         0.0000 
     59 H59         5.7344   53.4338   23.2108 H         1 UNK         0.0000 
     60 H60         7.7836   54.4928   22.2381 H         1 UNK         0.0000 
     61 H61         6.6113   55.6571   22.6933 H         1 UNK         0.0000 
     62 H62         4.9853   55.6778   17.7207 H         1 UNK         0.0000 
     63 H63         7.3850   56.7466   17.3956 H         1 UNK         0.0000 
     64 H64         3.5045   54.8967   19.9653 H         1 UNK         0.0000 
     65 H65         4.4090   53.4045   19.7826 H         1 UNK         0.0000 
@<TRIPOS>BOND
     1    1    2 1    
     2    1   36 1    
     3    1   37 1    
     4    1   38 1    
     5    2    3 1    
     6    2    4 1    
     7    2   39 1    
     8    3   40 1    
     9    3   41 1    
    10    3   42 1    
    11    4    9 ar   
    12    4    5 ar   
    13    5    6 ar   
    14    5   43 1    
    15    6    7 ar   
    16    6   44 1    
    17    7    8 ar   
    18    7   10 1    
    19    8    9 ar   
    20    8   45 1    
    21    9   46 1    
    22   10   11 1    
    23   10   12 1    
    24   10   27 1    
    25   12   13 1    
    26   12   47 1    
    27   12   48 1    
    28   13   14 am   BACKBONE|DICT|INTERRES
    29   13   49 1    
    30   14   15 2    
    31   14   16 1    
    32   16   21 ar   
    33   16   17 ar   
    34   17   18 ar   
    35   17   50 1    
    36   18   19 ar   
    37   18   51 1    
    38   19   20 ar   
    39   19   22 1    
    40   20   21 ar   
    41   20   52 1    
    42   21   53 1    
    43   22   23 1    
    44   22   54 1    
    45   23   24 2    
    46   23   25 2    
    47   23   26 1    
    48   26   55 1    
    49   26   56 1    
    50   26   57 1    
    51   27   35 1    
    52   27   28 1    
    53   28   29 1    
    54   28   58 1    
    55   28   59 1    
    56   29   30 1    
    57   29   60 1    
    58   29   61 1    
    59   30   34 1    
    60   30   31 2    
    61   31   32 1    
    62   31   35 1    
    63   32   33 2    
    64   32   62 1    
    65   33   34 1    
    66   33   63 1    
    67   35   64 1    
    68   35   65 1    
@<TRIPOS>SUBSTRUCTURE
     1 UNK         1 GROUP             0       ****    0 ROOT    
