@<TRIPOS>MOLECULE
ZINC36050773_5958
55   58    1
SMALL
USER_CHARGES


@<TRIPOS>ATOM
      1 C1          5.8063   54.3672   26.0725 C.3       1 UNK         0.0000 
      2 C2          4.3497   53.9400   26.2527 C.2       1 UNK         0.0000 
      3 C3          3.7960   53.3329   27.3497 C.2       1 UNK         0.0000 
      4 C4          2.3003   52.8768   27.3291 C.3       1 UNK         0.0000 
      5 H5          2.3038   51.7995   27.4946 H         1 UNK         0.0000 
      6 N6          1.7386   53.0276   25.9561 N.pl3     1 UNK         0.0000 
      7 C7          0.5395   52.4971   25.5088 C.2       1 UNK         0.0000 
      8 C8          0.2570   52.8890   24.2515 C.2       1 UNK         0.0000 
      9 S9          1.5055   53.8897   23.5209 S.3       1 UNK         0.0000 
     10 C10         2.4777   53.7026   24.9880 C.2       1 UNK         0.0000 
     11 N11         3.6575   54.1709   25.0991 N.2       1 UNK         0.0000 
     12 C12        -0.3510   51.6661   26.2999 C.2       1 UNK         0.0000 
     13 C13        -1.6927   51.7349   26.3317 C.2       1 UNK         0.0000 
     14 O14        -2.4957   52.5089   25.6889 O.co2     1 UNK         0.0000 
     15 N15        -2.3918   50.8924   27.1626 N.pl3     1 UNK         0.0000 
     16 C16        -3.7168   51.0419   27.7487 C.3       1 UNK         0.0000 
     17 C17        -3.7812   50.4109   29.1506 C.3       1 UNK         0.0000 
     18 C18        -5.0203   50.7425   29.9732 C.ar      1 UNK         0.0000 
     19 C19        -5.0136   50.4946   31.3458 C.ar      1 UNK         0.0000 
     20 C20        -6.1444   50.8217   32.0968 C.ar      1 UNK         0.0000 
     21 C21        -7.2525   51.3837   31.4611 C.ar      1 UNK         0.0000 
     22 C22        -7.1881   51.5998   30.0812 C.ar      1 UNK         0.0000 
     23 N23        -6.0939   51.2904   29.3377 N.ar      1 UNK         0.0000 
     24 C24         1.4545   53.4831   28.4743 C.ar      1 UNK         0.0000 
     25 C25         0.6882   52.6340   29.2882 C.ar      1 UNK         0.0000 
     26 C26         0.1110   53.1061   30.4656 C.ar      1 UNK         0.0000 
     27 C27         0.3063   54.4291   30.8560 C.ar      1 UNK         0.0000 
     28 C28         1.0647   55.2855   30.0575 C.ar      1 UNK         0.0000 
     29 C29         1.5963   54.8307   28.8522 C.ar      1 UNK         0.0000 
     30 F30         2.3043   55.6947   28.0964 F         1 UNK         0.0000 
     31 C31         4.5369   53.1225   28.6123 C.2       1 UNK         0.0000 
     32 O32         5.5902   53.7008   28.8806 O.2       1 UNK         0.0000 
     33 O33         3.9072   52.2621   29.4598 O.3       1 UNK         0.0000 
     34 C34         4.3043   52.0968   30.8084 C.3       1 UNK         0.0000 
     35 H35         6.4893   53.6667   26.5548 H         1 UNK         0.0000 
     36 H36         6.1064   54.4037   25.0238 H         1 UNK         0.0000 
     37 H37         5.9611   55.3564   26.5071 H         1 UNK         0.0000 
     38 H38        -0.6336   52.6318   23.6942 H         1 UNK         0.0000 
     39 H39         0.1264   50.9201   26.9197 H         1 UNK         0.0000 
     40 H40        -1.9863   49.9868   27.3726 H         1 UNK         0.0000 
     41 H41        -3.9608   52.0972   27.8121 H         1 UNK         0.0000 
     42 H42        -4.4353   50.5602   27.0834 H         1 UNK         0.0000 
     43 H43        -3.6985   49.3267   29.0656 H         1 UNK         0.0000 
     44 H44        -2.9073   50.7262   29.7234 H         1 UNK         0.0000 
     45 H45        -4.1409   50.0731   31.8293 H         1 UNK         0.0000 
     46 H46        -6.1528   50.6460   33.1641 H         1 UNK         0.0000 
     47 H47        -8.1407   51.6410   32.0215 H         1 UNK         0.0000 
     48 H48        -8.0252   52.0287   29.5497 H         1 UNK         0.0000 
     49 H49         0.5737   51.5885   29.0380 H         1 UNK         0.0000 
     50 H50        -0.4683   52.4399   31.0936 H         1 UNK         0.0000 
     51 H51        -0.1122   54.7807   31.7869 H         1 UNK         0.0000 
     52 H52         1.2129   56.3144   30.3544 H         1 UNK         0.0000 
     53 H53         3.5965   51.4475   31.3216 H         1 UNK         0.0000 
     54 H54         5.2893   51.6427   30.8796 H         1 UNK         0.0000 
     55 H55         4.3043   53.0530   31.3333 H         1 UNK         0.0000 
@<TRIPOS>BOND
     1    1    2 1    
     2    1   35 1    
     3    1   36 1    
     4    1   37 1    
     5    2   11 1    
     6    2    3 2    
     7    3    4 1    
     8    3   31 1    
     9    4    5 1    
    10    4    6 1    
    11    4   24 1    
    12    6   10 1    
    13    6    7 1    
    14    7    8 2    
    15    7   12 1    
    16    8    9 1    
    17    8   38 1    
    18    9   10 1    
    19   10   11 2    
    20   12   13 2    
    21   12   39 1    
    22   13   14 1    
    23   13   15 1    
    24   15   16 1    
    25   15   40 1    
    26   16   17 1    
    27   16   41 1    
    28   16   42 1    
    29   17   18 1    
    30   17   43 1    
    31   17   44 1    
    32   18   23 ar   
    33   18   19 ar   
    34   19   20 ar   
    35   19   45 1    
    36   20   21 ar   
    37   20   46 1    
    38   21   22 ar   
    39   21   47 1    
    40   22   23 ar   
    41   22   48 1    
    42   24   29 ar   
    43   24   25 ar   
    44   25   26 ar   
    45   25   49 1    
    46   26   27 ar   
    47   26   50 1    
    48   27   28 ar   
    49   27   51 1    
    50   28   29 ar   
    51   28   52 1    
    52   29   30 1    
    53   31   32 2    
    54   31   33 1    
    55   33   34 1    
    56   34   53 1    
    57   34   54 1    
    58   34   55 1    
@<TRIPOS>SUBSTRUCTURE
     1 UNK         1 GROUP             0       ****    0 ROOT    
