ZINC35300897_2877
                    3D
 Schrodinger Suite 2024-2.
 66 69  0  0  1  0            999 V2000
    5.1207   56.6328   17.6360 C   0  0  0  0  0  0
    4.2437   55.4182   17.2969 C   0  0  0  0  0  0
    4.6011   54.1009   18.0287 C   0  0  1  0  0  0
    3.8372   53.3969   17.6847 H   0  0  0  0  0  0
    5.9412   53.5113   17.5275 C   0  0  0  0  0  0
    4.4983   54.2336   19.5870 C   0  0  1  0  0  0
    3.6680   54.8964   19.8284 H   0  0  0  0  0  0
    4.1752   52.8307   20.1626 C   0  0  0  0  0  0
    5.1040   52.0897   20.4848 O   0  0  0  0  0  0
    2.8608   52.5580   20.3270 N   0  0  0  0  0  0
    2.3530   51.4888   21.0477 C   0  0  0  0  0  0
    3.0420   50.5668   21.6818 N   0  0  0  0  0  0
    2.2415   49.6964   22.3997 N   0  0  0  0  0  0
    0.9630   49.9573   22.2665 C   0  0  0  0  0  0
    0.6283   51.3386   21.2522 S   0  0  0  0  0  0
   -0.1056   49.1579   22.9301 C   0  0  0  0  0  0
    0.0427   48.8104   24.2717 C   0  0  0  0  0  0
   -0.8948   47.9903   24.8891 C   0  0  0  0  0  0
   -1.9957   47.4778   24.1868 C   0  0  0  0  0  0
   -2.1405   47.8577   22.8416 C   0  0  0  0  0  0
   -1.2130   48.6943   22.2198 C   0  0  0  0  0  0
   -2.9182   46.5910   24.8171 N   0  0  0  0  0  0
   -2.8458   46.3904   26.2692 C   0  0  0  0  0  0
   -4.2181   46.3434   24.1931 C   0  0  0  0  0  0
    5.7117   54.8568   20.1679 N   0  0  0  0  0  0
    6.0907   55.0407   21.4498 C   0  0  0  0  0  0
    7.1015   55.6936   21.6987 O   0  0  0  0  0  0
    5.2737   54.4966   22.3788 N   0  0  0  0  0  0
    5.3530   54.4942   23.7858 C   0  0  0  0  0  0
    6.5416   54.7627   24.4838 C   0  0  0  0  0  0
    6.5815   54.7069   25.8726 C   0  0  0  0  0  0
    5.4481   54.3875   26.6061 C   0  0  0  0  0  0
    4.2359   54.0780   25.9517 C   0  0  0  0  0  0
    4.1754   54.1189   24.5213 C   0  0  0  0  0  0
    2.9351   53.7786   23.8979 C   0  0  0  0  0  0
    1.8348   53.3855   24.6570 C   0  0  0  0  0  0
    1.9124   53.3380   26.0437 C   0  0  0  0  0  0
    3.0893   53.6974   26.6955 C   0  0  0  0  0  0
    4.9230   57.4555   16.9494 H   0  0  0  0  0  0
    4.9177   56.9982   18.6423 H   0  0  0  0  0  0
    6.1826   56.4007   17.5683 H   0  0  0  0  0  0
    4.2647   55.2514   16.2184 H   0  0  0  0  0  0
    3.2094   55.6746   17.5261 H   0  0  0  0  0  0
    6.7905   54.1514   17.7653 H   0  0  0  0  0  0
    6.1406   52.5384   17.9801 H   0  0  0  0  0  0
    5.9297   53.3645   16.4482 H   0  0  0  0  0  0
    2.1919   53.2386   19.9967 H   0  0  0  0  0  0
    0.8969   49.1547   24.8380 H   0  0  0  0  0  0
   -0.7315   47.7603   25.9301 H   0  0  0  0  0  0
   -2.9689   47.5046   22.2450 H   0  0  0  0  0  0
   -1.3377   48.9478   21.1759 H   0  0  0  0  0  0
   -3.0569   47.3243   26.7940 H   0  0  0  0  0  0
   -3.5575   45.6422   26.6193 H   0  0  0  0  0  0
   -1.8513   46.0680   26.5793 H   0  0  0  0  0  0
   -4.1040   45.9166   23.1966 H   0  0  0  0  0  0
   -4.8334   45.6641   24.7839 H   0  0  0  0  0  0
   -4.7697   47.2792   24.0878 H   0  0  0  0  0  0
    6.3441   55.2246   19.4754 H   0  0  0  0  0  0
    4.5132   53.9509   22.0117 H   0  0  0  0  0  0
    7.4633   54.9909   23.9661 H   0  0  0  0  0  0
    7.5033   54.8974   26.3934 H   0  0  0  0  0  0
    5.5005   54.3450   27.6853 H   0  0  0  0  0  0
    2.8364   53.8103   22.8240 H   0  0  0  0  0  0
    0.9117   53.1118   24.1665 H   0  0  0  0  0  0
    1.0534   53.0268   26.6216 H   0  0  0  0  0  0
    3.1427   53.6605   27.7731 H   0  0  0  0  0  0
  1  2  1  0  0  0
  1 39  1  0  0  0
  1 40  1  0  0  0
  1 41  1  0  0  0
  2  3  1  0  0  0
  2 42  1  0  0  0
  2 43  1  0  0  0
  3  4  1  0  0  0
  3  5  1  0  0  0
  3  6  1  0  0  0
  5 44  1  0  0  0
  5 45  1  0  0  0
  5 46  1  0  0  0
  6  7  1  0  0  0
  6  8  1  0  0  0
  6 25  1  0  0  0
  8  9  2  0  0  0
  8 10  1  0  0  0
 10 11  1  0  0  0
 10 47  1  0  0  0
 11 15  1  0  0  0
 11 12  2  0  0  0
 12 13  1  0  0  0
 13 14  2  0  0  0
 14 15  1  0  0  0
 14 16  1  0  0  0
 16 21  2  0  0  0
 16 17  1  0  0  0
 17 18  2  0  0  0
 17 48  1  0  0  0
 18 19  1  0  0  0
 18 49  1  0  0  0
 19 20  2  0  0  0
 19 22  1  0  0  0
 20 21  1  0  0  0
 20 50  1  0  0  0
 21 51  1  0  0  0
 22 23  1  0  0  0
 22 24  1  0  0  0
 23 52  1  0  0  0
 23 53  1  0  0  0
 23 54  1  0  0  0
 24 55  1  0  0  0
 24 56  1  0  0  0
 24 57  1  0  0  0
 25 26  1  0  0  0
 25 58  1  0  0  0
 26 27  2  0  0  0
 26 28  1  0  0  0
 28 29  1  0  0  0
 28 59  1  0  0  0
 29 34  2  0  0  0
 29 30  1  0  0  0
 30 31  2  0  0  0
 30 60  1  0  0  0
 31 32  1  0  0  0
 31 61  1  0  0  0
 32 33  2  0  0  0
 32 62  1  0  0  0
 33 38  1  0  0  0
 33 34  1  0  0  0
 34 35  1  0  0  0
 35 36  2  0  0  0
 35 63  1  0  0  0
 36 37  1  0  0  0
 36 64  1  0  0  0
 37 38  2  0  0  0
 37 65  1  0  0  0
 38 66  1  0  0  0
M  END
> <i_i_glide_confnum>
152

> <i_i_glide_lignum>
2878

> <i_i_glide_posenum>
177

> <i_i_glide_rotatable_bonds>
11

> <i_m_Source_File_Index>
4936

> <b_m_subgroup_collapsed>
0

> <r_i_docking_score>
-5.46713

> <r_i_glide_ecoul>
-6.75033

> <r_i_glide_eff_state_penalty>
0

> <r_i_glide_einternal>
15.3181

> <r_i_glide_emodel>
-66.3925

> <r_i_glide_energy>
-55.3925

> <r_i_glide_erotb>
0.647073

> <r_i_glide_esite>
-0.107939

> <r_i_glide_evdw>
-48.6422

> <r_i_glide_gscore>
-5.46713

> <r_i_glide_hbond>
-0.21886

> <r_i_glide_ligand_efficiency>
-0.151865

> <r_i_glide_ligand_efficiency_ln>
-1.19278

> <r_i_glide_ligand_efficiency_sa>
-0.501446

> <r_i_glide_lipo>
-2.6806

> <r_i_glide_metal>
0

> <r_i_glide_rewards>
0.337856

> <s_i_glide_gridfile>
wee1_glide-grid

> <s_m_Source_File>
wee1_decoys_glide_SP.sdf

> <s_m_Source_Path>
/Users/zhangxujun/Desktop

> <s_m_entry_id>
5211

> <s_m_entry_name>
wee1_decoys_glide_SP.4936

> <s_m_subgroup_title>
wee1_decoys_glide_SP

> <s_m_subgroupid>
wee1_decoys_glide_SP


$$$$
