ZINC65096623_2689
                    3D
 Schrodinger Suite 2024-2.
 54 57  0  0  1  0            999 V2000
   -0.5064   52.4925   29.9263 C   0  0  0  0  0  0
    0.0378   51.7633   28.6817 C   0  0  1  0  0  0
    0.3752   50.7945   29.0393 H   0  0  0  0  0  0
   -1.0051   51.4904   27.5517 C   0  0  0  0  0  0
   -2.1968   51.6965   27.7865 O   0  0  0  0  0  0
   -0.5497   51.0313   26.3461 N   0  0  0  0  0  0
    0.3519   49.8611   26.4823 C   0  0  0  0  0  0
    0.3500   48.9906   25.2152 C   0  0  0  0  0  0
    0.5737   49.8379   23.9686 C   0  0  0  0  0  0
   -0.5458   50.8603   23.8863 C   0  0  0  0  0  0
   -1.0491   51.4604   25.0676 C   0  0  0  0  0  0
   -2.0388   52.4564   24.9289 C   0  0  0  0  0  0
   -2.5574   52.7944   23.6820 C   0  0  0  0  0  0
   -2.0931   52.1524   22.5408 C   0  0  0  0  0  0
   -1.0835   51.2062   22.6441 C   0  0  0  0  0  0
    1.1908   52.4901   28.1485 N   0  0  0  0  0  0
    2.4162   52.5882   28.6920 C   0  0  0  0  0  0
    2.7186   52.0964   29.7821 O   0  0  0  0  0  0
    3.4310   53.3470   27.8666 C   0  0  0  0  0  0
    4.5799   53.8751   28.4694 C   0  0  0  0  0  0
    5.5612   54.4985   27.6999 C   0  0  0  0  0  0
    5.4101   54.6029   26.3176 C   0  0  0  0  0  0
    4.2719   54.0917   25.6901 C   0  0  0  0  0  0
    3.2823   53.4805   26.4753 C   0  0  0  0  0  0
    4.2493   54.1314   24.2822 N   0  0  0  0  0  0
    3.2783   53.7368   23.4281 C   0  0  0  0  0  0
    2.1123   53.4784   23.7286 O   0  0  0  0  0  0
    3.7403   53.5657   22.0761 C   0  0  0  0  0  0
    3.1621   52.8951   21.0039 C   0  0  0  0  0  0
    4.0432   53.0072   19.9276 C   0  0  0  0  0  0
    5.1044   53.7743   20.3746 C   0  0  0  0  0  0
    4.9298   54.1046   21.6807 O   0  0  0  0  0  0
   -1.2957   51.9044   30.3909 H   0  0  0  0  0  0
    0.2610   52.6203   30.6897 H   0  0  0  0  0  0
   -0.8952   53.4794   29.6816 H   0  0  0  0  0  0
    1.3381   50.1790   26.8164 H   0  0  0  0  0  0
   -0.0250   49.2352   27.2815 H   0  0  0  0  0  0
    1.1043   48.2121   25.2990 H   0  0  0  0  0  0
   -0.6002   48.4579   25.1431 H   0  0  0  0  0  0
    0.6074   49.2056   23.0805 H   0  0  0  0  0  0
    1.5347   50.3508   24.0300 H   0  0  0  0  0  0
   -2.4402   52.9790   25.7827 H   0  0  0  0  0  0
   -3.3261   53.5489   23.6061 H   0  0  0  0  0  0
   -2.4941   52.4034   21.5722 H   0  0  0  0  0  0
   -0.7088   50.7372   21.7459 H   0  0  0  0  0  0
    1.0274   52.9449   27.2636 H   0  0  0  0  0  0
    4.7274   53.7890   29.5368 H   0  0  0  0  0  0
    6.4460   54.8946   28.1764 H   0  0  0  0  0  0
    6.1941   55.0676   25.7378 H   0  0  0  0  0  0
    2.4286   53.0298   25.9976 H   0  0  0  0  0  0
    5.1258   54.3780   23.8487 H   0  0  0  0  0  0
    2.2165   52.3718   21.0092 H   0  0  0  0  0  0
    3.9210   52.5847   18.9391 H   0  0  0  0  0  0
    6.0105   54.1299   19.9055 H   0  0  0  0  0  0
  1  2  1  0  0  0
  1 33  1  0  0  0
  1 34  1  0  0  0
  1 35  1  0  0  0
  2  3  1  0  0  0
  2  4  1  0  0  0
  2 16  1  0  0  0
  4  5  2  0  0  0
  4  6  1  0  0  0
  6 11  1  0  0  0
  6  7  1  0  0  0
  7  8  1  0  0  0
  7 36  1  0  0  0
  7 37  1  0  0  0
  8  9  1  0  0  0
  8 38  1  0  0  0
  8 39  1  0  0  0
  9 10  1  0  0  0
  9 40  1  0  0  0
  9 41  1  0  0  0
 10 15  2  0  0  0
 10 11  1  0  0  0
 11 12  2  0  0  0
 12 13  1  0  0  0
 12 42  1  0  0  0
 13 14  2  0  0  0
 13 43  1  0  0  0
 14 15  1  0  0  0
 14 44  1  0  0  0
 15 45  1  0  0  0
 16 17  1  0  0  0
 16 46  1  0  0  0
 17 18  2  0  0  0
 17 19  1  0  0  0
 19 24  2  0  0  0
 19 20  1  0  0  0
 20 21  2  0  0  0
 20 47  1  0  0  0
 21 22  1  0  0  0
 21 48  1  0  0  0
 22 23  2  0  0  0
 22 49  1  0  0  0
 23 24  1  0  0  0
 23 25  1  0  0  0
 24 50  1  0  0  0
 25 26  1  0  0  0
 25 51  1  0  0  0
 26 27  2  0  0  0
 26 28  1  0  0  0
 28 32  1  0  0  0
 28 29  2  0  0  0
 29 30  1  0  0  0
 29 52  1  0  0  0
 30 31  2  0  0  0
 30 53  1  0  0  0
 31 32  1  0  0  0
 31 54  1  0  0  0
M  END
> <i_i_glide_confnum>
126

> <i_i_glide_lignum>
2690

> <i_i_glide_posenum>
174

> <i_i_glide_rotatable_bonds>
8

> <i_m_Source_File_Index>
3969

> <b_m_subgroup_collapsed>
0

> <r_i_docking_score>
-3.38823

> <r_i_glide_ecoul>
-2.73843

> <r_i_glide_eff_state_penalty>
0

> <r_i_glide_einternal>
9.79452

> <r_i_glide_emodel>
-44.7619

> <r_i_glide_energy>
-45.7872

> <r_i_glide_erotb>
0.793922

> <r_i_glide_esite>
-0.116306

> <r_i_glide_evdw>
-43.0487

> <r_i_glide_gscore>
-3.38823

> <r_i_glide_hbond>
-0.199399

> <r_i_glide_ligand_efficiency>
-0.109298

> <r_i_glide_ligand_efficiency_ln>
-0.76415

> <r_i_glide_ligand_efficiency_sa>
-0.343346

> <r_i_glide_lipo>
-1.81627

> <r_i_glide_metal>
0

> <r_i_glide_rewards>
0.513022

> <s_i_glide_gridfile>
wee1_glide-grid

> <s_m_Source_File>
wee1_decoys_glide_SP.sdf

> <s_m_Source_Path>
/Users/zhangxujun/Desktop

> <s_m_entry_id>
4244

> <s_m_entry_name>
wee1_decoys_glide_SP.3969

> <s_m_subgroup_title>
wee1_decoys_glide_SP

> <s_m_subgroupid>
wee1_decoys_glide_SP


$$$$
