@<TRIPOS>MOLECULE
ZINC33025069_3172
55   58    1
SMALL
USER_CHARGES


@<TRIPOS>ATOM
      1 C1         -2.3687   46.8363   23.0118 C.ar      1 UNK         0.0000 
      2 C2         -1.3417   47.7733   22.9017 C.ar      1 UNK         0.0000 
      3 C3         -1.1271   48.7064   23.9165 C.ar      1 UNK         0.0000 
      4 C4         -1.9619   48.7139   25.0478 C.ar      1 UNK         0.0000 
      5 C5         -2.9736   47.7516   25.1666 C.ar      1 UNK         0.0000 
      6 C6         -3.1774   46.8208   24.1472 C.ar      1 UNK         0.0000 
      7 F7         -3.7860   47.7247   26.2502 F         1 UNK         0.0000 
      8 N8         -1.8104   49.6524   26.0810 N.am      1 UNK         0.0000 
      9 C9         -1.8972   50.9871   25.9185 C.2       1 UNK         0.0000 
     10 O10        -2.1090   51.5394   24.8367 O.2       1 UNK         0.0000 
     11 C11        -1.7480   51.8490   27.1744 C.3       1 UNK         0.0000 
     12 C12        -0.3646   51.7780   27.8710 C.3       1 UNK         0.0000 
     13 C13         0.8324   52.0754   26.9441 C.3       1 UNK         0.0000 
     14 C14         2.1709   51.9196   27.6916 C.3       1 UNK         0.0000 
     15 N15         2.1507   52.8538   28.8368 N.am      1 UNK         0.0000 
     16 C16         1.0436   52.6805   29.8094 C.3       1 UNK         0.0000 
     17 C17        -0.2853   52.7828   29.0347 C.3       1 UNK         0.0000 
     18 C18         3.1194   53.7794   29.0875 C.2       1 UNK         0.0000 
     19 O19         3.1100   54.4971   30.0817 O.2       1 UNK         0.0000 
     20 C20         4.2297   53.9105   28.1880 C.2       1 UNK         0.0000 
     21 N21         5.5027   53.7289   28.4434 N.2       1 UNK         0.0000 
     22 N22         6.3327   54.0351   27.3737 N.2       1 UNK         0.0000 
     23 C23         5.6743   54.4364   26.3130 C.2       1 UNK         0.0000 
     24 S24         3.9468   54.4963   26.5718 S.3       1 UNK         0.0000 
     25 C25         6.1958   54.8678   25.0545 C.2       1 UNK         0.0000 
     26 O26         7.1039   55.6955   25.0208 O.2       1 UNK         0.0000 
     27 N27         5.6049   54.2734   23.9946 N.am      1 UNK         0.0000 
     28 C28         5.7926   54.4967   22.6195 C.ar      1 UNK         0.0000 
     29 C29         4.8632   53.8942   21.7669 C.ar      1 UNK         0.0000 
     30 C30         4.9398   54.0963   20.3914 C.ar      1 UNK         0.0000 
     31 C31         5.9487   54.8970   19.8642 C.ar      1 UNK         0.0000 
     32 C32         6.8885   55.4920   20.7027 C.ar      1 UNK         0.0000 
     33 C33         6.8127   55.2967   22.0785 C.ar      1 UNK         0.0000 
     34 Cl34        6.0387   55.1540   18.1607 Cl        1 UNK         0.0000 
     35 F35        -0.1045   49.5869   23.7918 F         1 UNK         0.0000 
     36 H36        -2.5351   46.1249   22.2167 H         1 UNK         0.0000 
     37 H37        -0.7113   47.7820   22.0252 H         1 UNK         0.0000 
     38 H38        -3.9775   46.1000   24.2362 H         1 UNK         0.0000 
     39 H39        -1.6968   49.2583   27.0238 H         1 UNK         0.0000 
     40 H40        -1.9533   52.8816   26.8818 H         1 UNK         0.0000 
     41 H41        -2.5384   51.5726   27.8734 H         1 UNK         0.0000 
     42 H42        -0.2327   50.7773   28.2886 H         1 UNK         0.0000 
     43 H43         0.8233   51.4015   26.0872 H         1 UNK         0.0000 
     44 H44         0.7451   53.0688   26.5010 H         1 UNK         0.0000 
     45 H45         2.2622   50.9053   28.0828 H         1 UNK         0.0000 
     46 H46         2.9926   52.0968   27.0040 H         1 UNK         0.0000 
     47 H47         1.1347   51.6949   30.2593 H         1 UNK         0.0000 
     48 H48         1.0456   53.4221   30.6085 H         1 UNK         0.0000 
     49 H49        -0.4447   53.8037   28.6818 H         1 UNK         0.0000 
     50 H50        -1.1099   52.6003   29.7251 H         1 UNK         0.0000 
     51 H51         4.8855   53.6037   24.2194 H         1 UNK         0.0000 
     52 H52         4.0670   53.2765   22.1586 H         1 UNK         0.0000 
     53 H53         4.2137   53.6359   19.7350 H         1 UNK         0.0000 
     54 H54         7.6803   56.0964   20.2859 H         1 UNK         0.0000 
     55 H55         7.5586   55.7680   22.6989 H         1 UNK         0.0000 
@<TRIPOS>BOND
     1    1    6 ar   
     2    1    2 ar   
     3    1   36 1    
     4    2    3 ar   
     5    2   37 1    
     6    3    4 ar   
     7    3   35 1    
     8    4    5 ar   
     9    4    8 1    
    10    5    6 ar   
    11    5    7 1    
    12    6   38 1    
    13    8    9 am   BACKBONE|DICT|INTERRES
    14    8   39 1    
    15    9   10 2    
    16    9   11 1    
    17   11   12 1    
    18   11   40 1    
    19   11   41 1    
    20   12   17 1    
    21   12   13 1    
    22   12   42 1    
    23   13   14 1    
    24   13   43 1    
    25   13   44 1    
    26   14   15 1    
    27   14   45 1    
    28   14   46 1    
    29   15   16 1    
    30   15   18 am   BACKBONE|DICT|INTERRES
    31   16   17 1    
    32   16   47 1    
    33   16   48 1    
    34   17   49 1    
    35   17   50 1    
    36   18   19 2    
    37   18   20 1    
    38   20   24 1    
    39   20   21 2    
    40   21   22 1    
    41   22   23 2    
    42   23   24 1    
    43   23   25 1    
    44   25   26 2    
    45   25   27 am   BACKBONE|DICT|INTERRES
    46   27   28 1    
    47   27   51 1    
    48   28   33 ar   
    49   28   29 ar   
    50   29   30 ar   
    51   29   52 1    
    52   30   31 ar   
    53   30   53 1    
    54   31   32 ar   
    55   31   34 1    
    56   32   33 ar   
    57   32   54 1    
    58   33   55 1    
@<TRIPOS>SUBSTRUCTURE
     1 UNK         1 GROUP             0       ****    0 ROOT    
