@<TRIPOS>MOLECULE
ZINC42015106_4731
43   45    1
SMALL
USER_CHARGES


@<TRIPOS>ATOM
      1 C1          3.2765   53.7131   23.2276 C.ar      1 UNK         0.0000 
      2 C2          3.6026   53.6978   24.5820 C.ar      1 UNK         0.0000 
      3 C3          4.8700   54.0967   25.0423 C.ar      1 UNK         0.0000 
      4 C4          5.8091   54.5121   24.0669 C.ar      1 UNK         0.0000 
      5 C5          5.4923   54.4921   22.7075 C.ar      1 UNK         0.0000 
      6 C6          4.2257   54.0976   22.2880 C.ar      1 UNK         0.0000 
      7 N7          3.9050   54.0962   20.9345 N.pl3     1 UNK         0.0000 
      8 N8          7.0845   54.9545   24.4163 N.pl3     1 UNK         0.0000 
      9 C9          5.2361   53.9649   26.5153 C.ar      1 UNK         0.0000 
     10 N10         6.4753   53.7795   26.9250 N.2       1 UNK         0.0000 
     11 N11         6.4505   53.6966   28.3033 N.2       1 UNK         0.0000 
     12 N12         5.1551   53.7977   28.7427 N.2       1 UNK         0.0000 
     13 N13         4.4134   53.9733   27.6387 N.pl3     1 UNK         0.0000 
     14 C14         2.9554   54.1187   27.7820 C.3       1 UNK         0.0000 
     15 C15         2.2607   52.7334   27.9173 C.3       1 UNK         0.0000 
     16 C16         2.5287   51.8905   29.1842 C.3       1 UNK         0.0000 
     17 C17         2.0978   52.4916   30.5369 C.3       1 UNK         0.0000 
     18 C18         0.6741   53.0850   30.5732 C.3       1 UNK         0.0000 
     19 C19         0.6009   54.6216   30.4824 C.3       1 UNK         0.0000 
     20 C20         1.1044   55.2974   29.1883 C.3       1 UNK         0.0000 
     21 C21         2.6036   55.1503   28.8821 C.3       1 UNK         0.0000 
     22 H22         2.2947   53.3933   22.9119 H         1 UNK         0.0000 
     23 H23         2.8559   53.3080   25.2486 H         1 UNK         0.0000 
     24 H24         6.2257   54.8028   21.9776 H         1 UNK         0.0000 
     25 H25         4.6146   54.3855   20.2776 H         1 UNK         0.0000 
     26 H26         2.9285   54.1602   20.6649 H         1 UNK         0.0000 
     27 H27         7.3588   54.7217   25.3580 H         1 UNK         0.0000 
     28 H28         7.7979   55.0406   23.7012 H         1 UNK         0.0000 
     29 H29         2.5928   54.5831   26.8685 H         1 UNK         0.0000 
     30 H30         1.1869   52.8533   27.7837 H         1 UNK         0.0000 
     31 H31         2.5558   52.1160   27.0696 H         1 UNK         0.0000 
     32 H32         2.0029   50.9426   29.0538 H         1 UNK         0.0000 
     33 H33         3.5851   51.6229   29.2341 H         1 UNK         0.0000 
     34 H34         2.1493   51.6966   31.2810 H         1 UNK         0.0000 
     35 H35         2.8372   53.2093   30.8819 H         1 UNK         0.0000 
     36 H36         0.0419   52.6281   29.8123 H         1 UNK         0.0000 
     37 H37         0.2120   52.7962   31.5188 H         1 UNK         0.0000 
     38 H38        -0.4464   54.8967   30.6112 H         1 UNK         0.0000 
     39 H39         1.1031   55.0663   31.3391 H         1 UNK         0.0000 
     40 H40         0.5027   54.9722   28.3380 H         1 UNK         0.0000 
     41 H41         0.8964   56.3657   29.2866 H         1 UNK         0.0000 
     42 H42         3.1652   55.0102   29.8015 H         1 UNK         0.0000 
     43 H43         2.9586   56.0996   28.5026 H         1 UNK         0.0000 
@<TRIPOS>BOND
     1    1    6 ar   
     2    1    2 ar   
     3    1   22 1    
     4    2    3 ar   
     5    2   23 1    
     6    3    4 ar   
     7    3    9 1    
     8    4    5 ar   
     9    4    8 1    
    10    5    6 ar   
    11    5   24 1    
    12    6    7 1    
    13    7   25 1    
    14    7   26 1    
    15    8   27 1    
    16    8   28 1    
    17    9   13 ar   
    18    9   10 ar   
    19   10   11 ar   
    20   11   12 ar   
    21   12   13 ar   
    22   13   14 1    
    23   14   21 1    
    24   14   15 1    
    25   14   29 1    
    26   15   16 1    
    27   15   30 1    
    28   15   31 1    
    29   16   17 1    
    30   16   32 1    
    31   16   33 1    
    32   17   18 1    
    33   17   34 1    
    34   17   35 1    
    35   18   19 1    
    36   18   36 1    
    37   18   37 1    
    38   19   20 1    
    39   19   38 1    
    40   19   39 1    
    41   20   21 1    
    42   20   40 1    
    43   20   41 1    
    44   21   42 1    
    45   21   43 1    
@<TRIPOS>SUBSTRUCTURE
     1 UNK         1 GROUP             0       ****    0 ROOT    
