ZINC15430164_3613
                    3D
 Schrodinger Suite 2024-2.
 49 50  0  0  1  0            999 V2000
    4.7005   54.5977   28.7146 C   0  0  0  0  0  0
    5.8787   54.6682   27.7172 C   0  0  0  0  0  0
    6.9953   53.6964   28.1433 C   0  0  0  0  0  0
    5.5001   54.5005   26.2355 C   0  0  0  0  0  0
    6.5003   54.6454   25.2704 C   0  0  0  0  0  0
    6.2198   54.5000   23.9187 C   0  0  0  0  0  0
    4.9088   54.2408   23.5053 C   0  0  0  0  0  0
    3.9009   54.0967   24.4620 C   0  0  0  0  0  0
    4.1925   54.2251   25.8179 C   0  0  0  0  0  0
    4.5183   54.0673   22.1661 N   0  0  0  0  0  0
    5.0442   54.4403   20.9540 C   0  0  0  0  0  0
    6.3044   55.4995   20.6850 S   0  0  0  0  0  0
    4.4735   53.8785   19.8436 N   0  0  0  0  0  0
    3.3791   52.9885   19.8500 N   0  0  0  0  0  0
    3.5122   51.7392   20.3473 C   0  0  0  0  0  0
    4.5305   51.2963   20.8820 O   0  0  0  0  0  0
    2.2756   50.8902   20.2381 C   0  0  0  0  0  0
    2.3216   49.6722   19.5564 C   0  0  0  0  0  0
    1.1960   48.8392   19.4811 C   0  0  0  0  0  0
    0.0140   49.2459   20.1151 C   0  0  0  0  0  0
   -0.0627   50.4746   20.7847 C   0  0  0  0  0  0
    1.0764   51.2936   20.8333 C   0  0  0  0  0  0
   -1.2731   50.8062   21.3684 O   0  0  0  0  0  0
   -1.3983   52.0282   22.0859 C   0  0  0  0  0  0
   -1.5239   48.1152   20.0454 Br  0  0  0  0  0  0
    1.1802   47.6350   18.8008 O   0  0  0  0  0  0
    2.2187   47.3504   17.8687 C   0  0  0  0  0  0
    3.9047   55.2964   28.4557 H   0  0  0  0  0  0
    5.0326   54.8516   29.7213 H   0  0  0  0  0  0
    4.2703   53.5956   28.7541 H   0  0  0  0  0  0
    6.2843   55.6785   27.7952 H   0  0  0  0  0  0
    7.8814   53.8031   27.5209 H   0  0  0  0  0  0
    7.3100   53.8779   29.1708 H   0  0  0  0  0  0
    6.6665   52.6591   28.0756 H   0  0  0  0  0  0
    7.5109   54.8621   25.5616 H   0  0  0  0  0  0
    7.0395   54.5749   23.2221 H   0  0  0  0  0  0
    2.8863   53.8804   24.1619 H   0  0  0  0  0  0
    3.3909   54.1006   26.5293 H   0  0  0  0  0  0
    3.6484   53.5614   22.0940 H   0  0  0  0  0  0
    5.0119   53.7900   18.9930 H   0  0  0  0  0  0
    2.7863   53.1356   19.0478 H   0  0  0  0  0  0
    3.2475   49.3792   19.0813 H   0  0  0  0  0  0
    1.0464   52.2405   21.3523 H   0  0  0  0  0  0
   -2.4075   52.1099   22.4900 H   0  0  0  0  0  0
   -0.7032   52.0745   22.9257 H   0  0  0  0  0  0
   -1.2351   52.8868   21.4335 H   0  0  0  0  0  0
    2.0268   46.3873   17.3988 H   0  0  0  0  0  0
    2.2489   48.0975   17.0742 H   0  0  0  0  0  0
    3.2017   47.2969   18.3363 H   0  0  0  0  0  0
  1  2  1  0  0  0
  1 28  1  0  0  0
  1 29  1  0  0  0
  1 30  1  0  0  0
  2  3  1  0  0  0
  2  4  1  0  0  0
  2 31  1  0  0  0
  3 32  1  0  0  0
  3 33  1  0  0  0
  3 34  1  0  0  0
  4  9  2  0  0  0
  4  5  1  0  0  0
  5  6  2  0  0  0
  5 35  1  0  0  0
  6  7  1  0  0  0
  6 36  1  0  0  0
  7  8  2  0  0  0
  7 10  1  0  0  0
  8  9  1  0  0  0
  8 37  1  0  0  0
  9 38  1  0  0  0
 10 11  1  0  0  0
 10 39  1  0  0  0
 11 12  2  0  0  0
 11 13  1  0  0  0
 13 14  1  0  0  0
 13 40  1  0  0  0
 14 15  1  0  0  0
 14 41  1  0  0  0
 15 16  2  0  0  0
 15 17  1  0  0  0
 17 22  2  0  0  0
 17 18  1  0  0  0
 18 19  2  0  0  0
 18 42  1  0  0  0
 19 20  1  0  0  0
 19 26  1  0  0  0
 20 21  2  0  0  0
 20 25  1  0  0  0
 21 22  1  0  0  0
 21 23  1  0  0  0
 22 43  1  0  0  0
 23 24  1  0  0  0
 24 44  1  0  0  0
 24 45  1  0  0  0
 24 46  1  0  0  0
 26 27  1  0  0  0
 27 47  1  0  0  0
 27 48  1  0  0  0
 27 49  1  0  0  0
M  END
> <i_i_glide_confnum>
15

> <i_i_glide_lignum>
3614

> <i_i_glide_posenum>
242

> <i_i_glide_rotatable_bonds>
9

> <i_m_Source_File_Index>
156

> <b_m_subgroup_collapsed>
0

> <r_i_docking_score>
-5.23951

> <r_i_glide_ecoul>
-3.97739

> <r_i_glide_eff_state_penalty>
0

> <r_i_glide_einternal>
8.39642

> <r_i_glide_emodel>
-54.8924

> <r_i_glide_energy>
-44.7126

> <r_i_glide_erotb>
0.588301

> <r_i_glide_esite>
-0.0448951

> <r_i_glide_evdw>
-40.7352

> <r_i_glide_gscore>
-5.23951

> <r_i_glide_hbond>
-0.0042903

> <r_i_glide_ligand_efficiency>
-0.194056

> <r_i_glide_ligand_efficiency_ln>
-1.21967

> <r_i_glide_ligand_efficiency_sa>
-0.582168

> <r_i_glide_lipo>
-2.39226

> <r_i_glide_metal>
0

> <r_i_glide_rewards>
-0.752998

> <s_i_glide_gridfile>
wee1_glide-grid

> <s_m_Source_File>
wee1_decoys_glide_SP.sdf

> <s_m_Source_Path>
/Users/zhangxujun/Desktop

> <s_m_entry_id>
431

> <s_m_entry_name>
wee1_decoys_glide_SP.156

> <s_m_subgroup_title>
wee1_decoys_glide_SP

> <s_m_subgroupid>
wee1_decoys_glide_SP


$$$$
