@<TRIPOS>MOLECULE
ZINC59564783_351
68   72    1
SMALL
USER_CHARGES


@<TRIPOS>ATOM
      1 C1         -1.9763   52.0334   26.2765 C.3       1 UNK         0.0000 
      2 C2         -0.7444   51.1175   26.2312 C.3       1 UNK         0.0000 
      3 O3          0.4376   51.8198   26.6068 O.3       1 UNK         0.0000 
      4 C4          1.1031   52.6220   25.7424 C.2       1 UNK         0.0000 
      5 O5          0.7655   52.8063   24.5688 O.2       1 UNK         0.0000 
      6 C6          2.3048   53.2406   26.3470 C.2       1 UNK         0.0000 
      7 C7          2.6446   53.2867   27.7367 C.2       1 UNK         0.0000 
      8 C8          3.8724   53.9222   27.9792 C.2       1 UNK         0.0000 
      9 S9          4.6193   54.4962   26.5447 S.3       1 UNK         0.0000 
     10 C10         3.3400   53.8176   25.5772 C.2       1 UNK         0.0000 
     11 N11         3.3744   53.8456   24.1821 N.am      1 UNK         0.0000 
     12 C12         4.4219   54.0964   23.3695 C.2       1 UNK         0.0000 
     13 O13         5.5618   54.3670   23.7472 O.2       1 UNK         0.0000 
     14 C14         4.1087   54.0098   21.8747 C.3       1 UNK         0.0000 
     15 S15         5.5015   54.4351   20.7826 S.3       1 UNK         0.0000 
     16 C16         4.9351   53.9879   19.1993 C.2       1 UNK         0.0000 
     17 N17         3.6714   53.7450   18.8896 N.pl3     1 UNK         0.0000 
     18 C18         3.5841   53.2543   17.5239 C.3       1 UNK         0.0000 
     19 C19         2.7031   51.9895   17.3947 C.3       1 UNK         0.0000 
     20 C20         1.1983   52.2890   17.5644 C.3       1 UNK         0.0000 
     21 C21         0.7206   53.3910   16.6006 C.3       1 UNK         0.0000 
     22 C22         1.5918   54.6580   16.6982 C.3       1 UNK         0.0000 
     23 C23         3.0917   54.3334   16.5263 C.3       1 UNK         0.0000 
     24 N24         4.9709   52.8967   17.2649 N.3       1 UNK         0.0000 
     25 N25         5.6815   53.7252   18.1270 N.pl3     1 UNK         0.0000 
     26 C26         7.0944   53.8865   17.9071 C.ar      1 UNK         0.0000 
     27 C27         7.8286   52.9723   17.1309 C.ar      1 UNK         0.0000 
     28 C28         9.1994   53.1398   16.9551 C.ar      1 UNK         0.0000 
     29 C29         9.8440   54.2215   17.5507 C.ar      1 UNK         0.0000 
     30 C30         9.1271   55.1429   18.3087 C.ar      1 UNK         0.0000 
     31 C31         7.7557   54.9788   18.4817 C.ar      1 UNK         0.0000 
     32 C32         4.5043   54.1421   29.3406 C.3       1 UNK         0.0000 
     33 C33         3.9043   53.1205   30.3257 C.3       1 UNK         0.0000 
     34 C34         2.3680   53.1701   30.2767 C.3       1 UNK         0.0000 
     35 C35         1.8113   52.7266   28.9046 C.3       1 UNK         0.0000 
     36 H36        -2.8815   51.4731   26.0441 H         1 UNK         0.0000 
     37 H37        -2.0978   52.4673   27.2681 H         1 UNK         0.0000 
     38 H38        -1.8958   52.8506   25.5591 H         1 UNK         0.0000 
     39 H39        -0.6314   50.6655   25.2441 H         1 UNK         0.0000 
     40 H40        -0.8819   50.2929   26.9316 H         1 UNK         0.0000 
     41 H41         2.5244   53.5107   23.7479 H         1 UNK         0.0000 
     42 H42         3.8041   52.9901   21.6333 H         1 UNK         0.0000 
     43 H43         3.2533   54.6361   21.6167 H         1 UNK         0.0000 
     44 H44         2.8642   51.5243   16.4196 H         1 UNK         0.0000 
     45 H45         3.0135   51.2413   18.1267 H         1 UNK         0.0000 
     46 H46         0.6217   51.3763   17.4069 H         1 UNK         0.0000 
     47 H47         1.0022   52.5988   18.5925 H         1 UNK         0.0000 
     48 H48         0.7471   53.0127   15.5778 H         1 UNK         0.0000 
     49 H49        -0.3224   53.6387   16.8020 H         1 UNK         0.0000 
     50 H50         1.2799   55.3845   15.9457 H         1 UNK         0.0000 
     51 H51         1.4292   55.1351   17.6664 H         1 UNK         0.0000 
     52 H52         3.6783   55.2479   16.6288 H         1 UNK         0.0000 
     53 H53         3.2620   53.9889   15.5049 H         1 UNK         0.0000 
     54 H54         5.1041   51.9129   17.5244 H         1 UNK         0.0000 
     55 H55         7.3526   52.1143   16.6769 H         1 UNK         0.0000 
     56 H56         9.7639   52.4259   16.3721 H         1 UNK         0.0000 
     57 H57        10.9107   54.3455   17.4277 H         1 UNK         0.0000 
     58 H58         9.6392   55.9799   18.7632 H         1 UNK         0.0000 
     59 H59         7.2182   55.7173   19.0566 H         1 UNK         0.0000 
     60 H60         4.3083   55.1604   29.6791 H         1 UNK         0.0000 
     61 H61         5.5891   54.0402   29.2808 H         1 UNK         0.0000 
     62 H62         4.2802   53.2951   31.3357 H         1 UNK         0.0000 
     63 H63         4.2431   52.1165   30.0658 H         1 UNK         0.0000 
     64 H64         2.0248   54.1861   30.4802 H         1 UNK         0.0000 
     65 H65         1.9436   52.5446   31.0640 H         1 UNK         0.0000 
     66 H66         1.8113   51.6368   28.8576 H         1 UNK         0.0000 
     67 H67         0.7682   53.0378   28.8328 H         1 UNK         0.0000 
     68 H68         2.8592   53.9901   19.4436 H         1 UNK         0.0000 
@<TRIPOS>BOND
     1    1    2 1    
     2    1   36 1    
     3    1   37 1    
     4    1   38 1    
     5    2    3 1    
     6    2   39 1    
     7    2   40 1    
     8    3    4 1    
     9    4    5 2    
    10    4    6 1    
    11    6   10 2    
    12    6    7 1    
    13    7   35 1    
    14    7    8 2    
    15    8    9 1    
    16    8   32 1    
    17    9   10 1    
    18   10   11 am   BACKBONE|DICT|INTERRES
    19   11   12 am   BACKBONE|DICT|INTERRES
    20   11   41 1    
    21   12   13 2    
    22   12   14 1    
    23   14   15 1    
    24   14   42 1    
    25   14   43 1    
    26   15   16 1    
    27   16   25 1    
    28   16   17 2    
    29   17   18 1    
    30   17   68 1    
    31   18   23 1    
    32   18   19 1    
    33   18   24 1    
    34   19   20 1    
    35   19   44 1    
    36   19   45 1    
    37   20   21 1    
    38   20   46 1    
    39   20   47 1    
    40   21   22 1    
    41   21   48 1    
    42   21   49 1    
    43   22   23 1    
    44   22   50 1    
    45   22   51 1    
    46   23   52 1    
    47   23   53 1    
    48   24   25 1    
    49   24   54 1    
    50   25   26 1    
    51   26   31 ar   
    52   26   27 ar   
    53   27   28 ar   
    54   27   55 1    
    55   28   29 ar   
    56   28   56 1    
    57   29   30 ar   
    58   29   57 1    
    59   30   31 ar   
    60   30   58 1    
    61   31   59 1    
    62   32   33 1    
    63   32   60 1    
    64   32   61 1    
    65   33   34 1    
    66   33   62 1    
    67   33   63 1    
    68   34   35 1    
    69   34   64 1    
    70   34   65 1    
    71   35   66 1    
    72   35   67 1    
@<TRIPOS>SUBSTRUCTURE
     1 UNK         1 GROUP             0       ****    0 ROOT    
