ZINC34683850_5683
                    3D
 Schrodinger Suite 2024-2.
 67 71  0  0  1  0            999 V2000
    7.1038   53.9892   27.6510 C   0  0  0  0  0  0
    5.8591   54.5697   27.2790 O   0  0  0  0  0  0
    4.7066   54.1182   27.8877 C   0  0  0  0  0  0
    3.5024   54.6851   27.4768 C   0  0  0  0  0  0
    2.2928   54.2914   28.0420 C   0  0  0  0  0  0
    2.2642   53.2579   28.9850 C   0  0  0  0  0  0
    3.4709   52.7124   29.4372 C   0  0  0  0  0  0
    4.6731   53.1352   28.8819 C   0  0  0  0  0  0
    3.5049   51.6967   30.3526 O   0  0  0  0  0  0
    3.5220   52.0966   31.7107 C   0  0  0  0  0  0
    0.9317   52.6392   29.3926 C   0  0  0  0  0  0
    0.0091   52.2993   28.1941 N   0  3  1  0  0  0
    0.7412   51.5139   27.0790 C   0  0  0  0  0  0
   -0.2106   51.4961   25.8824 C   0  0  0  0  0  0
   -1.4825   50.6962   26.2246 C   0  0  1  0  0  0
   -2.1799   51.3256   27.4718 C   0  0  0  0  0  0
   -1.2264   51.5029   28.6689 C   0  0  0  0  0  0
   -2.3694   50.6339   25.0451 N   0  0  0  0  0  0
   -3.4298   51.5448   24.9191 C   0  0  0  0  0  0
   -3.1923   52.8672   24.4909 C   0  0  0  0  0  0
   -4.2280   53.8115   24.4818 C   0  0  0  0  0  0
   -5.4893   53.3840   24.8817 C   0  0  0  0  0  0
   -5.7305   52.0928   25.2575 C   0  0  0  0  0  0
   -4.7212   51.1413   25.2941 C   0  0  0  0  0  0
   -7.0376   51.9625   25.6039 O   0  0  0  0  0  0
   -7.6512   53.1430   25.1678 C   0  0  0  0  0  0
   -6.6403   54.0971   24.9803 O   0  0  0  0  0  0
   -2.0650   49.4182   23.7650 S   0  0  0  0  0  0
   -1.7652   48.1469   24.4352 O   0  0  0  0  0  0
   -3.1598   49.5201   22.7908 O   0  0  0  0  0  0
   -0.5738   49.9487   22.9260 C   0  0  0  0  0  0
   -0.6271   51.0462   22.0609 C   0  0  0  0  0  0
    0.5410   51.5060   21.4530 C   0  0  0  0  0  0
    1.7511   50.8631   21.7085 C   0  0  0  0  0  0
    1.8019   49.7586   22.5574 C   0  0  0  0  0  0
    0.6394   49.2968   23.1671 C   0  0  0  0  0  0
    2.8896   51.3162   21.1384 F   0  0  0  0  0  0
    7.9041   54.4958   27.1153 H   0  0  0  0  0  0
    7.1393   52.9316   27.3848 H   0  0  0  0  0  0
    7.3032   54.0951   28.7172 H   0  0  0  0  0  0
    3.5071   55.4186   26.6865 H   0  0  0  0  0  0
    1.3742   54.7335   27.6807 H   0  0  0  0  0  0
    5.5702   52.6548   29.2227 H   0  0  0  0  0  0
    3.7201   51.2275   32.3371 H   0  0  0  0  0  0
    4.3038   52.8291   31.9152 H   0  0  0  0  0  0
    2.5558   52.4961   32.0141 H   0  0  0  0  0  0
    1.0636   51.6962   29.9254 H   0  0  0  0  0  0
    0.3544   53.3185   30.0229 H   0  0  0  0  0  0
    1.6456   52.0533   26.7940 H   0  0  0  0  0  0
    1.0052   50.5213   27.4525 H   0  0  0  0  0  0
   -0.4607   52.5222   25.6159 H   0  0  0  0  0  0
    0.3264   51.0787   25.0408 H   0  0  0  0  0  0
   -1.1816   49.6800   26.4868 H   0  0  0  0  0  0
   -3.0241   50.7058   27.7734 H   0  0  0  0  0  0
   -2.5753   52.3132   27.2382 H   0  0  0  0  0  0
   -0.8710   50.5589   29.0727 H   0  0  0  0  0  0
   -1.6953   52.0890   29.4587 H   0  0  0  0  0  0
   -2.1996   53.1697   24.1937 H   0  0  0  0  0  0
   -4.0472   54.8312   24.1762 H   0  0  0  0  0  0
   -4.9102   50.1298   25.6249 H   0  0  0  0  0  0
   -8.3935   53.4897   25.8874 H   0  0  0  0  0  0
   -8.1505   52.9580   24.2125 H   0  0  0  0  0  0
   -1.5653   51.5496   21.8745 H   0  0  0  0  0  0
    0.5184   52.3582   20.7905 H   0  0  0  0  0  0
    2.7454   49.2724   22.7566 H   0  0  0  0  0  0
    0.6931   48.4545   23.8428 H   0  0  0  0  0  0
   -0.2901   53.1825   27.8080 H   0  0  0  0  0  0
  1  2  1  0  0  0
  1 38  1  0  0  0
  1 39  1  0  0  0
  1 40  1  0  0  0
  2  3  1  0  0  0
  3  8  2  0  0  0
  3  4  1  0  0  0
  4  5  2  0  0  0
  4 41  1  0  0  0
  5  6  1  0  0  0
  5 42  1  0  0  0
  6  7  2  0  0  0
  6 11  1  0  0  0
  7  8  1  0  0  0
  7  9  1  0  0  0
  8 43  1  0  0  0
  9 10  1  0  0  0
 10 44  1  0  0  0
 10 45  1  0  0  0
 10 46  1  0  0  0
 11 12  1  0  0  0
 11 47  1  0  0  0
 11 48  1  0  0  0
 12 17  1  0  0  0
 12 13  1  0  0  0
 12 67  1  0  0  0
 13 14  1  0  0  0
 13 49  1  0  0  0
 13 50  1  0  0  0
 14 15  1  0  0  0
 14 51  1  0  0  0
 14 52  1  0  0  0
 15 16  1  0  0  0
 15 18  1  0  0  0
 15 53  1  0  0  0
 16 17  1  0  0  0
 16 54  1  0  0  0
 16 55  1  0  0  0
 17 56  1  0  0  0
 17 57  1  0  0  0
 18 19  1  0  0  0
 18 28  1  0  0  0
 19 24  2  0  0  0
 19 20  1  0  0  0
 20 21  2  0  0  0
 20 58  1  0  0  0
 21 22  1  0  0  0
 21 59  1  0  0  0
 22 27  1  0  0  0
 22 23  2  0  0  0
 23 24  1  0  0  0
 23 25  1  0  0  0
 24 60  1  0  0  0
 25 26  1  0  0  0
 26 27  1  0  0  0
 26 61  1  0  0  0
 26 62  1  0  0  0
 28 29  2  0  0  0
 28 30  2  0  0  0
 28 31  1  0  0  0
 31 36  2  0  0  0
 31 32  1  0  0  0
 32 33  2  0  0  0
 32 63  1  0  0  0
 33 34  1  0  0  0
 33 64  1  0  0  0
 34 35  2  0  0  0
 34 37  1  0  0  0
 35 36  1  0  0  0
 35 65  1  0  0  0
 36 66  1  0  0  0
M  CHG  1  12   1
M  END
> <i_i_glide_confnum>
102

> <i_i_glide_lignum>
5684

> <i_i_glide_posenum>
378

> <i_i_glide_rotatable_bonds>
8

> <i_m_Source_File_Index>
2346

> <b_m_subgroup_collapsed>
0

> <r_i_docking_score>
-2.87962

> <r_i_glide_ecoul>
-1.56502

> <r_i_glide_eff_state_penalty>
0

> <r_i_glide_einternal>
20.0015

> <r_i_glide_emodel>
-36.9231

> <r_i_glide_energy>
-44.071

> <r_i_glide_erotb>
0.440862

> <r_i_glide_esite>
-0.0648239

> <r_i_glide_evdw>
-42.506

> <r_i_glide_gscore>
-2.87962

> <r_i_glide_hbond>
-0.446274

> <r_i_glide_ligand_efficiency>
-0.0778275

> <r_i_glide_ligand_efficiency_ln>
-0.624522

> <r_i_glide_ligand_efficiency_sa>
-0.259339

> <r_i_glide_lipo>
-2.47486

> <r_i_glide_metal>
0

> <r_i_glide_rewards>
2.02552

> <s_i_glide_gridfile>
wee1_glide-grid

> <s_m_Source_File>
wee1_decoys_glide_SP.sdf

> <s_m_Source_Path>
/Users/zhangxujun/Desktop

> <s_m_entry_id>
2621

> <s_m_entry_name>
wee1_decoys_glide_SP.2346

> <s_m_subgroup_title>
wee1_decoys_glide_SP

> <s_m_subgroupid>
wee1_decoys_glide_SP


$$$$
