@<TRIPOS>MOLECULE
ZINC64303998_6212
55   56    1
SMALL
USER_CHARGES


@<TRIPOS>ATOM
      1 C1          4.5334   54.7435   29.5854 C.3       1 UNK         0.0000 
      2 C2          4.5175   53.4585   28.7421 C.3       1 UNK         0.0000 
      3 C3          3.2574   52.6325   29.0374 C.3       1 UNK         0.0000 
      4 N4          4.6189   53.7234   27.3105 N.am      1 UNK         0.0000 
      5 C5          5.6868   54.2328   26.6670 C.2       1 UNK         0.0000 
      6 O6          6.7211   54.5660   27.2476 O.2       1 UNK         0.0000 
      7 C7          5.5732   54.3489   25.1623 C.ar      1 UNK         0.0000 
      8 C8          4.3671   54.0967   24.4879 C.ar      1 UNK         0.0000 
      9 C9          4.3104   54.1266   23.0984 C.ar      1 UNK         0.0000 
     10 C10         5.4375   54.4954   22.3666 C.ar      1 UNK         0.0000 
     11 C11         6.6411   54.7631   23.0251 C.ar      1 UNK         0.0000 
     12 C12         6.7051   54.6842   24.4102 C.ar      1 UNK         0.0000 
     13 N13         5.2897   54.5669   20.9750 N.am      1 UNK         0.0000 
     14 C14         5.9753   55.3550   20.1053 C.2       1 UNK         0.0000 
     15 O15         6.8051   56.2036   20.4502 O.2       1 UNK         0.0000 
     16 C16         5.6176   55.1748   18.6610 C.2       1 UNK         0.0000 
     17 O17         5.9285   56.0180   17.8170 O.2       1 UNK         0.0000 
     18 N18         4.9598   54.0364   18.3395 N.am      1 UNK         0.0000 
     19 C19         4.4640   53.6840   17.0136 C.3       1 UNK         0.0000 
     20 C20         3.2440   52.7414   17.0692 C.3       1 UNK         0.0000 
     21 C21         2.7368   52.3054   15.6863 C.3       1 UNK         0.0000 
     22 N22         3.9215   51.6930   14.9073 N.4       1 UNK         0.0000 
     23 C23         5.0284   52.7457   14.6765 C.3       1 UNK         0.0000 
     24 C24         5.5638   53.1969   16.0445 C.3       1 UNK         0.0000 
     25 C25         3.4708   51.0917   13.5484 C.3       1 UNK         0.0000 
     26 C26         2.6748   49.7832   13.7306 C.3       1 UNK         0.0000 
     27 F27         2.6579   49.0667   12.6061 F         1 UNK         0.0000 
     28 F28         1.4123   49.9795   14.1098 F         1 UNK         0.0000 
     29 H29         4.3600   54.4964   30.6306 H         1 UNK         0.0000 
     30 H30         5.4937   55.2566   29.5396 H         1 UNK         0.0000 
     31 H31         3.7425   55.4313   29.2860 H         1 UNK         0.0000 
     32 H32         5.3806   52.8502   29.0243 H         1 UNK         0.0000 
     33 H33         3.1881   52.3904   30.0992 H         1 UNK         0.0000 
     34 H34         2.3503   53.1852   28.7864 H         1 UNK         0.0000 
     35 H35         3.2508   51.6951   28.4848 H         1 UNK         0.0000 
     36 H36         3.8472   53.3965   26.7528 H         1 UNK         0.0000 
     37 H37         3.4636   53.8390   25.0203 H         1 UNK         0.0000 
     38 H38         3.3740   53.9122   22.6037 H         1 UNK         0.0000 
     39 H39         7.5387   55.0200   22.4806 H         1 UNK         0.0000 
     40 H40         7.6541   54.8794   24.8871 H         1 UNK         0.0000 
     41 H41         4.5203   54.0346   20.6064 H         1 UNK         0.0000 
     42 H42         4.7378   53.3668   19.0574 H         1 UNK         0.0000 
     43 H43         4.0718   54.6020   16.5640 H         1 UNK         0.0000 
     44 H44         2.4286   53.2169   17.6164 H         1 UNK         0.0000 
     45 H45         3.5056   51.8367   17.6220 H         1 UNK         0.0000 
     46 H46         2.3280   53.1271   15.0958 H         1 UNK         0.0000 
     47 H47         1.9848   51.5284   15.8171 H         1 UNK         0.0000 
     48 H48         5.8302   52.2659   14.1113 H         1 UNK         0.0000 
     49 H49         4.6004   53.5642   14.0928 H         1 UNK         0.0000 
     50 H50         6.0858   52.3515   16.4983 H         1 UNK         0.0000 
     51 H51         6.3070   53.9822   15.8954 H         1 UNK         0.0000 
     52 H52         4.3931   50.8721   13.0078 H         1 UNK         0.0000 
     53 H53         2.9184   51.8603   13.0067 H         1 UNK         0.0000 
     54 H54         3.1378   49.1413   14.4815 H         1 UNK         0.0000 
     55 H55         4.3027   50.9315   15.4674 H         1 UNK         0.0000 
@<TRIPOS>BOND
     1    1    2 1    
     2    1   29 1    
     3    1   30 1    
     4    1   31 1    
     5    2    3 1    
     6    2    4 1    
     7    2   32 1    
     8    3   33 1    
     9    3   34 1    
    10    3   35 1    
    11    4    5 am   BACKBONE|DICT|INTERRES
    12    4   36 1    
    13    5    6 2    
    14    5    7 1    
    15    7   12 ar   
    16    7    8 ar   
    17    8    9 ar   
    18    8   37 1    
    19    9   10 ar   
    20    9   38 1    
    21   10   11 ar   
    22   10   13 1    
    23   11   12 ar   
    24   11   39 1    
    25   12   40 1    
    26   13   14 am   BACKBONE|DICT|INTERRES
    27   13   41 1    
    28   14   15 2    
    29   14   16 1    
    30   16   17 2    
    31   16   18 am   BACKBONE|DICT|INTERRES
    32   18   19 1    
    33   18   42 1    
    34   19   24 1    
    35   19   20 1    
    36   19   43 1    
    37   20   21 1    
    38   20   44 1    
    39   20   45 1    
    40   21   22 1    
    41   21   46 1    
    42   21   47 1    
    43   22   23 1    
    44   22   25 1    
    45   22   55 1    
    46   23   24 1    
    47   23   48 1    
    48   23   49 1    
    49   24   50 1    
    50   24   51 1    
    51   25   26 1    
    52   25   52 1    
    53   25   53 1    
    54   26   27 1    
    55   26   28 1    
    56   26   54 1    
@<TRIPOS>SUBSTRUCTURE
     1 UNK         1 GROUP             0       ****    0 ROOT    
