@<TRIPOS>MOLECULE
ZINC38742622_32
44   47    1
SMALL
USER_CHARGES


@<TRIPOS>ATOM
      1 C1         -0.1032   52.3523   29.9017 C.3       1 UNK         0.0000 
      2 C2          0.5538   53.6871   29.5046 C.3       1 UNK         0.0000 
      3 C3          0.5174   54.7023   30.6637 C.3       1 UNK         0.0000 
      4 C4          1.9581   53.4973   28.9521 C.2       1 UNK         0.0000 
      5 C5          2.4666   53.7554   27.7418 C.2       1 UNK         0.0000 
      6 C6          3.8967   53.3263   27.8233 C.3       1 UNK         0.0000 
      7 H7          4.0964   52.4959   27.1597 H         1 UNK         0.0000 
      8 N8          4.0120   52.8671   29.1805 N.2       1 UNK         0.0000 
      9 N9          2.9026   52.9811   29.7745 N.2       1 UNK         0.0000 
     10 C10         4.9251   54.4359   27.4915 C.3       1 UNK         0.0000 
     11 H11         4.6523   55.2964   28.0949 H         1 UNK         0.0000 
     12 N12         6.2869   54.0966   27.8949 N.3       1 UNK         0.0000 
     13 N13         7.1043   54.2266   26.7268 N.3       1 UNK         0.0000 
     14 C14         6.3927   55.1353   25.8575 C.3       1 UNK         0.0000 
     15 H15         6.6436   56.1693   26.0840 H         1 UNK         0.0000 
     16 N16         4.9944   54.8965   26.0998 N.pl3     1 UNK         0.0000 
     17 N17         4.3555   54.1756   25.0703 N.2       1 UNK         0.0000 
     18 C18         5.0601   54.0991   24.0139 C.2       1 UNK         0.0000 
     19 S19         6.6964   54.8220   24.1181 S.3       1 UNK         0.0000 
     20 C20         4.5731   53.4632   22.7202 C.3       1 UNK         0.0000 
     21 O21         4.7912   54.3666   21.6377 O.3       1 UNK         0.0000 
     22 C22         4.4535   53.9921   20.3516 C.ar      1 UNK         0.0000 
     23 C23         4.7680   54.8958   19.3343 C.ar      1 UNK         0.0000 
     24 C24         4.4501   54.6104   18.0095 C.ar      1 UNK         0.0000 
     25 C25         3.8174   53.4110   17.6970 C.ar      1 UNK         0.0000 
     26 C26         3.5033   52.4968   18.6975 C.ar      1 UNK         0.0000 
     27 C27         3.8207   52.7833   20.0229 C.ar      1 UNK         0.0000 
     28 Br28        3.3956   53.0088   15.8841 Br        1 UNK         0.0000 
     29 H29        -1.1225   52.4963   30.2542 H         1 UNK         0.0000 
     30 H30        -0.1509   51.6644   29.0555 H         1 UNK         0.0000 
     31 H31         0.4496   51.8598   30.7011 H         1 UNK         0.0000 
     32 H32        -0.0424   54.1021   28.6921 H         1 UNK         0.0000 
     33 H33         0.9476   55.6633   30.3721 H         1 UNK         0.0000 
     34 H34        -0.4955   54.8965   31.0032 H         1 UNK         0.0000 
     35 H35         1.0771   54.3281   31.5200 H         1 UNK         0.0000 
     36 H36         1.9928   54.1620   26.8615 H         1 UNK         0.0000 
     37 H37         6.6744   54.7519   28.5696 H         1 UNK         0.0000 
     38 H38         7.1036   53.2873   26.3411 H         1 UNK         0.0000 
     39 H39         5.1194   52.5355   22.5255 H         1 UNK         0.0000 
     40 H40         3.5106   53.2211   22.7979 H         1 UNK         0.0000 
     41 H41         5.2566   55.8269   19.5706 H         1 UNK         0.0000 
     42 H42         4.6970   55.3134   17.2273 H         1 UNK         0.0000 
     43 H43         3.0385   51.5568   18.4412 H         1 UNK         0.0000 
     44 H44         3.5712   52.0457   20.7735 H         1 UNK         0.0000 
@<TRIPOS>BOND
     1    1    2 1    
     2    1   29 1    
     3    1   30 1    
     4    1   31 1    
     5    2    3 1    
     6    2    4 1    
     7    2   32 1    
     8    3   33 1    
     9    3   34 1    
    10    3   35 1    
    11    4    9 1    
    12    4    5 2    
    13    5    6 1    
    14    5   36 1    
    15    6    7 1    
    16    6    8 1    
    17    6   10 1    
    18    8    9 2    
    19   10   11 1    
    20   10   16 1    
    21   10   12 1    
    22   12   13 1    
    23   12   37 1    
    24   13   14 1    
    25   13   38 1    
    26   14   15 1    
    27   14   19 1    
    28   14   16 1    
    29   16   17 1    
    30   17   18 2    
    31   18   19 1    
    32   18   20 1    
    33   20   21 1    
    34   20   39 1    
    35   20   40 1    
    36   21   22 1    
    37   22   27 ar   
    38   22   23 ar   
    39   23   24 ar   
    40   23   41 1    
    41   24   25 ar   
    42   24   42 1    
    43   25   26 ar   
    44   25   28 1    
    45   26   27 ar   
    46   26   43 1    
    47   27   44 1    
@<TRIPOS>SUBSTRUCTURE
     1 UNK         1 GROUP             0       ****    0 ROOT    
