@<TRIPOS>MOLECULE
ZINC02661613_3459
53   56    1
SMALL
USER_CHARGES


@<TRIPOS>ATOM
      1 C1          1.8384   52.3135   19.6058 C.3       1 UNK         0.0000 
      2 C2          1.3791   50.9751   20.1497 C.2       1 UNK         0.0000 
      3 C3          1.2247   49.8271   19.3799 C.2       1 UNK         0.0000 
      4 S4          0.5772   48.4933   20.3040 S.3       1 UNK         0.0000 
      5 C5          0.6365   49.4146   21.7803 C.ar      1 UNK         0.0000 
      6 C6          1.0542   50.7531   21.5372 C.ar      1 UNK         0.0000 
      7 C7          1.0677   51.5899   22.6826 C.ar      1 UNK         0.0000 
      8 N8          0.7597   51.0927   23.9143 N.ar      1 UNK         0.0000 
      9 C9          0.4022   49.7857   24.0001 C.ar      1 UNK         0.0000 
     10 N10         0.3045   48.9025   22.9728 N.ar      1 UNK         0.0000 
     11 C11         0.1316   49.2287   25.3996 C.3       1 UNK         0.0000 
     12 C12        -1.3049   51.1861   26.4489 C.3       1 UNK         0.0000 
     13 C13        -0.3815   51.6305   27.5732 C.ar      1 UNK         0.0000 
     14 C14        -0.8583   51.6966   28.8859 C.ar      1 UNK         0.0000 
     15 C15        -0.0092   52.0968   29.9148 C.ar      1 UNK         0.0000 
     16 C16         1.3140   52.4252   29.6237 C.ar      1 UNK         0.0000 
     17 C17         1.7909   52.3696   28.3184 C.ar      1 UNK         0.0000 
     18 C18         0.9379   51.9861   27.2910 C.ar      1 UNK         0.0000 
     19 Cl19        2.3889   52.8963   30.8816 Cl        1 UNK         0.0000 
     20 N20         1.3799   52.9558   22.5485 N.pl3     1 UNK         0.0000 
     21 C21         1.5059   53.8830   23.6708 C.3       1 UNK         0.0000 
     22 C22         2.9441   54.0210   24.1646 C.ar      1 UNK         0.0000 
     23 C23         3.1715   54.1918   25.5314 C.ar      1 UNK         0.0000 
     24 C24         4.4564   54.4292   26.0081 C.ar      1 UNK         0.0000 
     25 C25         5.5202   54.4973   25.1127 C.ar      1 UNK         0.0000 
     26 C26         5.3117   54.3172   23.7474 C.ar      1 UNK         0.0000 
     27 C27         4.0210   54.0961   23.2708 C.ar      1 UNK         0.0000 
     28 Cl28        7.1044   54.8301   25.7015 Cl        1 UNK         0.0000 
     29 C29         1.5045   49.6243   17.9066 C.3       1 UNK         0.0000 
     30 H30         2.1544   52.2688   18.5641 H         1 UNK         0.0000 
     31 H31         1.0280   53.0392   19.6435 H         1 UNK         0.0000 
     32 H32         2.6884   52.7191   20.1550 H         1 UNK         0.0000 
     33 H33         0.9364   49.4748   26.0936 H         1 UNK         0.0000 
     34 H34         0.0443   48.1390   25.3883 H         1 UNK         0.0000 
     35 H35        -2.3523   51.2813   26.7420 H         1 UNK         0.0000 
     36 H36        -1.1527   51.7549   25.5308 H         1 UNK         0.0000 
     37 H37        -1.8752   51.4122   29.1185 H         1 UNK         0.0000 
     38 H38        -0.3720   52.1249   30.9343 H         1 UNK         0.0000 
     39 H39         2.8207   52.6159   28.1027 H         1 UNK         0.0000 
     40 H40         1.3181   51.9467   26.2826 H         1 UNK         0.0000 
     41 H41         1.5421   53.3264   21.6206 H         1 UNK         0.0000 
     42 H42         1.1615   54.8654   23.3454 H         1 UNK         0.0000 
     43 H43         0.8484   53.5850   24.4890 H         1 UNK         0.0000 
     44 H44         2.3453   54.1783   26.2242 H         1 UNK         0.0000 
     45 H45         4.6251   54.5779   27.0650 H         1 UNK         0.0000 
     46 H46         6.1418   54.3775   23.0590 H         1 UNK         0.0000 
     47 H47         3.8613   53.9971   22.2069 H         1 UNK         0.0000 
     48 H48         2.3031   50.2726   17.5427 H         1 UNK         0.0000 
     49 H49         1.8334   48.6064   17.6871 H         1 UNK         0.0000 
     50 H50         0.6229   49.8213   17.2949 H         1 UNK         0.0000 
     51 N51        -1.1764   49.6943   26.0817 N.4       1 UNK         0.0000 
     52 H52        -1.2953   49.1624   26.9569 H         1 UNK         0.0000 
     53 H53        -1.9479   49.4363   25.4843 H         1 UNK         0.0000 
@<TRIPOS>BOND
     1    1    2 1    
     2    1   30 1    
     3    1   31 1    
     4    1   32 1    
     5    2    6 1    
     6    2    3 2    
     7    3    4 1    
     8    3   29 1    
     9    4    5 1    
    10    5   10 ar   
    11    5    6 ar   
    12    6    7 ar   
    13    7    8 ar   
    14    7   20 1    
    15    8    9 ar   
    16    9   10 ar   
    17    9   11 1    
    18   11   33 1    
    19   11   34 1    
    20   11   51 1    
    21   12   13 1    
    22   12   35 1    
    23   12   36 1    
    24   12   51 1    
    25   13   18 ar   
    26   13   14 ar   
    27   14   15 ar   
    28   14   37 1    
    29   15   16 ar   
    30   15   38 1    
    31   16   17 ar   
    32   16   19 1    
    33   17   18 ar   
    34   17   39 1    
    35   18   40 1    
    36   20   21 1    
    37   20   41 1    
    38   21   22 1    
    39   21   42 1    
    40   21   43 1    
    41   22   27 ar   
    42   22   23 ar   
    43   23   24 ar   
    44   23   44 1    
    45   24   25 ar   
    46   24   45 1    
    47   25   26 ar   
    48   25   28 1    
    49   26   27 ar   
    50   26   46 1    
    51   27   47 1    
    52   29   48 1    
    53   29   49 1    
    54   29   50 1    
    55   51   52 1    
    56   51   53 1    
@<TRIPOS>SUBSTRUCTURE
     1 UNK         1 GROUP             0       ****    0 ROOT    
