@<TRIPOS>MOLECULE
ZINC29700715_5897
51   54    1
SMALL
USER_CHARGES


@<TRIPOS>ATOM
      1 C1          6.3073   54.5740   27.3687 C.3       1 UNK         0.0000 
      2 C2          5.1718   53.9618   28.1415 C.2       1 UNK         0.0000 
      3 C3          3.8389   54.2310   28.3147 C.2       1 UNK         0.0000 
      4 C4          3.3211   53.2258   29.1455 C.2       1 UNK         0.0000 
      5 N5          4.3044   52.4405   29.5141 N.2       1 UNK         0.0000 
      6 O6          5.4674   52.8807   28.8815 O.3       1 UNK         0.0000 
      7 N7          2.0752   53.0058   29.5838 N.2       1 UNK         0.0000 
      8 S8          0.7992   53.6436   28.9539 S.o2      1 UNK         0.0000 
      9 O9          0.9894   55.0344   28.5287 O.2       1 UNK         0.0000 
     10 O10        -0.4322   53.3196   29.6836 O.2       1 UNK         0.0000 
     11 C11         0.6945   52.7029   27.4213 C.ar      1 UNK         0.0000 
     12 C12        -0.0235   51.5061   27.3673 C.ar      1 UNK         0.0000 
     13 C13        -0.1457   50.8210   26.1577 C.ar      1 UNK         0.0000 
     14 C14         0.4540   51.3240   24.9991 C.ar      1 UNK         0.0000 
     15 C15         1.2184   52.4968   25.0454 C.ar      1 UNK         0.0000 
     16 C16         1.3375   53.1711   26.2711 C.ar      1 UNK         0.0000 
     17 C17         1.9123   53.0103   23.8060 C.2       1 UNK         0.0000 
     18 O18         1.4060   52.8700   22.6938 O.2       1 UNK         0.0000 
     19 N19         3.1208   53.5576   24.0537 N.am      1 UNK         0.0000 
     20 C20         4.1319   53.9954   23.1815 C.ar      1 UNK         0.0000 
     21 C21         5.3412   54.3310   23.7923 C.ar      1 UNK         0.0000 
     22 C22         6.4239   54.7808   23.0415 C.ar      1 UNK         0.0000 
     23 C23         6.3043   54.8969   21.6603 C.ar      1 UNK         0.0000 
     24 C24         5.1058   54.5525   21.0213 C.ar      1 UNK         0.0000 
     25 C25         4.0217   54.0971   21.7855 C.ar      1 UNK         0.0000 
     26 C26         4.9934   54.6544   19.5027 C.3       1 UNK         0.0000 
     27 S27         5.5044   56.2890   18.8810 S.3       1 UNK         0.0000 
     28 C28         4.8930   56.0826   17.1833 C.3       1 UNK         0.0000 
     29 C29         5.5416   54.8979   16.4404 C.3       1 UNK         0.0000 
     30 C30         5.2323   53.5133   17.0434 C.3       1 UNK         0.0000 
     31 S31         5.9038   53.2989   18.7168 S.3       1 UNK         0.0000 
     32 H32         5.9887   55.4414   26.7933 H         1 UNK         0.0000 
     33 H33         7.1029   54.8970   28.0378 H         1 UNK         0.0000 
     34 H34         6.7508   53.8561   26.6790 H         1 UNK         0.0000 
     35 H35         3.3018   55.0542   27.8768 H         1 UNK         0.0000 
     36 H36        -0.5038   51.1114   28.2535 H         1 UNK         0.0000 
     37 H37        -0.7092   49.8995   26.1242 H         1 UNK         0.0000 
     38 H38         0.3464   50.7747   24.0747 H         1 UNK         0.0000 
     39 H39         1.8855   54.0993   26.3285 H         1 UNK         0.0000 
     40 H40         3.3848   53.5654   25.0265 H         1 UNK         0.0000 
     41 H41         5.4495   54.2347   24.8586 H         1 UNK         0.0000 
     42 H42         7.3556   55.0315   23.5245 H         1 UNK         0.0000 
     43 H43         7.1496   55.2368   21.0808 H         1 UNK         0.0000 
     44 H44         3.1039   53.8387   21.2806 H         1 UNK         0.0000 
     45 H45         3.9398   54.5358   19.2459 H         1 UNK         0.0000 
     46 H46         5.0918   57.0197   16.6608 H         1 UNK         0.0000 
     47 H47         3.8096   55.9705   17.2356 H         1 UNK         0.0000 
     48 H48         5.2053   54.9102   15.4037 H         1 UNK         0.0000 
     49 H49         6.6227   55.0437   16.4021 H         1 UNK         0.0000 
     50 H50         4.1577   53.3361   17.0979 H         1 UNK         0.0000 
     51 H51         5.6560   52.7170   16.4316 H         1 UNK         0.0000 
@<TRIPOS>BOND
     1    1    2 1    
     2    1   32 1    
     3    1   33 1    
     4    1   34 1    
     5    2    6 1    
     6    2    3 2    
     7    3    4 1    
     8    3   35 1    
     9    4    5 2    
    10    4    7 1    
    11    5    6 1    
    12    7    8 1    
    13    8    9 2    
    14    8   10 2    
    15    8   11 1    
    16   11   16 ar   
    17   11   12 ar   
    18   12   13 ar   
    19   12   36 1    
    20   13   14 ar   
    21   13   37 1    
    22   14   15 ar   
    23   14   38 1    
    24   15   16 ar   
    25   15   17 1    
    26   16   39 1    
    27   17   18 2    
    28   17   19 am   BACKBONE|DICT|INTERRES
    29   19   20 1    
    30   19   40 1    
    31   20   25 ar   
    32   20   21 ar   
    33   21   22 ar   
    34   21   41 1    
    35   22   23 ar   
    36   22   42 1    
    37   23   24 ar   
    38   23   43 1    
    39   24   25 ar   
    40   24   26 1    
    41   25   44 1    
    42   26   31 1    
    43   26   27 1    
    44   26   45 1    
    45   27   28 1    
    46   28   29 1    
    47   28   46 1    
    48   28   47 1    
    49   29   30 1    
    50   29   48 1    
    51   29   49 1    
    52   30   31 1    
    53   30   50 1    
    54   30   51 1    
@<TRIPOS>SUBSTRUCTURE
     1 UNK         1 GROUP             0       ****    0 ROOT    
