@<TRIPOS>MOLECULE
ZINC04236779_4919
81   84    1
SMALL
USER_CHARGES


@<TRIPOS>ATOM
      1 C1          3.7774   53.3090   27.8526 C.3       1 UNK         0.0000 
      2 C2          2.3818   53.1192   28.4686 C.3       1 UNK         0.0000 
      3 C3          1.3132   54.0355   27.8215 C.3       1 UNK         0.0000 
      4 C4         -0.0962   53.7885   28.4226 C.3       1 UNK         0.0000 
      5 N5         -0.3934   52.3588   28.2215 N.am      1 UNK         0.0000 
      6 C6          0.4931   51.4974   29.0117 C.3       1 UNK         0.0000 
      7 C7          1.9060   51.6484   28.4062 C.3       1 UNK         0.0000 
      8 C8         -1.1407   51.9146   27.1679 C.2       1 UNK         0.0000 
      9 O9         -1.8149   52.6826   26.4817 O.2       1 UNK         0.0000 
     10 C10        -1.2370   50.3954   26.8817 C.3       1 UNK         0.0000 
     11 C11        -1.6966   49.8784   25.4783 C.3       1 UNK         0.0000 
     12 H12        -2.4982   50.5471   25.2352 H         1 UNK         0.0000 
     13 C13        -2.4624   48.4963   25.5395 C.3       1 UNK         0.0000 
     14 H14        -3.3278   48.6030   26.1963 H         1 UNK         0.0000 
     15 C15        -2.9714   47.9480   24.1836 C.3       1 UNK         0.0000 
     16 C16        -1.9658   48.1453   23.0343 C.3       1 UNK         0.0000 
     17 C17        -1.3096   49.5582   22.9569 C.3       1 UNK         0.0000 
     18 H18        -0.4613   49.4066   22.2860 H         1 UNK         0.0000 
     19 C19        -0.6163   49.9496   24.3239 C.3       1 UNK         0.0000 
     20 C20         0.0926   51.3457   24.1809 C.3       1 UNK         0.0000 
     21 C21        -0.6881   52.4388   23.4209 C.3       1 UNK         0.0000 
     22 C22        -1.2338   51.9310   22.0624 C.3       1 UNK         0.0000 
     23 H23        -1.7848   52.7434   21.5854 H         1 UNK         0.0000 
     24 C24        -2.1800   50.6890   22.2562 C.3       1 UNK         0.0000 
     25 C25        -3.4113   51.1610   23.0930 C.3       1 UNK         0.0000 
     26 C26        -2.7389   50.1939   20.8791 C.3       1 UNK         0.0000 
     27 O27        -1.8206   49.5142   20.0460 O.3       1 UNK         0.0000 
     28 O28        -0.0491   51.6871   21.2969 O.3       1 UNK         0.0000 
     29 C29         0.0793   51.9891   19.9945 C.2       1 UNK         0.0000 
     30 O30        -0.8722   52.0967   19.2231 O.2       1 UNK         0.0000 
     31 N31         1.4121   52.1059   19.6162 N.am      1 UNK         0.0000 
     32 C32         2.5525   52.3754   20.3973 C.ar      1 UNK         0.0000 
     33 C33         3.7886   52.1262   19.8101 C.ar      1 UNK         0.0000 
     34 C34         4.9666   52.4401   20.4817 C.ar      1 UNK         0.0000 
     35 C35         4.9262   53.0221   21.7486 C.ar      1 UNK         0.0000 
     36 C36         3.6931   53.2998   22.3425 C.ar      1 UNK         0.0000 
     37 C37         2.5191   52.9687   21.6691 C.ar      1 UNK         0.0000 
     38 S38         3.5670   54.0967   23.9221 S.3       1 UNK         0.0000 
     39 C39         5.2376   54.4536   24.5357 C.3       1 UNK         0.0000 
     40 C40         0.5588   48.9559   24.5954 C.3       1 UNK         0.0000 
     41 O41        -1.6956   47.4551   26.0817 O.3       1 UNK         0.0000 
     42 H42         3.7860   53.0241   26.8002 H         1 UNK         0.0000 
     43 H43         4.5224   52.6975   28.3632 H         1 UNK         0.0000 
     44 H44         4.1035   54.3474   27.9196 H         1 UNK         0.0000 
     45 H45         2.4279   53.3899   29.5253 H         1 UNK         0.0000 
     46 H46         1.6009   55.0814   27.9309 H         1 UNK         0.0000 
     47 H47         1.2860   53.8655   26.7434 H         1 UNK         0.0000 
     48 H48        -0.0803   53.9656   29.4992 H         1 UNK         0.0000 
     49 H49        -0.8947   54.4457   28.0817 H         1 UNK         0.0000 
     50 H50         0.4797   51.8716   30.0366 H         1 UNK         0.0000 
     51 H51         0.1013   50.4967   29.1304 H         1 UNK         0.0000 
     52 H52         1.9044   51.2966   27.3741 H         1 UNK         0.0000 
     53 H53         2.6179   51.0025   28.9189 H         1 UNK         0.0000 
     54 H54        -0.3164   49.8840   27.1522 H         1 UNK         0.0000 
     55 H55        -2.0134   50.0976   27.5843 H         1 UNK         0.0000 
     56 H56        -3.2180   46.8870   24.2563 H         1 UNK         0.0000 
     57 H57        -3.8994   48.4291   23.9045 H         1 UNK         0.0000 
     58 H58        -1.1796   47.4012   23.1590 H         1 UNK         0.0000 
     59 H59        -2.4147   47.8552   22.0859 H         1 UNK         0.0000 
     60 H60         0.5098   51.7080   25.1178 H         1 UNK         0.0000 
     61 H61         0.9887   51.2036   23.5739 H         1 UNK         0.0000 
     62 H62        -0.0984   53.3430   23.3006 H         1 UNK         0.0000 
     63 H63        -1.4831   52.7936   24.0610 H         1 UNK         0.0000 
     64 H64        -4.0956   51.6967   22.4817 H         1 UNK         0.0000 
     65 H65        -4.0216   50.3638   23.4849 H         1 UNK         0.0000 
     66 H66        -3.2422   51.8606   23.9010 H         1 UNK         0.0000 
     67 H67        -3.5743   49.5111   21.0410 H         1 UNK         0.0000 
     68 H68        -3.1567   51.0289   20.3148 H         1 UNK         0.0000 
     69 H69        -1.3035   50.1811   19.5791 H         1 UNK         0.0000 
     70 H70         1.5728   52.1194   18.6208 H         1 UNK         0.0000 
     71 H71         3.8527   51.6967   18.8205 H         1 UNK         0.0000 
     72 H72         5.9044   52.2319   19.9940 H         1 UNK         0.0000 
     73 H73         5.8522   53.2646   22.2456 H         1 UNK         0.0000 
     74 H74         1.5880   53.2563   22.1136 H         1 UNK         0.0000 
     75 H75         5.1761   54.9866   25.4843 H         1 UNK         0.0000 
     76 H76         5.7912   53.5298   24.7016 H         1 UNK         0.0000 
     77 H77         5.7872   55.0765   23.8300 H         1 UNK         0.0000 
     78 H78         1.2842   48.9669   23.7809 H         1 UNK         0.0000 
     79 H79         1.1042   49.2129   25.5031 H         1 UNK         0.0000 
     80 H80         0.2626   47.9171   24.7041 H         1 UNK         0.0000 
     81 H81        -1.5328   47.6966   27.0241 H         1 UNK         0.0000 
@<TRIPOS>BOND
     1    1    2 1    
     2    1   42 1    
     3    1   43 1    
     4    1   44 1    
     5    2    7 1    
     6    2    3 1    
     7    2   45 1    
     8    3    4 1    
     9    3   46 1    
    10    3   47 1    
    11    4    5 1    
    12    4   48 1    
    13    4   49 1    
    14    5    6 1    
    15    5    8 am   BACKBONE|DICT|INTERRES
    16    6    7 1    
    17    6   50 1    
    18    6   51 1    
    19    7   52 1    
    20    7   53 1    
    21    8    9 2    
    22    8   10 1    
    23   10   11 1    
    24   10   54 1    
    25   10   55 1    
    26   11   12 1    
    27   11   19 1    
    28   11   13 1    
    29   13   14 1    
    30   13   15 1    
    31   13   41 1    
    32   15   16 1    
    33   15   56 1    
    34   15   57 1    
    35   16   17 1    
    36   16   58 1    
    37   16   59 1    
    38   17   18 1    
    39   17   24 1    
    40   17   19 1    
    41   19   20 1    
    42   19   40 1    
    43   20   21 1    
    44   20   60 1    
    45   20   61 1    
    46   21   22 1    
    47   21   62 1    
    48   21   63 1    
    49   22   23 1    
    50   22   24 1    
    51   22   28 1    
    52   24   25 1    
    53   24   26 1    
    54   25   64 1    
    55   25   65 1    
    56   25   66 1    
    57   26   27 1    
    58   26   67 1    
    59   26   68 1    
    60   27   69 1    
    61   28   29 1    
    62   29   30 2    
    63   29   31 am   BACKBONE|DICT|INTERRES
    64   31   32 1    
    65   31   70 1    
    66   32   37 ar   
    67   32   33 ar   
    68   33   34 ar   
    69   33   71 1    
    70   34   35 ar   
    71   34   72 1    
    72   35   36 ar   
    73   35   73 1    
    74   36   37 ar   
    75   36   38 1    
    76   37   74 1    
    77   38   39 1    
    78   39   75 1    
    79   39   76 1    
    80   39   77 1    
    81   40   78 1    
    82   40   79 1    
    83   40   80 1    
    84   41   81 1    
@<TRIPOS>SUBSTRUCTURE
     1 UNK         1 GROUP             0       ****    0 ROOT    
