ZINC00673420_2795
                    3D
 Schrodinger Suite 2024-2.
 59 64  0  0  1  0            999 V2000
    3.9046   53.7253   29.7132 C   0  0  0  0  0  0
    3.0126   52.7516   30.1568 C   0  0  0  0  0  0
    2.1317   52.1659   29.2541 C   0  0  0  0  0  0
    2.1322   52.5546   27.9059 C   0  0  0  0  0  0
    3.0643   53.5141   27.4740 C   0  0  0  0  0  0
    3.9453   54.0994   28.3767 C   0  0  0  0  0  0
    1.1009   51.9382   26.9423 C   0  0  2  0  0  0
    1.2974   50.8653   26.9742 H   0  0  0  0  0  0
    1.1654   52.4964   25.5042 C   0  0  0  0  0  0
    0.0390   51.9867   24.5866 C   0  0  0  0  0  0
   -1.1397   51.5389   25.1131 C   0  0  0  0  0  0
   -2.3145   51.0691   24.2088 C   0  0  2  0  0  0
   -2.5735   50.0564   24.5184 H   0  0  0  0  0  0
   -1.9104   51.0624   22.7346 C   0  0  0  0  0  0
   -0.7215   51.5284   22.3035 C   0  0  0  0  0  0
    0.2831   51.9503   23.1927 N   0  0  0  0  0  0
    1.5636   52.3339   22.6875 C   0  0  0  0  0  0
    1.9584   53.6735   22.8213 C   0  0  0  0  0  0
    3.1992   54.1064   22.3583 C   0  0  0  0  0  0
    4.0531   53.2249   21.7059 C   0  0  0  0  0  0
    3.6757   51.8958   21.5415 C   0  0  0  0  0  0
    2.4519   51.4339   22.0416 C   0  0  0  0  0  0
    2.1483   50.0184   21.8485 C   0  0  0  0  0  0
    1.9050   48.9005   21.6831 N   0  0  0  0  0  0
   -0.4499   51.6587   20.9546 N   0  0  0  0  0  0
   -2.8939   50.6297   21.7897 C   0  0  0  0  0  0
   -3.6716   50.2989   20.9997 N   0  0  0  0  0  0
   -3.5842   51.9017   24.4234 C   0  0  0  0  0  0
   -3.5011   53.2984   24.2875 C   0  0  0  0  0  0
   -4.5926   54.1231   24.5734 C   0  0  0  0  0  0
   -5.7747   53.5073   24.9644 C   0  0  0  0  0  0
   -5.8759   52.1485   25.0739 C   0  0  0  0  0  0
   -4.7998   51.3055   24.8148 C   0  0  0  0  0  0
   -7.1250   51.8268   25.5051 O   0  0  0  0  0  0
   -7.8621   53.0218   25.4445 C   0  0  0  0  0  0
   -6.9506   54.0815   25.3263 O   0  0  0  0  0  0
   -1.4089   51.5609   26.5818 C   0  0  0  0  0  0
   -2.5111   51.2948   27.0548 O   0  0  0  0  0  0
   -0.3159   52.0699   27.5241 C   0  0  0  0  0  0
    4.5866   54.1950   30.4066 H   0  0  0  0  0  0
    2.9947   52.4645   31.1986 H   0  0  0  0  0  0
    1.4353   51.4187   29.6085 H   0  0  0  0  0  0
    3.1228   53.8292   26.4418 H   0  0  0  0  0  0
    4.6528   54.8458   28.0416 H   0  0  0  0  0  0
    1.1064   53.5851   25.4854 H   0  0  0  0  0  0
    2.1431   52.1735   25.1437 H   0  0  0  0  0  0
    1.2986   54.3906   23.2884 H   0  0  0  0  0  0
    3.4873   55.1408   22.4728 H   0  0  0  0  0  0
    4.9998   53.5706   21.3179 H   0  0  0  0  0  0
    4.3532   51.2277   21.0252 H   0  0  0  0  0  0
   -1.0933   51.3153   20.2565 H   0  0  0  0  0  0
    0.3893   52.1215   20.6320 H   0  0  0  0  0  0
   -2.5644   53.7480   23.9874 H   0  0  0  0  0  0
   -4.4980   55.1939   24.4897 H   0  0  0  0  0  0
   -4.8828   50.2365   24.9419 H   0  0  0  0  0  0
   -8.4756   53.1368   26.3383 H   0  0  0  0  0  0
   -8.5030   53.0000   24.5602 H   0  0  0  0  0  0
   -0.4348   51.5337   28.4660 H   0  0  0  0  0  0
   -0.5182   53.1213   27.7201 H   0  0  0  0  0  0
  1  6  2  0  0  0
  1  2  1  0  0  0
  1 40  1  0  0  0
  2  3  2  0  0  0
  2 41  1  0  0  0
  3  4  1  0  0  0
  3 42  1  0  0  0
  4  5  2  0  0  0
  4  7  1  0  0  0
  5  6  1  0  0  0
  5 43  1  0  0  0
  6 44  1  0  0  0
  7  8  1  0  0  0
  7 39  1  0  0  0
  7  9  1  0  0  0
  9 10  1  0  0  0
  9 45  1  0  0  0
  9 46  1  0  0  0
 10 16  1  0  0  0
 10 11  2  0  0  0
 11 12  1  0  0  0
 11 37  1  0  0  0
 12 13  1  0  0  0
 12 14  1  0  0  0
 12 28  1  0  0  0
 14 15  2  0  0  0
 14 26  1  0  0  0
 15 16  1  0  0  0
 15 25  1  0  0  0
 16 17  1  0  0  0
 17 22  2  0  0  0
 17 18  1  0  0  0
 18 19  2  0  0  0
 18 47  1  0  0  0
 19 20  1  0  0  0
 19 48  1  0  0  0
 20 21  2  0  0  0
 20 49  1  0  0  0
 21 22  1  0  0  0
 21 50  1  0  0  0
 22 23  1  0  0  0
 23 24  3  0  0  0
 25 51  1  0  0  0
 25 52  1  0  0  0
 26 27  3  0  0  0
 28 33  2  0  0  0
 28 29  1  0  0  0
 29 30  2  0  0  0
 29 53  1  0  0  0
 30 31  1  0  0  0
 30 54  1  0  0  0
 31 36  1  0  0  0
 31 32  2  0  0  0
 32 33  1  0  0  0
 32 34  1  0  0  0
 33 55  1  0  0  0
 34 35  1  0  0  0
 35 36  1  0  0  0
 35 56  1  0  0  0
 35 57  1  0  0  0
 37 38  2  0  0  0
 37 39  1  0  0  0
 39 58  1  0  0  0
 39 59  1  0  0  0
M  END
> <i_i_glide_confnum>
6

> <i_i_glide_lignum>
2796

> <i_i_glide_posenum>
380

> <i_i_glide_rotatable_bonds>
5

> <i_m_Source_File_Index>
643

> <b_m_subgroup_collapsed>
0

> <r_i_docking_score>
-4.34161

> <r_i_glide_ecoul>
1.62897

> <r_i_glide_eff_state_penalty>
0

> <r_i_glide_einternal>
6.0606

> <r_i_glide_emodel>
-49.6367

> <r_i_glide_energy>
-41.6366

> <r_i_glide_erotb>
0.257574

> <r_i_glide_esite>
-0.0553948

> <r_i_glide_evdw>
-43.2656

> <r_i_glide_gscore>
-4.34161

> <r_i_glide_hbond>
-0.0554703

> <r_i_glide_ligand_efficiency>
-0.117341

> <r_i_glide_ligand_efficiency_ln>
-0.941593

> <r_i_glide_ligand_efficiency_sa>
-0.391005

> <r_i_glide_lipo>
-2.11575

> <r_i_glide_metal>
0

> <r_i_glide_rewards>
-0.453639

> <s_i_glide_gridfile>
wee1_glide-grid

> <s_m_Source_File>
wee1_decoys_glide_SP.sdf

> <s_m_Source_Path>
/Users/zhangxujun/Desktop

> <s_m_entry_id>
918

> <s_m_entry_name>
wee1_decoys_glide_SP.643

> <s_m_subgroup_title>
wee1_decoys_glide_SP

> <s_m_subgroupid>
wee1_decoys_glide_SP


$$$$
