ZINC62027314_3850
                    3D
 Schrodinger Suite 2024-2.
 41 44  0  0  1  0            999 V2000
    2.5289   52.0945   20.6687 C   0  0  0  0  0  0
    3.5319   52.3118   19.7272 C   0  0  0  0  0  0
    4.5198   53.2596   19.9757 C   0  0  0  0  0  0
    4.5097   53.9998   21.1528 C   0  0  0  0  0  0
    3.5089   53.7850   22.0953 C   0  0  0  0  0  0
    2.5128   52.8188   21.8683 C   0  0  0  0  0  0
    1.4340   52.5397   22.8911 C   0  0  0  0  0  0
    0.3351   52.1015   22.5477 O   0  0  0  0  0  0
    1.8070   52.7760   24.1653 N   0  0  0  0  0  0
    1.1509   52.4938   25.3720 C   0  0  0  0  0  0
    0.0348   51.6467   25.5123 C   0  0  0  0  0  0
   -0.4816   51.3653   26.7831 C   0  0  0  0  0  0
    0.1179   51.9418   27.9013 C   0  0  0  0  0  0
    1.2058   52.7793   27.7693 C   0  0  0  0  0  0
    1.7346   53.0546   26.5110 C   0  0  0  0  0  0
    1.6172   53.2308   29.1361 C   0  0  0  0  0  0
    3.0904   52.9220   29.5357 C   0  0  0  0  0  0
    3.8902   54.2291   29.4152 C   0  0  0  0  0  0
    2.8896   55.2971   28.9737 C   0  0  0  0  0  0
    1.5241   54.7544   29.3852 C   0  0  0  0  0  0
    0.6312   52.4963   30.0584 C   0  0  0  0  0  0
    0.6182   52.5411   31.2848 O   0  0  0  0  0  0
   -0.1901   51.7996   29.2480 N   0  0  0  0  0  0
    5.9039   53.5473   18.7022 Br  0  0  0  0  0  0
    1.7746   51.3484   20.4620 H   0  0  0  0  0  0
    3.5508   51.7363   18.8120 H   0  0  0  0  0  0
    5.2758   54.7392   21.3322 H   0  0  0  0  0  0
    3.5219   54.3879   22.9918 H   0  0  0  0  0  0
    2.7217   53.1816   24.2746 H   0  0  0  0  0  0
   -0.4238   51.1703   24.6598 H   0  0  0  0  0  0
   -1.3181   50.6891   26.8898 H   0  0  0  0  0  0
    2.6050   53.6882   26.4156 H   0  0  0  0  0  0
    3.1811   52.5558   30.5619 H   0  0  0  0  0  0
    3.5167   52.1360   28.9076 H   0  0  0  0  0  0
    4.3301   54.4957   30.3773 H   0  0  0  0  0  0
    4.7142   54.1368   28.7061 H   0  0  0  0  0  0
    3.1012   56.2722   29.4118 H   0  0  0  0  0  0
    2.9248   55.4167   27.8920 H   0  0  0  0  0  0
    0.7067   55.2186   28.8285 H   0  0  0  0  0  0
    1.3541   54.9912   30.4390 H   0  0  0  0  0  0
   -0.9125   51.1885   29.6042 H   0  0  0  0  0  0
  1  6  2  0  0  0
  1  2  1  0  0  0
  1 25  1  0  0  0
  2  3  2  0  0  0
  2 26  1  0  0  0
  3  4  1  0  0  0
  3 24  1  0  0  0
  4  5  2  0  0  0
  4 27  1  0  0  0
  5  6  1  0  0  0
  5 28  1  0  0  0
  6  7  1  0  0  0
  7  8  2  0  0  0
  7  9  1  0  0  0
  9 10  1  0  0  0
  9 29  1  0  0  0
 10 15  2  0  0  0
 10 11  1  0  0  0
 11 12  2  0  0  0
 11 30  1  0  0  0
 12 13  1  0  0  0
 12 31  1  0  0  0
 13 23  1  0  0  0
 13 14  2  0  0  0
 14 15  1  0  0  0
 14 16  1  0  0  0
 15 32  1  0  0  0
 16 20  1  0  0  0
 16 17  1  0  0  0
 16 21  1  0  0  0
 17 18  1  0  0  0
 17 33  1  0  0  0
 17 34  1  0  0  0
 18 19  1  0  0  0
 18 35  1  0  0  0
 18 36  1  0  0  0
 19 20  1  0  0  0
 19 37  1  0  0  0
 19 38  1  0  0  0
 20 39  1  0  0  0
 20 40  1  0  0  0
 21 22  2  0  0  0
 21 23  1  0  0  0
 23 41  1  0  0  0
M  END
> <i_i_glide_confnum>
53

> <i_i_glide_lignum>
3851

> <i_i_glide_posenum>
285

> <i_i_glide_rotatable_bonds>
3

> <i_m_Source_File_Index>
4516

> <b_m_subgroup_collapsed>
0

> <r_i_docking_score>
-4.43955

> <r_i_glide_ecoul>
-0.324535

> <r_i_glide_eff_state_penalty>
0

> <r_i_glide_einternal>
1.10492

> <r_i_glide_emodel>
-49.4519

> <r_i_glide_energy>
-39.3668

> <r_i_glide_erotb>
0.393161

> <r_i_glide_esite>
-0.0273087

> <r_i_glide_evdw>
-39.0423

> <r_i_glide_gscore>
-4.43955

> <r_i_glide_hbond>
0

> <r_i_glide_ligand_efficiency>
-0.184981

> <r_i_glide_ligand_efficiency_ln>
-1.06259

> <r_i_glide_ligand_efficiency_sa>
-0.533578

> <r_i_glide_lipo>
-1.79484

> <r_i_glide_metal>
0

> <r_i_glide_rewards>
-1.00977

> <s_i_glide_gridfile>
wee1_glide-grid

> <s_m_Source_File>
wee1_decoys_glide_SP.sdf

> <s_m_Source_Path>
/Users/zhangxujun/Desktop

> <s_m_entry_id>
4791

> <s_m_entry_name>
wee1_decoys_glide_SP.4516

> <s_m_subgroup_title>
wee1_decoys_glide_SP

> <s_m_subgroupid>
wee1_decoys_glide_SP


$$$$
