@<TRIPOS>MOLECULE
ZINC08455815_5625
54   57    1
SMALL
USER_CHARGES


@<TRIPOS>ATOM
      1 C1          0.6989   50.1804   24.0725 C.3       1 UNK         0.0000 
      2 C2          0.6801   51.6134   23.5217 C.3       1 UNK         0.0000 
      3 C3         -0.5263   52.4190   24.0324 C.3       1 UNK         0.0000 
      4 O4          1.8827   52.2477   23.9464 O.3       1 UNK         0.0000 
      5 C5          2.4978   53.2109   23.2099 C.2       1 UNK         0.0000 
      6 O6          2.1282   53.5638   22.0928 O.2       1 UNK         0.0000 
      7 C7          3.6836   53.7563   23.9044 C.2       1 UNK         0.0000 
      8 C8          4.8961   54.1973   23.2740 C.2       1 UNK         0.0000 
      9 C9          5.8102   54.6933   24.2108 C.2       1 UNK         0.0000 
     10 S10         5.2633   54.6435   25.8395 S.3       1 UNK         0.0000 
     11 C11         3.7653   53.9333   25.3094 C.2       1 UNK         0.0000 
     12 N12         2.8010   53.5043   26.2137 N.am      1 UNK         0.0000 
     13 C13         2.6760   53.7267   27.5353 C.2       1 UNK         0.0000 
     14 O14         3.2686   54.6084   28.1581 O.2       1 UNK         0.0000 
     15 C15         1.7333   52.7164   28.2396 C.3       1 UNK         0.0000 
     16 H16         1.5427   51.9202   27.5151 H         1 UNK         0.0000 
     17 C17         0.3644   53.3222   28.6970 C.3       1 UNK         0.0000 
     18 H18        -0.3243   53.5246   27.8763 H         1 UNK         0.0000 
     19 C19         0.4828   54.4920   29.7034 C.3       1 UNK         0.0000 
     20 C20         1.1580   53.8266   30.8809 C.3       1 UNK         0.0000 
     21 C21         1.1237   52.3322   30.5299 C.3       1 UNK         0.0000 
     22 H22         1.1073   51.6971   31.4155 H         1 UNK         0.0000 
     23 C23        -0.1138   52.2288   29.6467 C.3       1 UNK         0.0000 
     24 C24         2.2699   52.0058   29.5379 C.3       1 UNK         0.0000 
     25 H25         2.1908   50.9383   29.3267 H         1 UNK         0.0000 
     26 C26         3.7208   52.0969   30.0857 C.2       1 UNK         0.0000 
     27 O27         3.8574   52.0154   31.3249 O.co2     1 UNK         0.0000 
     28 C28         5.2332   54.2252   21.8003 C.ar      1 UNK         0.0000 
     29 C29         5.9900   55.2912   21.2875 C.ar      1 UNK         0.0000 
     30 C30         6.2999   55.3623   19.9326 C.ar      1 UNK         0.0000 
     31 C31         5.8517   54.3647   19.0732 C.ar      1 UNK         0.0000 
     32 C32         5.1069   53.2967   19.5610 C.ar      1 UNK         0.0000 
     33 C33         4.8122   53.2190   20.9194 C.ar      1 UNK         0.0000 
     34 Br34        6.2714   54.4544   17.2204 Br        1 UNK         0.0000 
     35 H35        -0.2251   49.6499   23.8408 H         1 UNK         0.0000 
     36 H36         1.5204   49.6057   23.6445 H         1 UNK         0.0000 
     37 H37         0.8328   50.1713   25.1540 H         1 UNK         0.0000 
     38 H38         0.6405   51.5570   22.4337 H         1 UNK         0.0000 
     39 H39        -1.4673   51.9617   23.7193 H         1 UNK         0.0000 
     40 H40        -0.5313   52.4759   25.1238 H         1 UNK         0.0000 
     41 H41        -0.5112   53.4390   23.6473 H         1 UNK         0.0000 
     42 H42         6.7977   55.0838   24.0131 H         1 UNK         0.0000 
     43 H43         2.0863   52.9284   25.7923 H         1 UNK         0.0000 
     44 H44         1.0180   55.3606   29.3183 H         1 UNK         0.0000 
     45 H45        -0.4893   54.8220   30.0781 H         1 UNK         0.0000 
     46 H46         0.7044   54.0574   31.8434 H         1 UNK         0.0000 
     47 H47         2.1779   54.1922   30.8808 H         1 UNK         0.0000 
     48 H48        -1.0380   52.4708   30.1740 H         1 UNK         0.0000 
     49 H49        -0.2404   51.2499   29.1750 H         1 UNK         0.0000 
     50 H50         6.3260   56.0852   21.9366 H         1 UNK         0.0000 
     51 H51         6.8791   56.1871   19.5454 H         1 UNK         0.0000 
     52 H52         4.7723   52.5235   18.8869 H         1 UNK         0.0000 
     53 H53         4.2586   52.3646   21.2750 H         1 UNK         0.0000 
     54 O54         4.6772   52.1045   29.2861 O.co2     1 UNK         0.0000 
@<TRIPOS>BOND
     1    1    2 1    
     2    1   35 1    
     3    1   36 1    
     4    1   37 1    
     5    2    3 1    
     6    2    4 1    
     7    2   38 1    
     8    3   39 1    
     9    3   40 1    
    10    3   41 1    
    11    4    5 1    
    12    5    6 2    
    13    5    7 1    
    14    7   11 2    
    15    7    8 1    
    16    8    9 2    
    17    8   28 1    
    18    9   10 1    
    19    9   42 1    
    20   10   11 1    
    21   11   12 am   BACKBONE|DICT|INTERRES
    22   12   13 am   BACKBONE|DICT|INTERRES
    23   12   43 1    
    24   13   14 2    
    25   13   15 1    
    26   15   16 1    
    27   15   24 1    
    28   15   17 1    
    29   17   18 1    
    30   17   23 1    
    31   17   19 1    
    32   19   20 1    
    33   19   44 1    
    34   19   45 1    
    35   20   21 1    
    36   20   46 1    
    37   20   47 1    
    38   21   22 1    
    39   21   23 1    
    40   21   24 1    
    41   23   48 1    
    42   23   49 1    
    43   24   25 1    
    44   24   26 1    
    45   26   27 2    
    46   26   54 1    
    47   28   33 ar   
    48   28   29 ar   
    49   29   30 ar   
    50   29   50 1    
    51   30   31 ar   
    52   30   51 1    
    53   31   32 ar   
    54   31   34 1    
    55   32   33 ar   
    56   32   52 1    
    57   33   53 1    
@<TRIPOS>SUBSTRUCTURE
     1 UNK         1 GROUP             0       ****    0 ROOT    
