@<TRIPOS>MOLECULE
3BIZ
59   63    1
SMALL
USER_CHARGES


@<TRIPOS>ATOM
      1 C26         8.8180   52.8040   16.3630 C.3       1 61E         0.0900 
      2 N3          7.3910   53.1050   16.6580 N.4       1 61E        -0.1000 
      3 C25         6.6600   53.0310   15.3300 C.3       1 61E         0.0900 
      4 C24         7.2250   54.3760   17.4880 C.3       1 61E         0.1500 
      5 C23         5.7360   54.9230   17.5250 C.3       1 61E        -0.1200 
      6 C22         4.9990   54.7790   18.9030 C.3       1 61E         0.1400 
      7 O4          6.0200   54.9230   19.9780 O.3       1 61E        -0.2850 
      8 C20         5.6410   54.7330   21.2950 C.ar      1 61E         0.0850 
      9 C18         4.3190   54.3370   21.6710 C.ar      1 61E        -0.1150 
     10 C19         6.6470   54.9810   22.2580 C.ar      1 61E         0.1500 
     11 O3          7.8060   55.2810   21.8760 O.3       1 61E        -0.5850 
     12 C17         6.3320   54.7730   23.6350 C.ar      1 61E        -0.1150 
     13 C15         5.0130   54.4440   24.0230 C.ar      1 61E        -0.0155 
     14 C16         4.0090   54.1990   23.0410 C.ar      1 61E        -0.0235 
     15 N2          2.8850   53.8590   23.6860 N.pl3     1 61E        -0.1333 
     16 C21         1.5330   53.5030   23.0800 C.3       1 61E         0.0313 
     17 C14         3.0740   53.8980   24.9910 C.ar      1 61E        -0.0235 
     18 C1          2.1700   53.5410   26.0180 C.ar      1 61E        -0.1150 
     19 C13         4.4050   54.2540   25.2550 C.ar      1 61E        -0.0155 
     20 C4          4.8620   54.3120   26.6110 C.ar      1 61E        -0.1150 
     21 C5          6.0680   54.6060   27.2800 C.2       1 61E         0.6855 
     22 O1          7.0980   55.0050   26.7460 O.2       1 61E        -0.5080 
     23 N1          5.9600   54.5150   28.6380 N.am      1 61E        -0.4817 
     24 C6          4.7280   54.1260   28.8740 C.2       1 61E         0.6855 
     25 O2          4.3170   53.9280   30.0150 O.2       1 61E        -0.5080 
     26 C3          3.9480   53.9930   27.6430 C.ar      1 61E        -0.1150 
     27 C2          2.5960   53.6380   27.3420 C.ar      1 61E         0.0000 
     28 C7          1.6380   53.3760   28.3580 C.ar      1 61E         0.0000 
     29 C12         0.9860   52.1030   28.4200 C.ar      1 61E        -0.1150 
     30 C11         0.0270   51.9030   29.4410 C.ar      1 61E        -0.1150 
     31 C10        -0.2610   52.8740   30.4300 C.ar      1 61E        -0.1150 
     32 C9          0.3500   54.1510   30.3780 C.ar      1 61E        -0.1150 
     33 C8          1.2640   54.4180   29.3030 C.ar      1 61E         0.1800 
     34 CL1         1.8980   56.0290   29.3670 Cl        1 61E        -0.1800 
     35 H261        9.4004   52.8008   17.2854 H         1 61E         0.0600 
     36 H262        8.9296   51.8190   15.9075 H         1 61E         0.0600 
     37 H263        9.2506   53.5480   15.6925 H         1 61E         0.0600 
     38 HN3         7.0347   52.3429   17.2200 H         1 61E         0.2900 
     39 H251        5.5865   52.9172   15.4735 H         1 61E         0.0600 
     40 H252        6.8442   53.9236   14.7309 H         1 61E         0.0600 
     41 H253        6.9746   52.1617   14.7508 H         1 61E         0.0600 
     42 H241        7.8434   55.1442   17.0214 H         1 61E         0.0600 
     43 H242        7.6605   54.2121   18.4725 H         1 61E         0.0600 
     44 H231        5.0962   54.5672   16.7227 H         1 61E         0.0600 
     45 H232        5.8108   55.9961   17.3449 H         1 61E         0.0600 
     46 H221        4.5563   53.7836   18.9572 H         1 61E         0.0300 
     47 H222        4.1998   55.5138   18.9976 H         1 61E         0.0300 
     48 H18         3.5518   54.1490   20.9378 H         1 61E         0.1150 
     49 HO3         8.4351   55.3295   22.5863 H         1 61E         0.4350 
     50 H17         7.1039   54.9220   24.3691 H         1 61E         0.1150 
     51 H211        0.7869   54.2188   23.4226 H         1 61E         0.0600 
     52 H212        1.5820   53.5213   21.9931 H         1 61E         0.0600 
     53 H213        1.2404   52.5014   23.3962 H         1 61E         0.0600 
     54 H1          1.1577   53.2452   25.7845 H         1 61E         0.1150 
     55 HN1         6.6788   54.7333   29.3147 H         1 61E         0.3567 
     56 H12         1.2066   51.3201   27.7085 H         1 61E         0.1150 
     57 H11        -0.4937   50.9618   29.4855 H         1 61E         0.1150 
     58 H10        -0.9546   52.6465   31.2076 H         1 61E         0.1150 
     59 H9          0.1154   54.9045   31.1151 H         1 61E         0.1150 
@<TRIPOS>BOND
     1    1    2 1    
     2    1   35 1    
     3    1   36 1    
     4    1   37 1    
     5    2    3 1    
     6    2    4 1    
     7    2   38 1    
     8    3   39 1    
     9    3   40 1    
    10    3   41 1    
    11    4    5 1    
    12    4   42 1    
    13    4   43 1    
    14    5    6 1    
    15    5   44 1    
    16    5   45 1    
    17    6    7 1    
    18    6   46 1    
    19    6   47 1    
    20    7    8 1    
    21    8    9 ar   
    22    8   10 ar   
    23    9   14 ar   
    24    9   48 1    
    25   10   11 1    
    26   10   12 ar   
    27   11   49 1    
    28   12   13 ar   
    29   12   50 1    
    30   13   14 ar   
    31   13   19 ar   
    32   14   15 ar   
    33   15   16 1    
    34   15   17 ar   
    35   16   51 1    
    36   16   52 1    
    37   16   53 1    
    38   17   18 ar   
    39   17   19 ar   
    40   18   27 ar   
    41   18   54 1    
    42   19   20 ar   
    43   20   21 1    
    44   20   26 ar   
    45   21   22 2    
    46   21   23 am   BACKBONE|DICT|INTERRES
    47   23   24 am   BACKBONE|DICT|INTERRES
    48   23   55 1    
    49   24   25 2    
    50   24   26 1    
    51   26   27 ar   
    52   27   28 1    
    53   28   29 ar   
    54   28   33 ar   
    55   29   30 ar   
    56   29   56 1    
    57   30   31 ar   
    58   30   57 1    
    59   31   32 ar   
    60   31   58 1    
    61   32   33 ar   
    62   32   59 1    
    63   33   34 1    
@<TRIPOS>SUBSTRUCTURE
     1 61E         1 GROUP             0 A     ****    0 ROOT    
